MODEL 1
REMARK VINA RESULT:      -9.2      0.000      0.000
REMARK  Name = 
REMARK  7 active torsions:
REMARK  status: ('A' for Active; 'I' for Inactive)
REMARK    1  A    between atoms: C_1  and  C_2
REMARK    2  A    between atoms: C_2  and  C_3
REMARK    3  A    between atoms: N_5  and  C_6
REMARK    4  A    between atoms: C_8  and  O_9
REMARK    5  A    between atoms: C_10  and  C_11
REMARK    6  A    between atoms: C_11  and  N_12
REMARK    7  A    between atoms: C_13  and  C_15
REMARK                            x       y       z     vdW  Elec       q    Type
REMARK                         _______ _______ _______ _____ _____    ______ ____
ROOT
ATOM      1  C   UNL     1       1.673   9.122  18.326  0.00  0.00    +0.000 C 
ENDROOT
BRANCH   1   5
ATOM      2  C   UNL     1      -0.577  11.082  19.916  0.00  0.00    +0.000 C 
ATOM      3  C   UNL     1      -0.602   9.701  20.561  0.00  0.00    +0.000 C 
ATOM      4  C   UNL     1       0.865   9.386  20.725  0.00  0.00    +0.000 C 
ATOM      5  C   UNL     1       1.517  10.074  19.527  0.00  0.00    +0.000 C 
ATOM      6  O   UNL     1       0.648  11.175  19.161  0.00  0.00    +0.000 OA
BRANCH   2   9
ATOM      7  C   UNL     1      -3.067  10.572  17.226  0.00  0.00    +0.000 A 
ATOM      8  C   UNL     1      -1.931  10.549  17.931  0.00  0.00    +0.000 A 
ATOM      9  N   UNL     1      -1.733  11.316  19.060  0.00  0.00    +0.000 N 
ATOM     10  C   UNL     1      -2.713  12.187  19.523  0.00  0.00    +0.000 A 
ATOM     11  O   UNL     1      -2.632  12.809  20.580  0.00  0.00    +0.000 OA
ATOM     12  N   UNL     1      -3.826  12.299  18.730  0.00  0.00    +0.000 N 
ATOM     13  C   UNL     1      -4.131  11.509  17.653  0.00  0.00    +0.000 A 
ATOM     14  O   UNL     1      -5.220  11.562  17.098  0.00  0.00    +0.000 OA
ATOM     15  H   UNL     1      -4.556  12.910  19.061  0.00  0.00    +0.000 HD
BRANCH   7  17
ATOM     16  C   UNL     1      -2.971  10.354  14.753  0.00  0.00    +0.000 C 
ATOM     17  C   UNL     1      -3.317   9.660  16.065  0.00  0.00    +0.000 C 
ENDBRANCH   7  17
ENDBRANCH   2   9
BRANCH   4  18
ATOM     18  O   UNL     1       1.328   9.931  21.961  0.00  0.00    +0.000 OA
ATOM     19  H   UNL     1       1.639  10.842  21.821  0.00  0.00    +0.000 HD
ENDBRANCH   4  18
ENDBRANCH   1   5
BRANCH   1  20
ATOM     20  N   UNL     1       2.476   7.950  18.647  0.00  0.00    +0.000 N 
ATOM     21  C   UNL     1       2.245   6.704  18.086  0.00  0.00    +0.000 C 
ATOM     22  O   UNL     1       1.338   6.495  17.290  0.00  0.00    +0.000 OA
ATOM     23  H   UNL     1       3.295   8.088  19.229  0.00  0.00    +0.000 HD
BRANCH  21  24
ATOM     24  C   UNL     1       3.196   5.614  18.496  0.00  0.00    +0.000 A 
ATOM     25  C   UNL     1       2.727   4.567  19.355  0.00  0.00    +0.000 A 
ATOM     26  C   UNL     1       1.377   4.369  19.753  0.00  0.00    +0.000 A 
ATOM     27  C   UNL     1       1.018   3.434  20.724  0.00  0.00    +0.000 A 
ATOM     28  C   UNL     1       1.986   2.616  21.280  0.00  0.00    +0.000 A 
ATOM     29  C   UNL     1       3.299   2.698  20.825  0.00  0.00    +0.000 A 
ATOM     30  C   UNL     1       3.675   3.656  19.868  0.00  0.00    +0.000 A 
ATOM     31  C   UNL     1       5.008   3.718  19.449  0.00  0.00    +0.000 A 
ATOM     32  C   UNL     1       5.465   4.714  18.581  0.00  0.00    +0.000 A 
ATOM     33  C   UNL     1       6.831   4.747  18.247  0.00  0.00    +0.000 A 
ATOM     34  C   UNL     1       7.351   5.759  17.447  0.00  0.00    +0.000 A 
ATOM     35  C   UNL     1       6.502   6.736  16.951  0.00  0.00    +0.000 A 
ATOM     36  C   UNL     1       5.136   6.701  17.259  0.00  0.00    +0.000 A 
ATOM     37  C   UNL     1       4.572   5.695  18.090  0.00  0.00    +0.000 A 
ENDBRANCH  21  24
ENDBRANCH   1  20
TORSDOF 6
ENDMDL
MODEL 2
REMARK VINA RESULT:      -9.1      0.546      3.151
REMARK  Name = 
REMARK  7 active torsions:
REMARK  status: ('A' for Active; 'I' for Inactive)
REMARK    1  A    between atoms: C_1  and  C_2
REMARK    2  A    between atoms: C_2  and  C_3
REMARK    3  A    between atoms: N_5  and  C_6
REMARK    4  A    between atoms: C_8  and  O_9
REMARK    5  A    between atoms: C_10  and  C_11
REMARK    6  A    between atoms: C_11  and  N_12
REMARK    7  A    between atoms: C_13  and  C_15
REMARK                            x       y       z     vdW  Elec       q    Type
REMARK                         _______ _______ _______ _____ _____    ______ ____
ROOT
ATOM      1  C   UNL     1       1.775   9.290  18.240  0.00  0.00    +0.000 C 
ENDROOT
BRANCH   1   5
ATOM      2  C   UNL     1      -0.593  11.049  19.892  0.00  0.00    +0.000 C 
ATOM      3  C   UNL     1      -0.576   9.629  20.445  0.00  0.00    +0.000 C 
ATOM      4  C   UNL     1       0.898   9.363  20.628  0.00  0.00    +0.000 C 
ATOM      5  C   UNL     1       1.549  10.154  19.496  0.00  0.00    +0.000 C 
ATOM      6  O   UNL     1       0.644  11.241  19.178  0.00  0.00    +0.000 OA
BRANCH   2   9
ATOM      7  C   UNL     1      -3.065  10.548  17.183  0.00  0.00    +0.000 A 
ATOM      8  C   UNL     1      -1.936  10.516  17.900  0.00  0.00    +0.000 A 
ATOM      9  N   UNL     1      -1.738  11.291  19.022  0.00  0.00    +0.000 N 
ATOM     10  C   UNL     1      -2.708  12.183  19.466  0.00  0.00    +0.000 A 
ATOM     11  O   UNL     1      -2.628  12.815  20.517  0.00  0.00    +0.000 OA
ATOM     12  N   UNL     1      -3.811  12.303  18.661  0.00  0.00    +0.000 N 
ATOM     13  C   UNL     1      -4.118  11.507  17.590  0.00  0.00    +0.000 A 
ATOM     14  O   UNL     1      -5.201  11.570  17.023  0.00  0.00    +0.000 OA
ATOM     15  H   UNL     1      -4.535  12.929  18.978  0.00  0.00    +0.000 HD
BRANCH   7  17
ATOM     16  C   UNL     1      -2.959  10.306  14.713  0.00  0.00    +0.000 C 
ATOM     17  C   UNL     1      -3.318   9.628  16.030  0.00  0.00    +0.000 C 
ENDBRANCH   7  17
ENDBRANCH   2   9
BRANCH   4  18
ATOM     18  O   UNL     1       1.308   9.845  21.909  0.00  0.00    +0.000 OA
ATOM     19  H   UNL     1       0.613   9.663  22.565  0.00  0.00    +0.000 HD
ENDBRANCH   4  18
ENDBRANCH   1   5
BRANCH   1  20
ATOM     20  N   UNL     1       2.587   8.113  18.514  0.00  0.00    +0.000 N 
ATOM     21  C   UNL     1       2.264   6.851  18.043  0.00  0.00    +0.000 C 
ATOM     22  O   UNL     1       1.263   6.631  17.372  0.00  0.00    +0.000 OA
ATOM     23  H   UNL     1       3.473   8.255  18.986  0.00  0.00    +0.000 HD
BRANCH  21  24
ATOM     24  C   UNL     1       3.235   5.755  18.383  0.00  0.00    +0.000 A 
ATOM     25  C   UNL     1       4.441   5.630  17.618  0.00  0.00    +0.000 A 
ATOM     26  C   UNL     1       4.894   6.554  16.637  0.00  0.00    +0.000 A 
ATOM     27  C   UNL     1       5.987   6.285  15.813  0.00  0.00    +0.000 A 
ATOM     28  C   UNL     1       6.708   5.116  15.987  0.00  0.00    +0.000 A 
ATOM     29  C   UNL     1       6.367   4.247  17.019  0.00  0.00    +0.000 A 
ATOM     30  C   UNL     1       5.250   4.495  17.835  0.00  0.00    +0.000 A 
ATOM     31  C   UNL     1       4.930   3.588  18.851  0.00  0.00    +0.000 A 
ATOM     32  C   UNL     1       3.775   3.723  19.627  0.00  0.00    +0.000 A 
ATOM     33  C   UNL     1       3.490   2.742  20.593  0.00  0.00    +0.000 A 
ATOM     34  C   UNL     1       2.317   2.789  21.340  0.00  0.00    +0.000 A 
ATOM     35  C   UNL     1       1.430   3.836  21.146  0.00  0.00    +0.000 A 
ATOM     36  C   UNL     1       1.715   4.831  20.202  0.00  0.00    +0.000 A 
ATOM     37  C   UNL     1       2.892   4.805  19.405  0.00  0.00    +0.000 A 
ENDBRANCH  21  24
ENDBRANCH   1  20
TORSDOF 6
ENDMDL
MODEL 3
REMARK VINA RESULT:      -9.1      1.341      1.665
REMARK  Name = 
REMARK  7 active torsions:
REMARK  status: ('A' for Active; 'I' for Inactive)
REMARK    1  A    between atoms: C_1  and  C_2
REMARK    2  A    between atoms: C_2  and  C_3
REMARK    3  A    between atoms: N_5  and  C_6
REMARK    4  A    between atoms: C_8  and  O_9
REMARK    5  A    between atoms: C_10  and  C_11
REMARK    6  A    between atoms: C_11  and  N_12
REMARK    7  A    between atoms: C_13  and  C_15
REMARK                            x       y       z     vdW  Elec       q    Type
REMARK                         _______ _______ _______ _____ _____    ______ ____
ROOT
ATOM      1  C   UNL     1       1.206   8.990  19.855  0.00  0.00    +0.000 C 
ENDROOT
BRANCH   1   5
ATOM      2  C   UNL     1      -0.278  11.247  21.889  0.00  0.00    +0.000 C 
ATOM      3  C   UNL     1      -0.567   9.850  22.428  0.00  0.00    +0.000 C 
ATOM      4  C   UNL     1       0.785   9.182  22.358  0.00  0.00    +0.000 C 
ATOM      5  C   UNL     1       1.437   9.819  21.133  0.00  0.00    +0.000 C 
ATOM      6  O   UNL     1       0.832  11.127  20.975  0.00  0.00    +0.000 OA
BRANCH   2   9
ATOM      7  C   UNL     1      -2.823  11.917  19.287  0.00  0.00    +0.000 A 
ATOM      8  C   UNL     1      -1.679  11.582  19.894  0.00  0.00    +0.000 A 
ATOM      9  N   UNL     1      -1.435  11.836  21.227  0.00  0.00    +0.000 N 
ATOM     10  C   UNL     1      -2.371  12.487  22.022  0.00  0.00    +0.000 A 
ATOM     11  O   UNL     1      -2.250  12.641  23.236  0.00  0.00    +0.000 OA
ATOM     12  N   UNL     1      -3.489  12.939  21.368  0.00  0.00    +0.000 N 
ATOM     13  C   UNL     1      -3.841  12.646  20.077  0.00  0.00    +0.000 A 
ATOM     14  O   UNL     1      -4.934  12.948  19.619  0.00  0.00    +0.000 OA
ATOM     15  H   UNL     1      -4.188  13.394  21.933  0.00  0.00    +0.000 HD
BRANCH   7  17
ATOM     16  C   UNL     1      -2.724  10.099  17.596  0.00  0.00    +0.000 C 
ATOM     17  C   UNL     1      -3.126  11.544  17.869  0.00  0.00    +0.000 C 
ENDBRANCH   7  17
ENDBRANCH   2   9
BRANCH   4  18
ATOM     18  O   UNL     1       1.515   9.470  23.551  0.00  0.00    +0.000 OA
ATOM     19  H   UNL     1       1.448   8.718  24.165  0.00  0.00    +0.000 HD
ENDBRANCH   4  18
ENDBRANCH   1   5
BRANCH   1  20
ATOM     20  N   UNL     1       2.021   7.783  19.821  0.00  0.00    +0.000 N 
ATOM     21  C   UNL     1       2.342   7.126  18.645  0.00  0.00    +0.000 C 
ATOM     22  O   UNL     1       1.951   7.504  17.548  0.00  0.00    +0.000 OA
ATOM     23  H   UNL     1       2.445   7.480  20.691  0.00  0.00    +0.000 HD
BRANCH  21  24
ATOM     24  C   UNL     1       3.228   5.920  18.788  0.00  0.00    +0.000 A 
ATOM     25  C   UNL     1       2.743   4.779  19.508  0.00  0.00    +0.000 A 
ATOM     26  C   UNL     1       1.415   4.612  19.988  0.00  0.00    +0.000 A 
ATOM     27  C   UNL     1       1.056   3.556  20.825  0.00  0.00    +0.000 A 
ATOM     28  C   UNL     1       1.993   2.591  21.155  0.00  0.00    +0.000 A 
ATOM     29  C   UNL     1       3.269   2.657  20.603  0.00  0.00    +0.000 A 
ATOM     30  C   UNL     1       3.648   3.733  19.782  0.00  0.00    +0.000 A 
ATOM     31  C   UNL     1       4.946   3.772  19.260  0.00  0.00    +0.000 A 
ATOM     32  C   UNL     1       5.416   4.864  18.526  0.00  0.00    +0.000 A 
ATOM     33  C   UNL     1       6.750   4.858  18.080  0.00  0.00    +0.000 A 
ATOM     34  C   UNL     1       7.288   5.951  17.409  0.00  0.00    +0.000 A 
ATOM     35  C   UNL     1       6.487   7.053  17.153  0.00  0.00    +0.000 A 
ATOM     36  C   UNL     1       5.150   7.061  17.573  0.00  0.00    +0.000 A 
ATOM     37  C   UNL     1       4.571   5.973  18.280  0.00  0.00    +0.000 A 
ENDBRANCH  21  24
ENDBRANCH   1  20
TORSDOF 6
ENDMDL
MODEL 4
REMARK VINA RESULT:      -9.1      2.641      9.384
REMARK  Name = 
REMARK  7 active torsions:
REMARK  status: ('A' for Active; 'I' for Inactive)
REMARK    1  A    between atoms: C_1  and  C_2
REMARK    2  A    between atoms: C_2  and  C_3
REMARK    3  A    between atoms: N_5  and  C_6
REMARK    4  A    between atoms: C_8  and  O_9
REMARK    5  A    between atoms: C_10  and  C_11
REMARK    6  A    between atoms: C_11  and  N_12
REMARK    7  A    between atoms: C_13  and  C_15
REMARK                            x       y       z     vdW  Elec       q    Type
REMARK                         _______ _______ _______ _____ _____    ______ ____
ROOT
ATOM      1  C   UNL     1       2.310   7.958  19.565  0.00  0.00    +0.000 C 
ENDROOT
BRANCH   1   5
ATOM      2  C   UNL     1       2.940   4.837  18.426  0.00  0.00    +0.000 C 
ATOM      3  C   UNL     1       3.157   4.852  19.935  0.00  0.00    +0.000 C 
ATOM      4  C   UNL     1       1.944   5.595  20.437  0.00  0.00    +0.000 C 
ATOM      5  C   UNL     1       1.644   6.591  19.319  0.00  0.00    +0.000 C 
ATOM      6  O   UNL     1       2.169   6.011  18.098  0.00  0.00    +0.000 OA
BRANCH   2   9
ATOM      7  C   UNL     1       6.263   5.901  17.191  0.00  0.00    +0.000 A 
ATOM      8  C   UNL     1       5.015   5.925  17.672  0.00  0.00    +0.000 A 
ATOM      9  N   UNL     1       4.195   4.816  17.685  0.00  0.00    +0.000 N 
ATOM     10  C   UNL     1       4.619   3.597  17.169  0.00  0.00    +0.000 A 
ATOM     11  O   UNL     1       3.972   2.555  17.255  0.00  0.00    +0.000 OA
ATOM     12  N   UNL     1       5.851   3.607  16.566  0.00  0.00    +0.000 N 
ATOM     13  C   UNL     1       6.753   4.637  16.596  0.00  0.00    +0.000 A 
ATOM     14  O   UNL     1       7.896   4.510  16.177  0.00  0.00    +0.000 OA
ATOM     15  H   UNL     1       6.183   2.727  16.206  0.00  0.00    +0.000 HD
BRANCH   7  17
ATOM     16  C   UNL     1       8.055   6.988  18.525  0.00  0.00    +0.000 C 
ATOM     17  C   UNL     1       7.185   7.077  17.277  0.00  0.00    +0.000 C 
ENDBRANCH   7  17
ENDBRANCH   2   9
BRANCH   4  18
ATOM     18  O   UNL     1       0.869   4.672  20.622  0.00  0.00    +0.000 OA
ATOM     19  H   UNL     1       1.225   3.803  20.875  0.00  0.00    +0.000 HD
ENDBRANCH   4  18
ENDBRANCH   1   5
BRANCH   1  20
ATOM     20  N   UNL     1       1.343   9.045  19.622  0.00  0.00    +0.000 N 
ATOM     21  C   UNL     1       1.225  10.000  18.626  0.00  0.00    +0.000 C 
ATOM     22  O   UNL     1       1.938  10.009  17.630  0.00  0.00    +0.000 OA
ATOM     23  H   UNL     1       0.668   9.031  20.380  0.00  0.00    +0.000 HD
BRANCH  21  24
ATOM     24  C   UNL     1       0.145  11.027  18.825  0.00  0.00    +0.000 A 
ATOM     25  C   UNL     1       0.408  12.163  19.659  0.00  0.00    +0.000 A 
ATOM     26  C   UNL     1       1.672  12.503  20.213  0.00  0.00    +0.000 A 
ATOM     27  C   UNL     1       1.820  13.526  21.150  0.00  0.00    +0.000 A 
ATOM     28  C   UNL     1       0.724  14.290  21.513  0.00  0.00    +0.000 A 
ATOM     29  C   UNL     1      -0.504  14.064  20.898  0.00  0.00    +0.000 A 
ATOM     30  C   UNL     1      -0.669  13.018  19.974  0.00  0.00    +0.000 A 
ATOM     31  C   UNL     1      -1.924  12.813  19.390  0.00  0.00    +0.000 A 
ATOM     32  C   UNL     1      -2.179  11.727  18.547  0.00  0.00    +0.000 A 
ATOM     33  C   UNL     1      -3.479  11.554  18.040  0.00  0.00    +0.000 A 
ATOM     34  C   UNL     1      -3.804  10.451  17.257  0.00  0.00    +0.000 A 
ATOM     35  C   UNL     1      -2.821   9.523  16.950  0.00  0.00    +0.000 A 
ATOM     36  C   UNL     1      -1.517   9.698  17.431  0.00  0.00    +0.000 A 
ATOM     37  C   UNL     1      -1.153  10.799  18.251  0.00  0.00    +0.000 A 
ENDBRANCH  21  24
ENDBRANCH   1  20
TORSDOF 6
ENDMDL
MODEL 5
REMARK VINA RESULT:      -8.9      1.368      3.576
REMARK  Name = 
REMARK  7 active torsions:
REMARK  status: ('A' for Active; 'I' for Inactive)
REMARK    1  A    between atoms: C_1  and  C_2
REMARK    2  A    between atoms: C_2  and  C_3
REMARK    3  A    between atoms: N_5  and  C_6
REMARK    4  A    between atoms: C_8  and  O_9
REMARK    5  A    between atoms: C_10  and  C_11
REMARK    6  A    between atoms: C_11  and  N_12
REMARK    7  A    between atoms: C_13  and  C_15
REMARK                            x       y       z     vdW  Elec       q    Type
REMARK                         _______ _______ _______ _____ _____    ______ ____
ROOT
ATOM      1  C   UNL     1       1.192   8.987  19.939  0.00  0.00    +0.000 C 
ENDROOT
BRANCH   1   5
ATOM      2  C   UNL     1      -0.350  11.258  21.912  0.00  0.00    +0.000 C 
ATOM      3  C   UNL     1      -0.645   9.866  22.460  0.00  0.00    +0.000 C 
ATOM      4  C   UNL     1       0.711   9.204  22.428  0.00  0.00    +0.000 C 
ATOM      5  C   UNL     1       1.389   9.830  21.212  0.00  0.00    +0.000 C 
ATOM      6  O   UNL     1       0.782  11.134  21.027  0.00  0.00    +0.000 OA
BRANCH   2   9
ATOM      7  C   UNL     1      -2.829  11.896  19.240  0.00  0.00    +0.000 A 
ATOM      8  C   UNL     1      -1.699  11.574  19.878  0.00  0.00    +0.000 A 
ATOM      9  N   UNL     1      -1.494  11.835  21.217  0.00  0.00    +0.000 N 
ATOM     10  C   UNL     1      -2.456  12.480  21.983  0.00  0.00    +0.000 A 
ATOM     11  O   UNL     1      -2.370  12.639  23.200  0.00  0.00    +0.000 OA
ATOM     12  N   UNL     1      -3.560  12.920  21.298  0.00  0.00    +0.000 N 
ATOM     13  C   UNL     1      -3.874  12.619  19.999  0.00  0.00    +0.000 A 
ATOM     14  O   UNL     1      -4.957  12.910  19.510  0.00  0.00    +0.000 OA
ATOM     15  H   UNL     1      -4.278  13.371  21.842  0.00  0.00    +0.000 HD
BRANCH   7  17
ATOM     16  C   UNL     1      -2.424  10.185  17.484  0.00  0.00    +0.000 C 
ATOM     17  C   UNL     1      -3.090  11.515  17.815  0.00  0.00    +0.000 C 
ENDBRANCH   7  17
ENDBRANCH   2   9
BRANCH   4  18
ATOM     18  O   UNL     1       1.411   9.507  23.636  0.00  0.00    +0.000 OA
ATOM     19  H   UNL     1       0.858   9.274  24.402  0.00  0.00    +0.000 HD
ENDBRANCH   4  18
ENDBRANCH   1   5
BRANCH   1  20
ATOM     20  N   UNL     1       2.016   7.786  19.935  0.00  0.00    +0.000 N 
ATOM     21  C   UNL     1       2.443   7.171  18.769  0.00  0.00    +0.000 C 
ATOM     22  O   UNL     1       2.145   7.585  17.656  0.00  0.00    +0.000 OA
ATOM     23  H   UNL     1       2.367   7.456  20.828  0.00  0.00    +0.000 HD
BRANCH  21  24
ATOM     24  C   UNL     1       3.324   5.966  18.948  0.00  0.00    +0.000 A 
ATOM     25  C   UNL     1       4.608   5.940  18.311  0.00  0.00    +0.000 A 
ATOM     26  C   UNL     1       5.211   7.031  17.629  0.00  0.00    +0.000 A 
ATOM     27  C   UNL     1       6.385   6.887  16.890  0.00  0.00    +0.000 A 
ATOM     28  C   UNL     1       7.034   5.665  16.863  0.00  0.00    +0.000 A 
ATOM     29  C   UNL     1       6.538   4.607  17.619  0.00  0.00    +0.000 A 
ATOM     30  C   UNL     1       5.340   4.735  18.344  0.00  0.00    +0.000 A 
ATOM     31  C   UNL     1       4.865   3.643  19.079  0.00  0.00    +0.000 A 
ATOM     32  C   UNL     1       3.631   3.673  19.733  0.00  0.00    +0.000 A 
ATOM     33  C   UNL     1       3.192   2.518  20.406  0.00  0.00    +0.000 A 
ATOM     34  C   UNL     1       1.941   2.470  21.011  0.00  0.00    +0.000 A 
ATOM     35  C   UNL     1       1.124   3.590  20.971  0.00  0.00    +0.000 A 
ATOM     36  C   UNL     1       1.560   4.753  20.323  0.00  0.00    +0.000 A 
ATOM     37  C   UNL     1       2.822   4.832  19.676  0.00  0.00    +0.000 A 
ENDBRANCH  21  24
ENDBRANCH   1  20
TORSDOF 6
ENDMDL
MODEL 6
REMARK VINA RESULT:      -8.8      2.648      3.460
REMARK  Name = 
REMARK  7 active torsions:
REMARK  status: ('A' for Active; 'I' for Inactive)
REMARK    1  A    between atoms: C_1  and  C_2
REMARK    2  A    between atoms: C_2  and  C_3
REMARK    3  A    between atoms: N_5  and  C_6
REMARK    4  A    between atoms: C_8  and  O_9
REMARK    5  A    between atoms: C_10  and  C_11
REMARK    6  A    between atoms: C_11  and  N_12
REMARK    7  A    between atoms: C_13  and  C_15
REMARK                            x       y       z     vdW  Elec       q    Type
REMARK                         _______ _______ _______ _____ _____    ______ ____
ROOT
ATOM      1  C   UNL     1       1.492   8.994  19.080  0.00  0.00    +0.000 C 
ENDROOT
BRANCH   1   5
ATOM      2  C   UNL     1       0.299  12.149  18.853  0.00  0.00    +0.000 C 
ATOM      3  C   UNL     1       1.782  12.219  19.199  0.00  0.00    +0.000 C 
ATOM      4  C   UNL     1       2.393  11.222  18.245  0.00  0.00    +0.000 C 
ATOM      5  C   UNL     1       1.307  10.160  18.091  0.00  0.00    +0.000 C 
ATOM      6  O   UNL     1       0.043  10.820  18.355  0.00  0.00    +0.000 OA
BRANCH   2   9
ATOM      7  C   UNL     1      -1.322  11.800  22.162  0.00  0.00    +0.000 A 
ATOM      8  C   UNL     1      -0.729  11.515  20.997  0.00  0.00    +0.000 A 
ATOM      9  N   UNL     1      -0.553  12.448  19.997  0.00  0.00    +0.000 N 
ATOM     10  C   UNL     1      -1.010  13.753  20.138  0.00  0.00    +0.000 A 
ATOM     11  O   UNL     1      -0.783  14.649  19.326  0.00  0.00    +0.000 OA
ATOM     12  N   UNL     1      -1.725  14.009  21.279  0.00  0.00    +0.000 N 
ATOM     13  C   UNL     1      -1.861  13.166  22.350  0.00  0.00    +0.000 A 
ATOM     14  O   UNL     1      -2.374  13.529  23.400  0.00  0.00    +0.000 OA
ATOM     15  H   UNL     1      -2.046  14.955  21.408  0.00  0.00    +0.000 HD
BRANCH   7  17
ATOM     16  C   UNL     1      -0.317   9.764  23.171  0.00  0.00    +0.000 C 
ATOM     17  C   UNL     1      -1.416  10.814  23.285  0.00  0.00    +0.000 C 
ENDBRANCH   7  17
ENDBRANCH   2   9
BRANCH   4  18
ATOM     18  O   UNL     1       2.673  11.871  17.004  0.00  0.00    +0.000 OA
ATOM     19  H   UNL     1       2.429  11.286  16.266  0.00  0.00    +0.000 HD
ENDBRANCH   4  18
ENDBRANCH   1   5
BRANCH   1  20
ATOM     20  N   UNL     1       2.109   7.830  18.458  0.00  0.00    +0.000 N 
ATOM     21  C   UNL     1       2.635   6.777  19.188  0.00  0.00    +0.000 C 
ATOM     22  O   UNL     1       2.631   6.754  20.413  0.00  0.00    +0.000 OA
ATOM     23  H   UNL     1       2.056   7.756  17.447  0.00  0.00    +0.000 HD
BRANCH  21  24
ATOM     24  C   UNL     1       3.196   5.637  18.385  0.00  0.00    +0.000 A 
ATOM     25  C   UNL     1       2.511   4.377  18.390  0.00  0.00    +0.000 A 
ATOM     26  C   UNL     1       1.240   4.133  18.977  0.00  0.00    +0.000 A 
ATOM     27  C   UNL     1       0.710   2.848  19.093  0.00  0.00    +0.000 A 
ATOM     28  C   UNL     1       1.400   1.770  18.564  0.00  0.00    +0.000 A 
ATOM     29  C   UNL     1       2.589   1.988  17.874  0.00  0.00    +0.000 A 
ATOM     30  C   UNL     1       3.144   3.276  17.778  0.00  0.00    +0.000 A 
ATOM     31  C   UNL     1       4.350   3.451  17.090  0.00  0.00    +0.000 A 
ATOM     32  C   UNL     1       5.006   4.684  17.049  0.00  0.00    +0.000 A 
ATOM     33  C   UNL     1       6.243   4.773  16.386  0.00  0.00    +0.000 A 
ATOM     34  C   UNL     1       6.971   5.957  16.378  0.00  0.00    +0.000 A 
ATOM     35  C   UNL     1       6.455   7.076  17.012  0.00  0.00    +0.000 A 
ATOM     36  C   UNL     1       5.213   7.006  17.657  0.00  0.00    +0.000 A 
ATOM     37  C   UNL     1       4.450   5.808  17.705  0.00  0.00    +0.000 A 
ENDBRANCH  21  24
ENDBRANCH   1  20
TORSDOF 6
ENDMDL
MODEL 7
REMARK VINA RESULT:      -8.8      2.604      9.246
REMARK  Name = 
REMARK  7 active torsions:
REMARK  status: ('A' for Active; 'I' for Inactive)
REMARK    1  A    between atoms: C_1  and  C_2
REMARK    2  A    between atoms: C_2  and  C_3
REMARK    3  A    between atoms: N_5  and  C_6
REMARK    4  A    between atoms: C_8  and  O_9
REMARK    5  A    between atoms: C_10  and  C_11
REMARK    6  A    between atoms: C_11  and  N_12
REMARK    7  A    between atoms: C_13  and  C_15
REMARK                            x       y       z     vdW  Elec       q    Type
REMARK                         _______ _______ _______ _____ _____    ______ ____
ROOT
ATOM      1  C   UNL     1       2.288   7.921  19.420  0.00  0.00    +0.000 C 
ENDROOT
BRANCH   1   5
ATOM      2  C   UNL     1       3.020   4.770  18.438  0.00  0.00    +0.000 C 
ATOM      3  C   UNL     1       3.278   4.879  19.937  0.00  0.00    +0.000 C 
ATOM      4  C   UNL     1       2.048   5.599  20.433  0.00  0.00    +0.000 C 
ATOM      5  C   UNL     1       1.675   6.517  19.271  0.00  0.00    +0.000 C 
ATOM      6  O   UNL     1       2.190   5.891  18.069  0.00  0.00    +0.000 OA
BRANCH   2   9
ATOM      7  C   UNL     1       6.330   5.824  17.162  0.00  0.00    +0.000 A 
ATOM      8  C   UNL     1       5.096   5.851  17.678  0.00  0.00    +0.000 A 
ATOM      9  N   UNL     1       4.254   4.759  17.662  0.00  0.00    +0.000 N 
ATOM     10  C   UNL     1       4.638   3.558  17.078  0.00  0.00    +0.000 A 
ATOM     11  O   UNL     1       3.971   2.526  17.132  0.00  0.00    +0.000 OA
ATOM     12  N   UNL     1       5.852   3.572  16.442  0.00  0.00    +0.000 N 
ATOM     13  C   UNL     1       6.777   4.581  16.495  0.00  0.00    +0.000 A 
ATOM     14  O   UNL     1       7.905   4.451  16.039  0.00  0.00    +0.000 OA
ATOM     15  H   UNL     1       6.157   2.704  16.032  0.00  0.00    +0.000 HD
BRANCH   7  17
ATOM     16  C   UNL     1       8.048   6.911  18.592  0.00  0.00    +0.000 C 
ATOM     17  C   UNL     1       7.280   6.977  17.277  0.00  0.00    +0.000 C 
ENDBRANCH   7  17
ENDBRANCH   2   9
BRANCH   4  18
ATOM     18  O   UNL     1       1.020   4.645  20.701  0.00  0.00    +0.000 OA
ATOM     19  H   UNL     1       0.162   4.995  20.403  0.00  0.00    +0.000 HD
ENDBRANCH   4  18
ENDBRANCH   1   5
BRANCH   1  20
ATOM     20  N   UNL     1       1.274   8.959  19.551  0.00  0.00    +0.000 N 
ATOM     21  C   UNL     1       1.127   9.986  18.633  0.00  0.00    +0.000 C 
ATOM     22  O   UNL     1       1.849  10.104  17.651  0.00  0.00    +0.000 OA
ATOM     23  H   UNL     1       0.593   8.857  20.295  0.00  0.00    +0.000 HD
BRANCH  21  24
ATOM     24  C   UNL     1       0.001  10.947  18.898  0.00  0.00    +0.000 A 
ATOM     25  C   UNL     1      -1.256  10.747  18.239  0.00  0.00    +0.000 A 
ATOM     26  C   UNL     1      -1.602   9.617  17.450  0.00  0.00    +0.000 A 
ATOM     27  C   UNL     1      -2.777   9.566  16.701  0.00  0.00    +0.000 A 
ATOM     28  C   UNL     1      -3.680  10.613  16.768  0.00  0.00    +0.000 A 
ATOM     29  C   UNL     1      -3.431  11.680  17.625  0.00  0.00    +0.000 A 
ATOM     30  C   UNL     1      -2.236  11.753  18.362  0.00  0.00    +0.000 A 
ATOM     31  C   UNL     1      -2.016  12.851  19.200  0.00  0.00    +0.000 A 
ATOM     32  C   UNL     1      -0.806  13.035  19.877  0.00  0.00    +0.000 A 
ATOM     33  C   UNL     1      -0.635  14.191  20.658  0.00  0.00    +0.000 A 
ATOM     34  C   UNL     1       0.574  14.458  21.292  0.00  0.00    +0.000 A 
ATOM     35  C   UNL     1       1.618  13.554  21.172  0.00  0.00    +0.000 A 
ATOM     36  C   UNL     1       1.451  12.387  20.414  0.00  0.00    +0.000 A 
ATOM     37  C   UNL     1       0.239  12.091  19.734  0.00  0.00    +0.000 A 
ENDBRANCH  21  24
ENDBRANCH   1  20
TORSDOF 6
ENDMDL
MODEL 8
REMARK VINA RESULT:      -8.8      1.494      2.710
REMARK  Name = 
REMARK  7 active torsions:
REMARK  status: ('A' for Active; 'I' for Inactive)
REMARK    1  A    between atoms: C_1  and  C_2
REMARK    2  A    between atoms: C_2  and  C_3
REMARK    3  A    between atoms: N_5  and  C_6
REMARK    4  A    between atoms: C_8  and  O_9
REMARK    5  A    between atoms: C_10  and  C_11
REMARK    6  A    between atoms: C_11  and  N_12
REMARK    7  A    between atoms: C_13  and  C_15
REMARK                            x       y       z     vdW  Elec       q    Type
REMARK                         _______ _______ _______ _____ _____    ______ ____
ROOT
ATOM      1  C   UNL     1       1.285   9.010  19.907  0.00  0.00    +0.000 C 
ENDROOT
BRANCH   1   5
ATOM      2  C   UNL     1      -0.415  11.411  18.242  0.00  0.00    +0.000 C 
ATOM      3  C   UNL     1       0.792  12.055  18.916  0.00  0.00    +0.000 C 
ATOM      4  C   UNL     1       1.907  11.094  18.586  0.00  0.00    +0.000 C 
ATOM      5  C   UNL     1       1.212   9.735  18.551  0.00  0.00    +0.000 C 
ATOM      6  O   UNL     1      -0.175   9.989  18.213  0.00  0.00    +0.000 OA
BRANCH   2   9
ATOM      7  C   UNL     1      -2.729  12.652  20.849  0.00  0.00    +0.000 A 
ATOM      8  C   UNL     1      -1.647  12.163  20.235  0.00  0.00    +0.000 A 
ATOM      9  N   UNL     1      -1.663  11.714  18.932  0.00  0.00    +0.000 N 
ATOM     10  C   UNL     1      -2.831  11.722  18.179  0.00  0.00    +0.000 A 
ATOM     11  O   UNL     1      -2.877  11.437  16.983  0.00  0.00    +0.000 OA
ATOM     12  N   UNL     1      -3.963  12.108  18.849  0.00  0.00    +0.000 N 
ATOM     13  C   UNL     1      -4.010  12.651  20.106  0.00  0.00    +0.000 A 
ATOM     14  O   UNL     1      -5.038  13.124  20.570  0.00  0.00    +0.000 OA
ATOM     15  H   UNL     1      -4.815  12.141  18.313  0.00  0.00    +0.000 HD
BRANCH   7  17
ATOM     16  C   UNL     1      -2.857  12.148  23.280  0.00  0.00    +0.000 C 
ATOM     17  C   UNL     1      -2.683  13.237  22.227  0.00  0.00    +0.000 C 
ENDBRANCH   7  17
ENDBRANCH   2   9
BRANCH   4  18
ATOM     18  O   UNL     1       2.462  11.435  17.315  0.00  0.00    +0.000 OA
ATOM     19  H   UNL     1       2.361  10.686  16.703  0.00  0.00    +0.000 HD
ENDBRANCH   4  18
ENDBRANCH   1   5
BRANCH   1  20
ATOM     20  N   UNL     1       2.091   7.798  19.847  0.00  0.00    +0.000 N 
ATOM     21  C   UNL     1       2.298   7.091  18.673  0.00  0.00    +0.000 C 
ATOM     22  O   UNL     1       1.807   7.427  17.603  0.00  0.00    +0.000 OA
ATOM     23  H   UNL     1       2.595   7.528  20.685  0.00  0.00    +0.000 HD
BRANCH  21  24
ATOM     24  C   UNL     1       3.192   5.887  18.782  0.00  0.00    +0.000 A 
ATOM     25  C   UNL     1       2.727   4.736  19.500  0.00  0.00    +0.000 A 
ATOM     26  C   UNL     1       1.412   4.559  20.008  0.00  0.00    +0.000 A 
ATOM     27  C   UNL     1       1.076   3.491  20.842  0.00  0.00    +0.000 A 
ATOM     28  C   UNL     1       2.024   2.527  21.139  0.00  0.00    +0.000 A 
ATOM     29  C   UNL     1       3.286   2.604  20.558  0.00  0.00    +0.000 A 
ATOM     30  C   UNL     1       3.643   3.691  19.741  0.00  0.00    +0.000 A 
ATOM     31  C   UNL     1       4.927   3.740  19.190  0.00  0.00    +0.000 A 
ATOM     32  C   UNL     1       5.376   4.842  18.457  0.00  0.00    +0.000 A 
ATOM     33  C   UNL     1       6.699   4.846  17.980  0.00  0.00    +0.000 A 
ATOM     34  C   UNL     1       7.218   5.948  17.309  0.00  0.00    +0.000 A 
ATOM     35  C   UNL     1       6.408   7.050  17.085  0.00  0.00    +0.000 A 
ATOM     36  C   UNL     1       5.081   7.049  17.535  0.00  0.00    +0.000 A 
ATOM     37  C   UNL     1       4.523   5.950  18.243  0.00  0.00    +0.000 A 
ENDBRANCH  21  24
ENDBRANCH   1  20
TORSDOF 6
ENDMDL
MODEL 9
REMARK VINA RESULT:      -8.7      2.393      4.926
REMARK  Name = 
REMARK  7 active torsions:
REMARK  status: ('A' for Active; 'I' for Inactive)
REMARK    1  A    between atoms: C_1  and  C_2
REMARK    2  A    between atoms: C_2  and  C_3
REMARK    3  A    between atoms: N_5  and  C_6
REMARK    4  A    between atoms: C_8  and  O_9
REMARK    5  A    between atoms: C_10  and  C_11
REMARK    6  A    between atoms: C_11  and  N_12
REMARK    7  A    between atoms: C_13  and  C_15
REMARK                            x       y       z     vdW  Elec       q    Type
REMARK                         _______ _______ _______ _____ _____    ______ ____
ROOT
ATOM      1  C   UNL     1       1.368   9.364  18.004  0.00  0.00    +0.000 C 
ENDROOT
BRANCH   1   5
ATOM      2  C   UNL     1      -0.937  11.082  19.783  0.00  0.00    +0.000 C 
ATOM      3  C   UNL     1      -1.055  11.493  18.319  0.00  0.00    +0.000 C 
ATOM      4  C   UNL     1      -1.012  10.168  17.599  0.00  0.00    +0.000 C 
ATOM      5  C   UNL     1      -0.098   9.312  18.474  0.00  0.00    +0.000 C 
ATOM      6  O   UNL     1      -0.194   9.847  19.818  0.00  0.00    +0.000 OA
BRANCH   2   9
ATOM      7  C   UNL     1       1.373  13.812  20.735  0.00  0.00    +0.000 A 
ATOM      8  C   UNL     1       0.853  12.733  20.141  0.00  0.00    +0.000 A 
ATOM      9  N   UNL     1      -0.287  12.104  20.595  0.00  0.00    +0.000 N 
ATOM     10  C   UNL     1      -0.957  12.550  21.728  0.00  0.00    +0.000 A 
ATOM     11  O   UNL     1      -2.033  12.095  22.111  0.00  0.00    +0.000 OA
ATOM     12  N   UNL     1      -0.353  13.578  22.404  0.00  0.00    +0.000 N 
ATOM     13  C   UNL     1       0.721  14.309  21.968  0.00  0.00    +0.000 A 
ATOM     14  O   UNL     1       1.099  15.317  22.549  0.00  0.00    +0.000 OA
ATOM     15  H   UNL     1      -0.835  13.929  23.216  0.00  0.00    +0.000 HD
BRANCH   7  17
ATOM     16  C   UNL     1       3.041  13.896  18.895  0.00  0.00    +0.000 C 
ATOM     17  C   UNL     1       2.548  14.555  20.178  0.00  0.00    +0.000 C 
ENDBRANCH   7  17
ENDBRANCH   2   9
BRANCH   4  18
ATOM     18  O   UNL     1      -2.332   9.626  17.531  0.00  0.00    +0.000 OA
ATOM     19  H   UNL     1      -2.472   9.010  18.271  0.00  0.00    +0.000 HD
ENDBRANCH   4  18
ENDBRANCH   1   5
BRANCH   1  20
ATOM     20  N   UNL     1       1.934   8.037  17.803  0.00  0.00    +0.000 N 
ATOM     21  C   UNL     1       2.454   7.277  18.838  0.00  0.00    +0.000 C 
ATOM     22  O   UNL     1       2.488   7.672  19.997  0.00  0.00    +0.000 OA
ATOM     23  H   UNL     1       1.847   7.626  16.880  0.00  0.00    +0.000 HD
BRANCH  21  24
ATOM     24  C   UNL     1       2.958   5.912  18.460  0.00  0.00    +0.000 A 
ATOM     25  C   UNL     1       3.924   5.792  17.408  0.00  0.00    +0.000 A 
ATOM     26  C   UNL     1       4.582   6.876  16.767  0.00  0.00    +0.000 A 
ATOM     27  C   UNL     1       5.382   6.696  15.639  0.00  0.00    +0.000 A 
ATOM     28  C   UNL     1       5.610   5.420  15.154  0.00  0.00    +0.000 A 
ATOM     29  C   UNL     1       5.081   4.325  15.831  0.00  0.00    +0.000 A 
ATOM     30  C   UNL     1       4.250   4.498  16.951  0.00  0.00    +0.000 A 
ATOM     31  C   UNL     1       3.724   3.372  17.594  0.00  0.00    +0.000 A 
ATOM     32  C   UNL     1       2.809   3.480  18.645  0.00  0.00    +0.000 A 
ATOM     33  C   UNL     1       2.280   2.305  19.207  0.00  0.00    +0.000 A 
ATOM     34  C   UNL     1       1.313   2.357  20.205  0.00  0.00    +0.000 A 
ATOM     35  C   UNL     1       0.884   3.590  20.671  0.00  0.00    +0.000 A 
ATOM     36  C   UNL     1       1.421   4.768  20.134  0.00  0.00    +0.000 A 
ATOM     37  C   UNL     1       2.394   4.754  19.099  0.00  0.00    +0.000 A 
ENDBRANCH  21  24
ENDBRANCH   1  20
TORSDOF 6
ENDMDL
