MODEL 1
REMARK VINA RESULT:      -7.6      0.000      0.000
REMARK  Name = 
REMARK  6 active torsions:
REMARK  status: ('A' for Active; 'I' for Inactive)
REMARK    1  A    between atoms: C_2  and  C_12
REMARK    2  A    between atoms: N_3  and  C_4
REMARK    3  A    between atoms: C_4  and  C_5
REMARK    4  A    between atoms: C_5  and  N_6
REMARK    5  A    between atoms: C_12  and  C_13
REMARK    6  A    between atoms: C_12  and  C_19
REMARK                            x       y       z     vdW  Elec       q    Type
REMARK                         _______ _______ _______ _____ _____    ______ ____
ROOT
ATOM      1  C   UNL     1       3.547   6.396  18.387  0.00  0.00    +0.000 C 
ENDROOT
BRANCH   1   2
ATOM      2  C   UNL     1       2.638   5.313  18.970  0.00  0.00    +0.000 A 
ATOM      3  C   UNL     1       2.631   4.972  20.330  0.00  0.00    +0.000 A 
ATOM      4  C   UNL     1       1.815   3.927  20.806  0.00  0.00    +0.000 A 
ATOM      5  C   UNL     1       0.998   3.211  19.932  0.00  0.00    +0.000 A 
ATOM      6  C   UNL     1       0.987   3.548  18.578  0.00  0.00    +0.000 A 
ATOM      7  C   UNL     1       1.805   4.582  18.103  0.00  0.00    +0.000 A 
ENDBRANCH   1   2
BRANCH   1   8
ATOM      8  C   UNL     1       4.388   6.021  17.119  0.00  0.00    +0.000 C 
ATOM      9  C   UNL     1       5.697   6.856  17.047  0.00  0.00    +0.000 C 
ATOM     10  C   UNL     1       6.753   6.422  18.071  0.00  0.00    +0.000 C 
ATOM     11  C   UNL     1       7.036   4.923  18.019  0.00  0.00    +0.000 C 
ATOM     12  C   UNL     1       5.758   4.092  18.058  0.00  0.00    +0.000 C 
ATOM     13  C   UNL     1       4.780   4.538  16.975  0.00  0.00    +0.000 C 
ENDBRANCH   1   8
BRANCH   1  15
ATOM     14  O   UNL     1       2.829   8.223  16.949  0.00  0.00    +0.000 OA
ATOM     15  C   UNL     1       2.746   7.673  18.049  0.00  0.00    +0.000 C 
ATOM     16  N   UNL     1       1.988   8.201  19.080  0.00  0.00    +0.000 N 
ATOM     17  H   UNL     1       1.609   7.523  19.742  0.00  0.00    +0.000 HD
BRANCH  16  18
ATOM     18  C   UNL     1       1.255   9.430  18.857  0.00  0.00    +0.000 C 
BRANCH  18  19
ATOM     19  C   UNL     1       0.245   9.805  19.969  0.00  0.00    +0.000 C 
BRANCH  19  20
ATOM     20  N   UNL     1       0.898  10.452  21.126  0.00  0.00    +0.000 NA
ATOM     21  C   UNL     1       0.949   9.599  22.337  0.00  0.00    +0.000 C 
ATOM     22  C   UNL     1      -0.413   9.427  23.021  0.00  0.00    +0.000 C 
ATOM     23  O   UNL     1      -0.929  10.698  23.430  0.00  0.00    +0.000 OA
ATOM     24  C   UNL     1      -1.058  11.585  22.313  0.00  0.00    +0.000 C 
ATOM     25  C   UNL     1       0.256  11.727  21.513  0.00  0.00    +0.000 C 
ENDBRANCH  19  20
ENDBRANCH  18  19
ENDBRANCH  16  18
ENDBRANCH   1  15
TORSDOF 6
ENDMDL
MODEL 2
REMARK VINA RESULT:      -7.4      2.170      4.299
REMARK  Name = 
REMARK  6 active torsions:
REMARK  status: ('A' for Active; 'I' for Inactive)
REMARK    1  A    between atoms: C_2  and  C_12
REMARK    2  A    between atoms: N_3  and  C_4
REMARK    3  A    between atoms: C_4  and  C_5
REMARK    4  A    between atoms: C_5  and  N_6
REMARK    5  A    between atoms: C_12  and  C_13
REMARK    6  A    between atoms: C_12  and  C_19
REMARK                            x       y       z     vdW  Elec       q    Type
REMARK                         _______ _______ _______ _____ _____    ______ ____
ROOT
ATOM      1  C   UNL     1       2.935   5.322  18.602  0.00  0.00    +0.000 C 
ENDROOT
BRANCH   1   2
ATOM      2  C   UNL     1       4.325   5.148  17.990  0.00  0.00    +0.000 A 
ATOM      3  C   UNL     1       4.541   4.551  16.740  0.00  0.00    +0.000 A 
ATOM      4  C   UNL     1       5.847   4.363  16.247  0.00  0.00    +0.000 A 
ATOM      5  C   UNL     1       6.952   4.768  16.995  0.00  0.00    +0.000 A 
ATOM      6  C   UNL     1       6.751   5.373  18.237  0.00  0.00    +0.000 A 
ATOM      7  C   UNL     1       5.451   5.552  18.730  0.00  0.00    +0.000 A 
ENDBRANCH   1   2
BRANCH   1   8
ATOM      8  C   UNL     1       2.611   4.497  19.895  0.00  0.00    +0.000 C 
ATOM      9  C   UNL     1       1.105   4.115  19.955  0.00  0.00    +0.000 C 
ATOM     10  C   UNL     1       0.717   3.012  18.963  0.00  0.00    +0.000 C 
ATOM     11  C   UNL     1       1.616   1.784  19.074  0.00  0.00    +0.000 C 
ATOM     12  C   UNL     1       3.096   2.147  19.047  0.00  0.00    +0.000 C 
ATOM     13  C   UNL     1       3.422   3.203  20.099  0.00  0.00    +0.000 C 
ENDBRANCH   1   8
BRANCH   1  15
ATOM     14  O   UNL     1       2.394   7.194  20.060  0.00  0.00    +0.000 OA
ATOM     15  C   UNL     1       2.647   6.806  18.917  0.00  0.00    +0.000 C 
ATOM     16  N   UNL     1       2.617   7.660  17.827  0.00  0.00    +0.000 N 
ATOM     17  H   UNL     1       3.240   7.415  17.057  0.00  0.00    +0.000 HD
BRANCH  16  18
ATOM     18  C   UNL     1       2.295   9.056  18.036  0.00  0.00    +0.000 C 
BRANCH  18  19
ATOM     19  C   UNL     1       0.794   9.414  17.899  0.00  0.00    +0.000 C 
BRANCH  19  20
ATOM     20  N   UNL     1       0.255  10.047  19.120  0.00  0.00    +0.000 NA
ATOM     21  C   UNL     1      -1.172  10.435  19.011  0.00  0.00    +0.000 C 
ATOM     22  C   UNL     1      -1.407  11.651  18.106  0.00  0.00    +0.000 C 
ATOM     23  O   UNL     1      -0.704  12.791  18.610  0.00  0.00    +0.000 OA
ATOM     24  C   UNL     1       0.700  12.527  18.711  0.00  0.00    +0.000 C 
ATOM     25  C   UNL     1       1.009  11.252  19.527  0.00  0.00    +0.000 C 
ENDBRANCH  19  20
ENDBRANCH  18  19
ENDBRANCH  16  18
ENDBRANCH   1  15
TORSDOF 6
ENDMDL
MODEL 3
REMARK VINA RESULT:      -7.4      1.887      2.508
REMARK  Name = 
REMARK  6 active torsions:
REMARK  status: ('A' for Active; 'I' for Inactive)
REMARK    1  A    between atoms: C_2  and  C_12
REMARK    2  A    between atoms: N_3  and  C_4
REMARK    3  A    between atoms: C_4  and  C_5
REMARK    4  A    between atoms: C_5  and  N_6
REMARK    5  A    between atoms: C_12  and  C_13
REMARK    6  A    between atoms: C_12  and  C_19
REMARK                            x       y       z     vdW  Elec       q    Type
REMARK                         _______ _______ _______ _____ _____    ______ ____
ROOT
ATOM      1  C   UNL     1       4.189   5.956  18.374  0.00  0.00    +0.000 C 
ENDROOT
BRANCH   1   2
ATOM      2  C   UNL     1       3.744   4.493  18.395  0.00  0.00    +0.000 A 
ATOM      3  C   UNL     1       2.659   4.014  17.648  0.00  0.00    +0.000 A 
ATOM      4  C   UNL     1       2.254   2.668  17.747  0.00  0.00    +0.000 A 
ATOM      5  C   UNL     1       2.928   1.786  18.592  0.00  0.00    +0.000 A 
ATOM      6  C   UNL     1       4.016   2.248  19.333  0.00  0.00    +0.000 A 
ATOM      7  C   UNL     1       4.413   3.589  19.241  0.00  0.00    +0.000 A 
ENDBRANCH   1   2
BRANCH   1   8
ATOM      8  C   UNL     1       4.930   6.463  17.089  0.00  0.00    +0.000 C 
ATOM      9  C   UNL     1       6.354   6.983  17.430  0.00  0.00    +0.000 C 
ATOM     10  C   UNL     1       7.350   5.862  17.754  0.00  0.00    +0.000 C 
ATOM     11  C   UNL     1       7.385   4.783  16.675  0.00  0.00    +0.000 C 
ATOM     12  C   UNL     1       5.991   4.285  16.309  0.00  0.00    +0.000 C 
ATOM     13  C   UNL     1       5.073   5.447  15.940  0.00  0.00    +0.000 C 
ENDBRANCH   1   8
BRANCH   1  15
ATOM     14  O   UNL     1       2.244   6.767  19.591  0.00  0.00    +0.000 OA
ATOM     15  C   UNL     1       2.996   6.905  18.624  0.00  0.00    +0.000 C 
ATOM     16  N   UNL     1       2.780   7.871  17.656  0.00  0.00    +0.000 N 
ATOM     17  H   UNL     1       3.616   8.218  17.184  0.00  0.00    +0.000 HD
BRANCH  16  18
ATOM     18  C   UNL     1       1.646   8.760  17.790  0.00  0.00    +0.000 C 
BRANCH  18  19
ATOM     19  C   UNL     1       1.996  10.224  18.159  0.00  0.00    +0.000 C 
BRANCH  19  20
ATOM     20  N   UNL     1       0.810  10.996  18.581  0.00  0.00    +0.000 NA
ATOM     21  C   UNL     1       1.104  12.411  18.910  0.00  0.00    +0.000 C 
ATOM     22  C   UNL     1       1.864  12.586  20.231  0.00  0.00    +0.000 C 
ATOM     23  O   UNL     1       1.100  12.057  21.319  0.00  0.00    +0.000 OA
ATOM     24  C   UNL     1       0.801  10.671  21.113  0.00  0.00    +0.000 C 
ATOM     25  C   UNL     1       0.123  10.406  19.750  0.00  0.00    +0.000 C 
ENDBRANCH  19  20
ENDBRANCH  18  19
ENDBRANCH  16  18
ENDBRANCH   1  15
TORSDOF 6
ENDMDL
MODEL 4
REMARK VINA RESULT:      -7.4      0.879      1.623
REMARK  Name = 
REMARK  6 active torsions:
REMARK  status: ('A' for Active; 'I' for Inactive)
REMARK    1  A    between atoms: C_2  and  C_12
REMARK    2  A    between atoms: N_3  and  C_4
REMARK    3  A    between atoms: C_4  and  C_5
REMARK    4  A    between atoms: C_5  and  N_6
REMARK    5  A    between atoms: C_12  and  C_13
REMARK    6  A    between atoms: C_12  and  C_19
REMARK                            x       y       z     vdW  Elec       q    Type
REMARK                         _______ _______ _______ _____ _____    ______ ____
ROOT
ATOM      1  C   UNL     1       3.970   6.601  18.100  0.00  0.00    +0.000 C 
ENDROOT
BRANCH   1   2
ATOM      2  C   UNL     1       3.244   5.303  18.453  0.00  0.00    +0.000 A 
ATOM      3  C   UNL     1       2.133   4.831  17.741  0.00  0.00    +0.000 A 
ATOM      4  C   UNL     1       1.464   3.658  18.144  0.00  0.00    +0.000 A 
ATOM      5  C   UNL     1       1.898   2.942  19.259  0.00  0.00    +0.000 A 
ATOM      6  C   UNL     1       3.010   3.395  19.970  0.00  0.00    +0.000 A 
ATOM      7  C   UNL     1       3.669   4.567  19.575  0.00  0.00    +0.000 A 
ENDBRANCH   1   2
BRANCH   1   8
ATOM      8  C   UNL     1       4.943   6.569  16.871  0.00  0.00    +0.000 C 
ATOM      9  C   UNL     1       6.357   7.084  17.259  0.00  0.00    +0.000 C 
ATOM     10  C   UNL     1       7.152   6.092  18.116  0.00  0.00    +0.000 C 
ATOM     11  C   UNL     1       7.210   4.700  17.495  0.00  0.00    +0.000 C 
ATOM     12  C   UNL     1       5.833   4.193  17.081  0.00  0.00    +0.000 C 
ATOM     13  C   UNL     1       5.124   5.202  16.182  0.00  0.00    +0.000 C 
ENDBRANCH   1   8
BRANCH   1  15
ATOM     14  O   UNL     1       2.901   8.351  16.789  0.00  0.00    +0.000 OA
ATOM     15  C   UNL     1       2.969   7.753  17.865  0.00  0.00    +0.000 C 
ATOM     16  N   UNL     1       2.205   8.122  18.960  0.00  0.00    +0.000 N 
ATOM     17  H   UNL     1       1.972   7.370  19.610  0.00  0.00    +0.000 HD
BRANCH  16  18
ATOM     18  C   UNL     1       1.285   9.232  18.834  0.00  0.00    +0.000 C 
BRANCH  18  19
ATOM     19  C   UNL     1       1.030  10.027  20.139  0.00  0.00    +0.000 C 
BRANCH  19  20
ATOM     20  N   UNL     1      -0.331   9.810  20.672  0.00  0.00    +0.000 NA
ATOM     21  C   UNL     1      -1.042  11.062  21.024  0.00  0.00    +0.000 C 
ATOM     22  C   UNL     1      -0.500  11.738  22.290  0.00  0.00    +0.000 C 
ATOM     23  O   UNL     1      -0.624  10.861  23.414  0.00  0.00    +0.000 OA
ATOM     24  C   UNL     1       0.074   9.630  23.186  0.00  0.00    +0.000 C 
ATOM     25  C   UNL     1      -0.350   8.942  21.870  0.00  0.00    +0.000 C 
ENDBRANCH  19  20
ENDBRANCH  18  19
ENDBRANCH  16  18
ENDBRANCH   1  15
TORSDOF 6
ENDMDL
MODEL 5
REMARK VINA RESULT:      -7.3      2.270      2.654
REMARK  Name = 
REMARK  6 active torsions:
REMARK  status: ('A' for Active; 'I' for Inactive)
REMARK    1  A    between atoms: C_2  and  C_12
REMARK    2  A    between atoms: N_3  and  C_4
REMARK    3  A    between atoms: C_4  and  C_5
REMARK    4  A    between atoms: C_5  and  N_6
REMARK    5  A    between atoms: C_12  and  C_13
REMARK    6  A    between atoms: C_12  and  C_19
REMARK                            x       y       z     vdW  Elec       q    Type
REMARK                         _______ _______ _______ _____ _____    ______ ____
ROOT
ATOM      1  C   UNL     1       4.167   5.985  18.334  0.00  0.00    +0.000 C 
ENDROOT
BRANCH   1   2
ATOM      2  C   UNL     1       3.713   4.526  18.386  0.00  0.00    +0.000 A 
ATOM      3  C   UNL     1       2.611   4.043  17.667  0.00  0.00    +0.000 A 
ATOM      4  C   UNL     1       2.199   2.701  17.796  0.00  0.00    +0.000 A 
ATOM      5  C   UNL     1       2.883   1.828  18.641  0.00  0.00    +0.000 A 
ATOM      6  C   UNL     1       3.988   2.294  19.354  0.00  0.00    +0.000 A 
ATOM      7  C   UNL     1       4.392   3.631  19.233  0.00  0.00    +0.000 A 
ENDBRANCH   1   2
BRANCH   1   8
ATOM      8  C   UNL     1       4.882   6.468  17.025  0.00  0.00    +0.000 C 
ATOM      9  C   UNL     1       6.289   7.052  17.336  0.00  0.00    +0.000 C 
ATOM     10  C   UNL     1       7.325   5.981  17.697  0.00  0.00    +0.000 C 
ATOM     11  C   UNL     1       7.395   4.863  16.661  0.00  0.00    +0.000 C 
ATOM     12  C   UNL     1       6.018   4.301  16.323  0.00  0.00    +0.000 C 
ATOM     13  C   UNL     1       5.056   5.414  15.915  0.00  0.00    +0.000 C 
ENDBRANCH   1   8
BRANCH   1  15
ATOM     14  O   UNL     1       2.284   6.857  19.605  0.00  0.00    +0.000 OA
ATOM     15  C   UNL     1       2.986   6.946  18.595  0.00  0.00    +0.000 C 
ATOM     16  N   UNL     1       2.720   7.863  17.592  0.00  0.00    +0.000 N 
ATOM     17  H   UNL     1       3.530   8.185  17.062  0.00  0.00    +0.000 HD
BRANCH  16  18
ATOM     18  C   UNL     1       1.592   8.758  17.739  0.00  0.00    +0.000 C 
BRANCH  18  19
ATOM     19  C   UNL     1       1.953  10.216  18.117  0.00  0.00    +0.000 C 
BRANCH  19  20
ATOM     20  N   UNL     1       1.216  10.687  19.307  0.00  0.00    +0.000 NA
ATOM     21  C   UNL     1      -0.224  10.335  19.296  0.00  0.00    +0.000 C 
ATOM     22  C   UNL     1      -1.045  11.151  18.290  0.00  0.00    +0.000 C 
ATOM     23  O   UNL     1      -0.962  12.547  18.594  0.00  0.00    +0.000 OA
ATOM     24  C   UNL     1       0.399  12.995  18.585  0.00  0.00    +0.000 C 
ATOM     25  C   UNL     1       1.310  12.150  19.503  0.00  0.00    +0.000 C 
ENDBRANCH  19  20
ENDBRANCH  18  19
ENDBRANCH  16  18
ENDBRANCH   1  15
TORSDOF 6
ENDMDL
MODEL 6
REMARK VINA RESULT:      -7.2      1.696      3.971
REMARK  Name = 
REMARK  6 active torsions:
REMARK  status: ('A' for Active; 'I' for Inactive)
REMARK    1  A    between atoms: C_2  and  C_12
REMARK    2  A    between atoms: N_3  and  C_4
REMARK    3  A    between atoms: C_4  and  C_5
REMARK    4  A    between atoms: C_5  and  N_6
REMARK    5  A    between atoms: C_12  and  C_13
REMARK    6  A    between atoms: C_12  and  C_19
REMARK                            x       y       z     vdW  Elec       q    Type
REMARK                         _______ _______ _______ _____ _____    ______ ____
ROOT
ATOM      1  C   UNL     1       2.599   5.413  19.061  0.00  0.00    +0.000 C 
ENDROOT
BRANCH   1   2
ATOM      2  C   UNL     1       4.012   5.237  18.503  0.00  0.00    +0.000 A 
ATOM      3  C   UNL     1       5.167   5.497  19.254  0.00  0.00    +0.000 A 
ATOM      4  C   UNL     1       6.445   5.374  18.674  0.00  0.00    +0.000 A 
ATOM      5  C   UNL     1       6.585   4.990  17.341  0.00  0.00    +0.000 A 
ATOM      6  C   UNL     1       5.443   4.718  16.586  0.00  0.00    +0.000 A 
ATOM      7  C   UNL     1       4.172   4.850  17.160  0.00  0.00    +0.000 A 
ENDBRANCH   1   2
BRANCH   1   8
ATOM      8  C   UNL     1       2.182   4.497  20.262  0.00  0.00    +0.000 C 
ATOM      9  C   UNL     1       0.759   3.908  20.052  0.00  0.00    +0.000 C 
ATOM     10  C   UNL     1       0.708   2.806  18.987  0.00  0.00    +0.000 C 
ATOM     11  C   UNL     1       1.742   1.710  19.232  0.00  0.00    +0.000 C 
ATOM     12  C   UNL     1       3.138   2.276  19.470  0.00  0.00    +0.000 C 
ATOM     13  C   UNL     1       3.124   3.321  20.581  0.00  0.00    +0.000 C 
ENDBRANCH   1   8
BRANCH   1  15
ATOM     14  O   UNL     1       2.657   7.829  18.768  0.00  0.00    +0.000 OA
ATOM     15  C   UNL     1       2.347   6.877  19.487  0.00  0.00    +0.000 C 
ATOM     16  N   UNL     1       1.820   7.054  20.755  0.00  0.00    +0.000 N 
ATOM     17  H   UNL     1       1.198   6.314  21.082  0.00  0.00    +0.000 HD
BRANCH  16  18
ATOM     18  C   UNL     1       1.610   8.399  21.248  0.00  0.00    +0.000 C 
BRANCH  18  19
ATOM     19  C   UNL     1       0.313   9.087  20.754  0.00  0.00    +0.000 C 
BRANCH  19  20
ATOM     20  N   UNL     1       0.590  10.270  19.914  0.00  0.00    +0.000 NA
ATOM     21  C   UNL     1       0.170  11.552  20.530  0.00  0.00    +0.000 C 
ATOM     22  C   UNL     1      -1.351  11.748  20.554  0.00  0.00    +0.000 C 
ATOM     23  O   UNL     1      -1.876  11.735  19.223  0.00  0.00    +0.000 OA
ATOM     24  C   UNL     1      -1.558  10.509  18.555  0.00  0.00    +0.000 C 
ATOM     25  C   UNL     1      -0.046  10.193  18.581  0.00  0.00    +0.000 C 
ENDBRANCH  19  20
ENDBRANCH  18  19
ENDBRANCH  16  18
ENDBRANCH   1  15
TORSDOF 6
ENDMDL
MODEL 7
REMARK VINA RESULT:      -7.1      1.168      1.833
REMARK  Name = 
REMARK  6 active torsions:
REMARK  status: ('A' for Active; 'I' for Inactive)
REMARK    1  A    between atoms: C_2  and  C_12
REMARK    2  A    between atoms: N_3  and  C_4
REMARK    3  A    between atoms: C_4  and  C_5
REMARK    4  A    between atoms: C_5  and  N_6
REMARK    5  A    between atoms: C_12  and  C_13
REMARK    6  A    between atoms: C_12  and  C_19
REMARK                            x       y       z     vdW  Elec       q    Type
REMARK                         _______ _______ _______ _____ _____    ______ ____
ROOT
ATOM      1  C   UNL     1       3.807   6.299  18.168  0.00  0.00    +0.000 C 
ENDROOT
BRANCH   1   2
ATOM      2  C   UNL     1       3.035   5.027  18.521  0.00  0.00    +0.000 A 
ATOM      3  C   UNL     1       1.920   4.585  17.796  0.00  0.00    +0.000 A 
ATOM      4  C   UNL     1       1.208   3.437  18.198  0.00  0.00    +0.000 A 
ATOM      5  C   UNL     1       1.602   2.718  19.326  0.00  0.00    +0.000 A 
ATOM      6  C   UNL     1       2.717   3.141  20.050  0.00  0.00    +0.000 A 
ATOM      7  C   UNL     1       3.419   4.289  19.655  0.00  0.00    +0.000 A 
ENDBRANCH   1   2
BRANCH   1   8
ATOM      8  C   UNL     1       4.663   6.279  16.855  0.00  0.00    +0.000 C 
ATOM      9  C   UNL     1       6.000   7.047  17.044  0.00  0.00    +0.000 C 
ATOM     10  C   UNL     1       7.018   6.293  17.908  0.00  0.00    +0.000 C 
ATOM     11  C   UNL     1       7.252   4.865  17.423  0.00  0.00    +0.000 C 
ATOM     12  C   UNL     1       5.946   4.108  17.204  0.00  0.00    +0.000 C 
ATOM     13  C   UNL     1       5.007   4.888  16.288  0.00  0.00    +0.000 C 
ENDBRANCH   1   8
BRANCH   1  15
ATOM     14  O   UNL     1       2.768   8.202  17.063  0.00  0.00    +0.000 OA
ATOM     15  C   UNL     1       2.863   7.519  18.085  0.00  0.00    +0.000 C 
ATOM     16  N   UNL     1       2.188   7.841  19.250  0.00  0.00    +0.000 N 
ATOM     17  H   UNL     1       1.950   7.054  19.855  0.00  0.00    +0.000 HD
BRANCH  16  18
ATOM     18  C   UNL     1       1.330   9.006  19.267  0.00  0.00    +0.000 C 
BRANCH  18  19
ATOM     19  C   UNL     1       0.985   9.550  20.676  0.00  0.00    +0.000 C 
BRANCH  19  20
ATOM     20  N   UNL     1      -0.430   9.961  20.788  0.00  0.00    +0.000 NA
ATOM     21  C   UNL     1      -0.937  10.690  19.601  0.00  0.00    +0.000 C 
ATOM     22  C   UNL     1      -0.385  12.116  19.478  0.00  0.00    +0.000 C 
ATOM     23  O   UNL     1      -0.746  12.890  20.626  0.00  0.00    +0.000 OA
ATOM     24  C   UNL     1      -0.258  12.285  21.830  0.00  0.00    +0.000 C 
ATOM     25  C   UNL     1      -0.692  10.809  21.971  0.00  0.00    +0.000 C 
ENDBRANCH  19  20
ENDBRANCH  18  19
ENDBRANCH  16  18
ENDBRANCH   1  15
TORSDOF 6
ENDMDL
MODEL 8
REMARK VINA RESULT:      -7.1      1.172      1.787
REMARK  Name = 
REMARK  6 active torsions:
REMARK  status: ('A' for Active; 'I' for Inactive)
REMARK    1  A    between atoms: C_2  and  C_12
REMARK    2  A    between atoms: N_3  and  C_4
REMARK    3  A    between atoms: C_4  and  C_5
REMARK    4  A    between atoms: C_5  and  N_6
REMARK    5  A    between atoms: C_12  and  C_13
REMARK    6  A    between atoms: C_12  and  C_19
REMARK                            x       y       z     vdW  Elec       q    Type
REMARK                         _______ _______ _______ _____ _____    ______ ____
ROOT
ATOM      1  C   UNL     1       3.648   6.415  18.308  0.00  0.00    +0.000 C 
ENDROOT
BRANCH   1   2
ATOM      2  C   UNL     1       2.791   5.243  18.787  0.00  0.00    +0.000 A 
ATOM      3  C   UNL     1       1.858   4.594  17.966  0.00  0.00    +0.000 A 
ATOM      4  C   UNL     1       1.052   3.556  18.473  0.00  0.00    +0.000 A 
ATOM      5  C   UNL     1       1.168   3.153  19.803  0.00  0.00    +0.000 A 
ATOM      6  C   UNL     1       2.101   3.784  20.628  0.00  0.00    +0.000 A 
ATOM      7  C   UNL     1       2.896   4.822  20.125  0.00  0.00    +0.000 A 
ENDBRANCH   1   2
BRANCH   1   8
ATOM      8  C   UNL     1       4.512   6.194  17.019  0.00  0.00    +0.000 C 
ATOM      9  C   UNL     1       5.867   6.950  17.114  0.00  0.00    +0.000 C 
ATOM     10  C   UNL     1       6.860   6.299  18.084  0.00  0.00    +0.000 C 
ATOM     11  C   UNL     1       7.062   4.813  17.802  0.00  0.00    +0.000 C 
ATOM     12  C   UNL     1       5.740   4.064  17.677  0.00  0.00    +0.000 C 
ATOM     13  C   UNL     1       4.827   4.731  16.653  0.00  0.00    +0.000 C 
ENDBRANCH   1   8
BRANCH   1  15
ATOM     14  O   UNL     1       2.812   8.296  17.011  0.00  0.00    +0.000 OA
ATOM     15  C   UNL     1       2.787   7.676  18.076  0.00  0.00    +0.000 C 
ATOM     16  N   UNL     1       2.045   8.109  19.162  0.00  0.00    +0.000 N 
ATOM     17  H   UNL     1       1.714   7.376  19.791  0.00  0.00    +0.000 HD
BRANCH  16  18
ATOM     18  C   UNL     1       1.258   9.318  19.039  0.00  0.00    +0.000 C 
BRANCH  18  19
ATOM     19  C   UNL     1       0.482   9.730  20.315  0.00  0.00    +0.000 C 
BRANCH  19  20
ATOM     20  N   UNL     1       0.796  11.109  20.742  0.00  0.00    +0.000 NA
ATOM     21  C   UNL     1      -0.193  11.682  21.687  0.00  0.00    +0.000 C 
ATOM     22  C   UNL     1      -1.531  12.039  21.029  0.00  0.00    +0.000 C 
ATOM     23  O   UNL     1      -1.335  13.009  19.995  0.00  0.00    +0.000 OA
ATOM     24  C   UNL     1      -0.422  12.526  19.002  0.00  0.00    +0.000 C 
ATOM     25  C   UNL     1       0.917  12.051  19.608  0.00  0.00    +0.000 C 
ENDBRANCH  19  20
ENDBRANCH  18  19
ENDBRANCH  16  18
ENDBRANCH   1  15
TORSDOF 6
ENDMDL
MODEL 9
REMARK VINA RESULT:      -7.1      1.405      3.938
REMARK  Name = 
REMARK  6 active torsions:
REMARK  status: ('A' for Active; 'I' for Inactive)
REMARK    1  A    between atoms: C_2  and  C_12
REMARK    2  A    between atoms: N_3  and  C_4
REMARK    3  A    between atoms: C_4  and  C_5
REMARK    4  A    between atoms: C_5  and  N_6
REMARK    5  A    between atoms: C_12  and  C_13
REMARK    6  A    between atoms: C_12  and  C_19
REMARK                            x       y       z     vdW  Elec       q    Type
REMARK                         _______ _______ _______ _____ _____    ______ ____
ROOT
ATOM      1  C   UNL     1       3.197   5.159  18.148  0.00  0.00    +0.000 C 
ENDROOT
BRANCH   1   2
ATOM      2  C   UNL     1       4.609   5.002  17.582  0.00  0.00    +0.000 A 
ATOM      3  C   UNL     1       4.884   4.311  16.394  0.00  0.00    +0.000 A 
ATOM      4  C   UNL     1       6.210   4.146  15.946  0.00  0.00    +0.000 A 
ATOM      5  C   UNL     1       7.275   4.670  16.678  0.00  0.00    +0.000 A 
ATOM      6  C   UNL     1       7.014   5.370  17.857  0.00  0.00    +0.000 A 
ATOM      7  C   UNL     1       5.696   5.525  18.307  0.00  0.00    +0.000 A 
ENDBRANCH   1   2
BRANCH   1   8
ATOM      8  C   UNL     1       2.868   4.397  19.477  0.00  0.00    +0.000 C 
ATOM      9  C   UNL     1       1.365   4.006  19.543  0.00  0.00    +0.000 C 
ATOM     10  C   UNL     1       0.995   2.851  18.603  0.00  0.00    +0.000 C 
ATOM     11  C   UNL     1       1.903   1.638  18.784  0.00  0.00    +0.000 C 
ATOM     12  C   UNL     1       3.381   2.012  18.752  0.00  0.00    +0.000 C 
ATOM     13  C   UNL     1       3.688   3.122  19.753  0.00  0.00    +0.000 C 
ENDBRANCH   1   8
BRANCH   1  15
ATOM     14  O   UNL     1       3.101   7.510  17.526  0.00  0.00    +0.000 OA
ATOM     15  C   UNL     1       2.848   6.647  18.370  0.00  0.00    +0.000 C 
ATOM     16  N   UNL     1       2.302   6.961  19.603  0.00  0.00    +0.000 N 
ATOM     17  H   UNL     1       1.726   6.234  20.029  0.00  0.00    +0.000 HD
BRANCH  16  18
ATOM     18  C   UNL     1       2.002   8.344  19.908  0.00  0.00    +0.000 C 
BRANCH  18  19
ATOM     19  C   UNL     1       1.358   8.588  21.295  0.00  0.00    +0.000 C 
BRANCH  19  20
ATOM     20  N   UNL     1      -0.105   8.781  21.209  0.00  0.00    +0.000 NA
ATOM     21  C   UNL     1      -0.510   9.874  20.293  0.00  0.00    +0.000 C 
ATOM     22  C   UNL     1      -0.215  11.274  20.844  0.00  0.00    +0.000 C 
ATOM     23  O   UNL     1      -0.915  11.483  22.075  0.00  0.00    +0.000 OA
ATOM     24  C   UNL     1      -0.554  10.494  23.047  0.00  0.00    +0.000 C 
ATOM     25  C   UNL     1      -0.729   9.052  22.522  0.00  0.00    +0.000 C 
ENDBRANCH  19  20
ENDBRANCH  18  19
ENDBRANCH  16  18
ENDBRANCH   1  15
TORSDOF 6
ENDMDL
