MODEL 1
REMARK VINA RESULT:      -8.7      0.000      0.000
REMARK  Name = 
REMARK  3 active torsions:
REMARK  status: ('A' for Active; 'I' for Inactive)
REMARK    1  A    between atoms: N_5  and  C_6
REMARK    2  A    between atoms: N_15  and  C_16
REMARK    3  A    between atoms: C_16  and  C_17
REMARK                            x       y       z     vdW  Elec       q    Type
REMARK                         _______ _______ _______ _____ _____    ______ ____
ROOT
ATOM      1  O   UNL     1       5.065   2.030  20.094  0.00  0.00    +0.000 OA
ATOM      2  C   UNL     1       4.093   2.765  20.014  0.00  0.00    +0.000 C 
ATOM      3  O   UNL     1       3.006   2.648  20.823  0.00  0.00    +0.000 OA
ATOM      4  C   UNL     1       2.061   3.658  20.502  0.00  0.00    +0.000 C 
ATOM      5  N   UNL     1       2.608   4.508  19.456  0.00  0.00    +0.000 N 
ATOM      6  C   UNL     1       3.889   3.902  18.992  0.00  0.00    +0.000 C 
ATOM      7  C   UNL     1       5.133   4.789  19.059  0.00  0.00    +0.000 C 
ATOM      8  C   UNL     1       5.308   5.670  17.830  0.00  0.00    +0.000 C 
ATOM      9  N   UNL     1       5.193   4.983  16.536  0.00  0.00    +0.000 NA
ATOM     10  C   UNL     1       4.024   4.104  16.433  0.00  0.00    +0.000 C 
ATOM     11  C   UNL     1       3.764   3.205  17.636  0.00  0.00    +0.000 C 
ENDROOT
BRANCH   5  12
ATOM     12  C   UNL     1       2.295   5.855  19.414  0.00  0.00    +0.000 A 
ATOM     13  C   UNL     1       1.971   6.617  20.546  0.00  0.00    +0.000 A 
ATOM     14  C   UNL     1       1.715   7.999  20.466  0.00  0.00    +0.000 A 
ATOM     15  C   UNL     1       1.794   8.663  19.249  0.00  0.00    +0.000 A 
ATOM     16  C   UNL     1       2.072   7.933  18.107  0.00  0.00    +0.000 A 
ATOM     17  C   UNL     1       2.269   6.550  18.199  0.00  0.00    +0.000 A 
ENDBRANCH   5  12
BRANCH   9  18
ATOM     18  C   UNL     1       6.412   4.283  16.123  0.00  0.00    +0.000 C 
BRANCH  18  19
ATOM     19  C   UNL     1       6.675   4.328  14.635  0.00  0.00    +0.000 A 
ATOM     20  C   UNL     1       7.608   5.239  14.123  0.00  0.00    +0.000 A 
ATOM     21  C   UNL     1       7.877   5.280  12.756  0.00  0.00    +0.000 A 
ATOM     22  C   UNL     1       7.215   4.412  11.889  0.00  0.00    +0.000 A 
ATOM     23  C   UNL     1       6.273   3.512  12.384  0.00  0.00    +0.000 A 
ATOM     24  C   UNL     1       6.001   3.470  13.752  0.00  0.00    +0.000 A 
ENDBRANCH  18  19
ENDBRANCH   9  18
TORSDOF 3
ENDMDL
MODEL 2
REMARK VINA RESULT:      -8.6      0.185      1.395
REMARK  Name = 
REMARK  3 active torsions:
REMARK  status: ('A' for Active; 'I' for Inactive)
REMARK    1  A    between atoms: N_5  and  C_6
REMARK    2  A    between atoms: N_15  and  C_16
REMARK    3  A    between atoms: C_16  and  C_17
REMARK                            x       y       z     vdW  Elec       q    Type
REMARK                         _______ _______ _______ _____ _____    ______ ____
ROOT
ATOM      1  O   UNL     1       4.892   2.098  20.225  0.00  0.00    +0.000 OA
ATOM      2  C   UNL     1       3.957   2.878  20.131  0.00  0.00    +0.000 C 
ATOM      3  O   UNL     1       2.890   2.860  20.974  0.00  0.00    +0.000 OA
ATOM      4  C   UNL     1       1.988   3.901  20.624  0.00  0.00    +0.000 C 
ATOM      5  N   UNL     1       2.547   4.665  19.520  0.00  0.00    +0.000 N 
ATOM      6  C   UNL     1       3.782   3.969  19.055  0.00  0.00    +0.000 C 
ATOM      7  C   UNL     1       5.070   4.791  19.042  0.00  0.00    +0.000 C 
ATOM      8  C   UNL     1       5.255   5.597  17.763  0.00  0.00    +0.000 C 
ATOM      9  N   UNL     1       5.067   4.850  16.511  0.00  0.00    +0.000 NA
ATOM     10  C   UNL     1       3.852   4.029  16.487  0.00  0.00    +0.000 C 
ATOM     11  C   UNL     1       3.581   3.209  17.743  0.00  0.00    +0.000 C 
ENDROOT
BRANCH   5  12
ATOM     12  C   UNL     1       2.302   6.022  19.414  0.00  0.00    +0.000 A 
ATOM     13  C   UNL     1       2.365   6.735  18.208  0.00  0.00    +0.000 A 
ATOM     14  C   UNL     1       2.052   8.106  18.134  0.00  0.00    +0.000 A 
ATOM     15  C   UNL     1       1.649   8.800  19.267  0.00  0.00    +0.000 A 
ATOM     16  C   UNL     1       1.615   8.136  20.480  0.00  0.00    +0.000 A 
ATOM     17  C   UNL     1       1.983   6.786  20.542  0.00  0.00    +0.000 A 
ENDBRANCH   5  12
BRANCH   9  18
ATOM     18  C   UNL     1       6.236   4.066  16.105  0.00  0.00    +0.000 C 
BRANCH  18  19
ATOM     19  C   UNL     1       6.615   4.232  14.650  0.00  0.00    +0.000 A 
ATOM     20  C   UNL     1       6.014   3.421  13.680  0.00  0.00    +0.000 A 
ATOM     21  C   UNL     1       6.337   3.575  12.333  0.00  0.00    +0.000 A 
ATOM     22  C   UNL     1       7.264   4.542  11.945  0.00  0.00    +0.000 A 
ATOM     23  C   UNL     1       7.880   5.345  12.903  0.00  0.00    +0.000 A 
ATOM     24  C   UNL     1       7.560   5.191  14.251  0.00  0.00    +0.000 A 
ENDBRANCH  18  19
ENDBRANCH   9  18
TORSDOF 3
ENDMDL
MODEL 3
REMARK VINA RESULT:      -7.9      0.941      1.370
REMARK  Name = 
REMARK  3 active torsions:
REMARK  status: ('A' for Active; 'I' for Inactive)
REMARK    1  A    between atoms: N_5  and  C_6
REMARK    2  A    between atoms: N_15  and  C_16
REMARK    3  A    between atoms: C_16  and  C_17
REMARK                            x       y       z     vdW  Elec       q    Type
REMARK                         _______ _______ _______ _____ _____    ______ ____
ROOT
ATOM      1  O   UNL     1       4.004   1.057  18.585  0.00  0.00    +0.000 OA
ATOM      2  C   UNL     1       3.206   1.976  18.680  0.00  0.00    +0.000 C 
ATOM      3  O   UNL     1       1.954   1.821  19.185  0.00  0.00    +0.000 OA
ATOM      4  C   UNL     1       1.281   3.073  19.186  0.00  0.00    +0.000 C 
ATOM      5  N   UNL     1       2.188   4.101  18.700  0.00  0.00    +0.000 N 
ATOM      6  C   UNL     1       3.432   3.432  18.223  0.00  0.00    +0.000 C 
ATOM      7  C   UNL     1       4.746   3.897  18.851  0.00  0.00    +0.000 C 
ATOM      8  C   UNL     1       5.345   5.113  18.159  0.00  0.00    +0.000 C 
ATOM      9  N   UNL     1       5.436   5.028  16.694  0.00  0.00    +0.000 NA
ATOM     10  C   UNL     1       4.203   4.566  16.049  0.00  0.00    +0.000 C 
ATOM     11  C   UNL     1       3.526   3.364  16.698  0.00  0.00    +0.000 C 
ENDROOT
BRANCH   5  12
ATOM     12  C   UNL     1       2.108   5.392  19.191  0.00  0.00    +0.000 A 
ATOM     13  C   UNL     1       2.338   6.538  18.415  0.00  0.00    +0.000 A 
ATOM     14  C   UNL     1       2.189   7.836  18.939  0.00  0.00    +0.000 A 
ATOM     15  C   UNL     1       1.788   8.025  20.255  0.00  0.00    +0.000 A 
ATOM     16  C   UNL     1       1.592   6.916  21.059  0.00  0.00    +0.000 A 
ATOM     17  C   UNL     1       1.798   5.634  20.534  0.00  0.00    +0.000 A 
ENDBRANCH   5  12
BRANCH   9  18
ATOM     18  C   UNL     1       6.593   4.270  16.213  0.00  0.00    +0.000 C 
BRANCH  18  19
ATOM     19  C   UNL     1       6.790   4.329  14.715  0.00  0.00    +0.000 A 
ATOM     20  C   UNL     1       7.665   5.275  14.167  0.00  0.00    +0.000 A 
ATOM     21  C   UNL     1       7.872   5.330  12.789  0.00  0.00    +0.000 A 
ATOM     22  C   UNL     1       7.206   4.440  11.949  0.00  0.00    +0.000 A 
ATOM     23  C   UNL     1       6.320   3.505  12.480  0.00  0.00    +0.000 A 
ATOM     24  C   UNL     1       6.109   3.449  13.858  0.00  0.00    +0.000 A 
ENDBRANCH  18  19
ENDBRANCH   9  18
TORSDOF 3
ENDMDL
MODEL 4
REMARK VINA RESULT:      -7.8      2.352      7.065
REMARK  Name = 
REMARK  3 active torsions:
REMARK  status: ('A' for Active; 'I' for Inactive)
REMARK    1  A    between atoms: N_5  and  C_6
REMARK    2  A    between atoms: N_15  and  C_16
REMARK    3  A    between atoms: C_16  and  C_17
REMARK                            x       y       z     vdW  Elec       q    Type
REMARK                         _______ _______ _______ _____ _____    ______ ____
ROOT
ATOM      1  O   UNL     1       0.318   2.544  18.554  0.00  0.00    +0.000 OA
ATOM      2  C   UNL     1       1.538   2.575  18.598  0.00  0.00    +0.000 C 
ATOM      3  O   UNL     1       2.319   1.510  18.272  0.00  0.00    +0.000 OA
ATOM      4  C   UNL     1       3.688   1.866  18.400  0.00  0.00    +0.000 C 
ATOM      5  N   UNL     1       3.784   3.267  18.779  0.00  0.00    +0.000 N 
ATOM      6  C   UNL     1       2.406   3.765  19.057  0.00  0.00    +0.000 C 
ATOM      7  C   UNL     1       1.943   4.985  18.261  0.00  0.00    +0.000 C 
ATOM      8  C   UNL     1       2.359   6.307  18.892  0.00  0.00    +0.000 C 
ATOM      9  N   UNL     1       2.066   6.443  20.326  0.00  0.00    +0.000 NA
ATOM     10  C   UNL     1       2.474   5.285  21.128  0.00  0.00    +0.000 C 
ATOM     11  C   UNL     1       2.116   3.921  20.551  0.00  0.00    +0.000 C 
ENDROOT
BRANCH   5  12
ATOM     12  C   UNL     1       4.844   4.040  18.339  0.00  0.00    +0.000 A 
ATOM     13  C   UNL     1       5.639   4.828  19.184  0.00  0.00    +0.000 A 
ATOM     14  C   UNL     1       6.744   5.555  18.703  0.00  0.00    +0.000 A 
ATOM     15  C   UNL     1       7.097   5.499  17.362  0.00  0.00    +0.000 A 
ATOM     16  C   UNL     1       6.310   4.763  16.495  0.00  0.00    +0.000 A 
ATOM     17  C   UNL     1       5.183   4.091  16.982  0.00  0.00    +0.000 A 
ENDBRANCH   5  12
BRANCH   9  18
ATOM     18  C   UNL     1       0.680   6.818  20.618  0.00  0.00    +0.000 C 
BRANCH  18  19
ATOM     19  C   UNL     1       0.504   8.266  21.017  0.00  0.00    +0.000 A 
ATOM     20  C   UNL     1       0.965   9.281  20.170  0.00  0.00    +0.000 A 
ATOM     21  C   UNL     1       0.793  10.620  20.514  0.00  0.00    +0.000 A 
ATOM     22  C   UNL     1       0.159  10.957  21.708  0.00  0.00    +0.000 A 
ATOM     23  C   UNL     1      -0.291   9.956  22.568  0.00  0.00    +0.000 A 
ATOM     24  C   UNL     1      -0.118   8.615  22.227  0.00  0.00    +0.000 A 
ENDBRANCH  18  19
ENDBRANCH   9  18
TORSDOF 3
ENDMDL
MODEL 5
REMARK VINA RESULT:      -7.7      0.911      1.373
REMARK  Name = 
REMARK  3 active torsions:
REMARK  status: ('A' for Active; 'I' for Inactive)
REMARK    1  A    between atoms: N_5  and  C_6
REMARK    2  A    between atoms: N_15  and  C_16
REMARK    3  A    between atoms: C_16  and  C_17
REMARK                            x       y       z     vdW  Elec       q    Type
REMARK                         _______ _______ _______ _____ _____    ______ ____
ROOT
ATOM      1  O   UNL     1       4.159   1.091  18.689  0.00  0.00    +0.000 OA
ATOM      2  C   UNL     1       3.320   1.976  18.759  0.00  0.00    +0.000 C 
ATOM      3  O   UNL     1       2.069   1.775  19.253  0.00  0.00    +0.000 OA
ATOM      4  C   UNL     1       1.343   2.995  19.224  0.00  0.00    +0.000 C 
ATOM      5  N   UNL     1       2.209   4.053  18.729  0.00  0.00    +0.000 N 
ATOM      6  C   UNL     1       3.487   3.432  18.277  0.00  0.00    +0.000 C 
ATOM      7  C   UNL     1       4.772   3.965  18.911  0.00  0.00    +0.000 C 
ATOM      8  C   UNL     1       5.325   5.194  18.203  0.00  0.00    +0.000 C 
ATOM      9  N   UNL     1       5.436   5.087  16.741  0.00  0.00    +0.000 NA
ATOM     10  C   UNL     1       4.232   4.559  16.091  0.00  0.00    +0.000 C 
ATOM     11  C   UNL     1       3.602   3.340  16.755  0.00  0.00    +0.000 C 
ENDROOT
BRANCH   5  12
ATOM     12  C   UNL     1       2.066   5.349  19.194  0.00  0.00    +0.000 A 
ATOM     13  C   UNL     1       1.751   5.672  20.522  0.00  0.00    +0.000 A 
ATOM     14  C   UNL     1       1.673   7.005  20.967  0.00  0.00    +0.000 A 
ATOM     15  C   UNL     1       1.925   8.057  20.096  0.00  0.00    +0.000 A 
ATOM     16  C   UNL     1       2.199   7.774  18.770  0.00  0.00    +0.000 A 
ATOM     17  C   UNL     1       2.219   6.443  18.334  0.00  0.00    +0.000 A 
ENDBRANCH   5  12
BRANCH   9  18
ATOM     18  C   UNL     1       6.632   4.372  16.287  0.00  0.00    +0.000 C 
BRANCH  18  19
ATOM     19  C   UNL     1       6.833   4.399  14.788  0.00  0.00    +0.000 A 
ATOM     20  C   UNL     1       6.127   3.503  13.976  0.00  0.00    +0.000 A 
ATOM     21  C   UNL     1       6.286   3.528  12.592  0.00  0.00    +0.000 A 
ATOM     22  C   UNL     1       7.155   4.449  12.008  0.00  0.00    +0.000 A 
ATOM     23  C   UNL     1       7.876   5.335  12.806  0.00  0.00    +0.000 A 
ATOM     24  C   UNL     1       7.719   5.310  14.192  0.00  0.00    +0.000 A 
ENDBRANCH  18  19
ENDBRANCH   9  18
TORSDOF 3
ENDMDL
MODEL 6
REMARK VINA RESULT:      -7.7      2.435      7.077
REMARK  Name = 
REMARK  3 active torsions:
REMARK  status: ('A' for Active; 'I' for Inactive)
REMARK    1  A    between atoms: N_5  and  C_6
REMARK    2  A    between atoms: N_15  and  C_16
REMARK    3  A    between atoms: C_16  and  C_17
REMARK                            x       y       z     vdW  Elec       q    Type
REMARK                         _______ _______ _______ _____ _____    ______ ____
ROOT
ATOM      1  O   UNL     1       0.494   3.059  17.992  0.00  0.00    +0.000 OA
ATOM      2  C   UNL     1       1.711   3.063  18.100  0.00  0.00    +0.000 C 
ATOM      3  O   UNL     1       2.497   2.040  17.670  0.00  0.00    +0.000 OA
ATOM      4  C   UNL     1       3.861   2.353  17.913  0.00  0.00    +0.000 C 
ATOM      5  N   UNL     1       3.951   3.687  18.485  0.00  0.00    +0.000 N 
ATOM      6  C   UNL     1       2.565   4.166  18.759  0.00  0.00    +0.000 C 
ATOM      7  C   UNL     1       2.156   5.490  18.116  0.00  0.00    +0.000 C 
ATOM      8  C   UNL     1       2.551   6.706  18.943  0.00  0.00    +0.000 C 
ATOM      9  N   UNL     1       2.186   6.651  20.365  0.00  0.00    +0.000 NA
ATOM     10  C   UNL     1       2.542   5.388  21.020  0.00  0.00    +0.000 C 
ATOM     11  C   UNL     1       2.201   4.121  20.245  0.00  0.00    +0.000 C 
ENDROOT
BRANCH   5  12
ATOM     12  C   UNL     1       5.039   4.495  18.208  0.00  0.00    +0.000 A 
ATOM     13  C   UNL     1       5.860   5.063  19.193  0.00  0.00    +0.000 A 
ATOM     14  C   UNL     1       6.993   5.833  18.867  0.00  0.00    +0.000 A 
ATOM     15  C   UNL     1       7.347   6.042  17.540  0.00  0.00    +0.000 A 
ATOM     16  C   UNL     1       6.536   5.528  16.544  0.00  0.00    +0.000 A 
ATOM     17  C   UNL     1       5.383   4.812  16.889  0.00  0.00    +0.000 A 
ENDBRANCH   5  12
BRANCH   9  18
ATOM     18  C   UNL     1       0.791   7.005  20.636  0.00  0.00    +0.000 C 
BRANCH  18  19
ATOM     19  C   UNL     1       0.576   8.470  20.945  0.00  0.00    +0.000 A 
ATOM     20  C   UNL     1       0.059   8.848  22.191  0.00  0.00    +0.000 A 
ATOM     21  C   UNL     1      -0.127  10.194  22.499  0.00  0.00    +0.000 A 
ATOM     22  C   UNL     1       0.203  11.174  21.564  0.00  0.00    +0.000 A 
ATOM     23  C   UNL     1       0.703  10.811  20.315  0.00  0.00    +0.000 A 
ATOM     24  C   UNL     1       0.888   9.464  20.004  0.00  0.00    +0.000 A 
ENDBRANCH  18  19
ENDBRANCH   9  18
TORSDOF 3
ENDMDL
MODEL 7
REMARK VINA RESULT:      -7.7      2.329      7.108
REMARK  Name = 
REMARK  3 active torsions:
REMARK  status: ('A' for Active; 'I' for Inactive)
REMARK    1  A    between atoms: N_5  and  C_6
REMARK    2  A    between atoms: N_15  and  C_16
REMARK    3  A    between atoms: C_16  and  C_17
REMARK                            x       y       z     vdW  Elec       q    Type
REMARK                         _______ _______ _______ _____ _____    ______ ____
ROOT
ATOM      1  O   UNL     1       0.291   2.526  18.757  0.00  0.00    +0.000 OA
ATOM      2  C   UNL     1       1.512   2.571  18.734  0.00  0.00    +0.000 C 
ATOM      3  O   UNL     1       2.286   1.504  18.400  0.00  0.00    +0.000 OA
ATOM      4  C   UNL     1       3.656   1.878  18.443  0.00  0.00    +0.000 C 
ATOM      5  N   UNL     1       3.755   3.291  18.772  0.00  0.00    +0.000 N 
ATOM      6  C   UNL     1       2.388   3.784  19.108  0.00  0.00    +0.000 C 
ATOM      7  C   UNL     1       1.869   4.973  18.300  0.00  0.00    +0.000 C 
ATOM      8  C   UNL     1       2.302   6.318  18.867  0.00  0.00    +0.000 C 
ATOM      9  N   UNL     1       2.084   6.497  20.309  0.00  0.00    +0.000 NA
ATOM     10  C   UNL     1       2.548   5.370  21.124  0.00  0.00    +0.000 C 
ATOM     11  C   UNL     1       2.177   3.984  20.610  0.00  0.00    +0.000 C 
ENDROOT
BRANCH   5  12
ATOM     12  C   UNL     1       4.781   4.060  18.253  0.00  0.00    +0.000 A 
ATOM     13  C   UNL     1       5.076   4.147  16.884  0.00  0.00    +0.000 A 
ATOM     14  C   UNL     1       6.093   4.987  16.393  0.00  0.00    +0.000 A 
ATOM     15  C   UNL     1       6.834   5.781  17.258  0.00  0.00    +0.000 A 
ATOM     16  C   UNL     1       6.595   5.689  18.617  0.00  0.00    +0.000 A 
ATOM     17  C   UNL     1       5.617   4.807  19.091  0.00  0.00    +0.000 A 
ENDBRANCH   5  12
BRANCH   9  18
ATOM     18  C   UNL     1       0.711   6.867  20.663  0.00  0.00    +0.000 C 
BRANCH  18  19
ATOM     19  C   UNL     1       0.532   8.333  20.985  0.00  0.00    +0.000 A 
ATOM     20  C   UNL     1      -0.071   8.710  22.192  0.00  0.00    +0.000 A 
ATOM     21  C   UNL     1      -0.226  10.057  22.513  0.00  0.00    +0.000 A 
ATOM     22  C   UNL     1       0.219  11.040  21.630  0.00  0.00    +0.000 A 
ATOM     23  C   UNL     1       0.807  10.678  20.419  0.00  0.00    +0.000 A 
ATOM     24  C   UNL     1       0.961   9.331  20.095  0.00  0.00    +0.000 A 
ENDBRANCH  18  19
ENDBRANCH   9  18
TORSDOF 3
ENDMDL
MODEL 8
REMARK VINA RESULT:      -7.6      2.616      3.962
REMARK  Name = 
REMARK  3 active torsions:
REMARK  status: ('A' for Active; 'I' for Inactive)
REMARK    1  A    between atoms: N_5  and  C_6
REMARK    2  A    between atoms: N_15  and  C_16
REMARK    3  A    between atoms: C_16  and  C_17
REMARK                            x       y       z     vdW  Elec       q    Type
REMARK                         _______ _______ _______ _____ _____    ______ ____
ROOT
ATOM      1  O   UNL     1       7.978   7.401  16.803  0.00  0.00    +0.000 OA
ATOM      2  C   UNL     1       7.511   6.621  17.619  0.00  0.00    +0.000 C 
ATOM      3  O   UNL     1       7.853   6.632  18.935  0.00  0.00    +0.000 OA
ATOM      4  C   UNL     1       7.125   5.626  19.625  0.00  0.00    +0.000 C 
ATOM      5  N   UNL     1       6.218   4.971  18.695  0.00  0.00    +0.000 N 
ATOM      6  C   UNL     1       6.511   5.484  17.326  0.00  0.00    +0.000 C 
ATOM      7  C   UNL     1       5.342   6.105  16.561  0.00  0.00    +0.000 C 
ATOM      8  C   UNL     1       4.506   5.080  15.807  0.00  0.00    +0.000 C 
ATOM      9  N   UNL     1       5.263   4.131  14.979  0.00  0.00    +0.000 NA
ATOM     10  C   UNL     1       6.408   3.525  15.666  0.00  0.00    +0.000 C 
ATOM     11  C   UNL     1       7.283   4.482  16.465  0.00  0.00    +0.000 C 
ENDROOT
BRANCH   5  12
ATOM     12  C   UNL     1       4.994   4.495  19.130  0.00  0.00    +0.000 A 
ATOM     13  C   UNL     1       4.602   3.152  19.040  0.00  0.00    +0.000 A 
ATOM     14  C   UNL     1       3.369   2.699  19.547  0.00  0.00    +0.000 A 
ATOM     15  C   UNL     1       2.498   3.579  20.177  0.00  0.00    +0.000 A 
ATOM     16  C   UNL     1       2.837   4.918  20.247  0.00  0.00    +0.000 A 
ATOM     17  C   UNL     1       4.043   5.358  19.688  0.00  0.00    +0.000 A 
ENDBRANCH   5  12
BRANCH   9  18
ATOM     18  C   UNL     1       5.660   4.665  13.673  0.00  0.00    +0.000 C 
BRANCH  18  19
ATOM     19  C   UNL     1       5.965   3.604  12.640  0.00  0.00    +0.000 A 
ATOM     20  C   UNL     1       7.284   3.411  12.212  0.00  0.00    +0.000 A 
ATOM     21  C   UNL     1       7.586   2.425  11.275  0.00  0.00    +0.000 A 
ATOM     22  C   UNL     1       6.570   1.622  10.757  0.00  0.00    +0.000 A 
ATOM     23  C   UNL     1       5.251   1.815  11.163  0.00  0.00    +0.000 A 
ATOM     24  C   UNL     1       4.947   2.803  12.099  0.00  0.00    +0.000 A 
ENDBRANCH  18  19
ENDBRANCH   9  18
TORSDOF 3
ENDMDL
MODEL 9
REMARK VINA RESULT:      -7.6      1.947      6.653
REMARK  Name = 
REMARK  3 active torsions:
REMARK  status: ('A' for Active; 'I' for Inactive)
REMARK    1  A    between atoms: N_5  and  C_6
REMARK    2  A    between atoms: N_15  and  C_16
REMARK    3  A    between atoms: C_16  and  C_17
REMARK                            x       y       z     vdW  Elec       q    Type
REMARK                         _______ _______ _______ _____ _____    ______ ____
ROOT
ATOM      1  O   UNL     1       0.500   2.672  18.849  0.00  0.00    +0.000 OA
ATOM      2  C   UNL     1       1.698   2.648  18.614  0.00  0.00    +0.000 C 
ATOM      3  O   UNL     1       2.365   1.511  18.282  0.00  0.00    +0.000 OA
ATOM      4  C   UNL     1       3.733   1.812  18.046  0.00  0.00    +0.000 C 
ATOM      5  N   UNL     1       3.937   3.245  18.184  0.00  0.00    +0.000 N 
ATOM      6  C   UNL     1       2.667   3.846  18.686  0.00  0.00    +0.000 C 
ATOM      7  C   UNL     1       2.055   4.965  17.843  0.00  0.00    +0.000 C 
ATOM      8  C   UNL     1       2.627   6.339  18.165  0.00  0.00    +0.000 C 
ATOM      9  N   UNL     1       2.672   6.688  19.592  0.00  0.00    +0.000 NA
ATOM     10  C   UNL     1       3.233   5.634  20.443  0.00  0.00    +0.000 C 
ATOM     11  C   UNL     1       2.730   4.222  20.168  0.00  0.00    +0.000 C 
ENDROOT
BRANCH   5  12
ATOM     12  C   UNL     1       4.881   3.896  17.409  0.00  0.00    +0.000 A 
ATOM     13  C   UNL     1       5.962   4.616  17.937  0.00  0.00    +0.000 A 
ATOM     14  C   UNL     1       6.933   5.215  17.112  0.00  0.00    +0.000 A 
ATOM     15  C   UNL     1       6.859   5.095  15.731  0.00  0.00    +0.000 A 
ATOM     16  C   UNL     1       5.783   4.424  15.177  0.00  0.00    +0.000 A 
ATOM     17  C   UNL     1       4.798   3.883  16.012  0.00  0.00    +0.000 A 
ENDBRANCH   5  12
BRANCH   9  18
ATOM     18  C   UNL     1       1.396   7.169  20.127  0.00  0.00    +0.000 C 
BRANCH  18  19
ATOM     19  C   UNL     1       1.236   8.672  20.083  0.00  0.00    +0.000 A 
ATOM     20  C   UNL     1       1.369   9.349  18.865  0.00  0.00    +0.000 A 
ATOM     21  C   UNL     1       1.204  10.731  18.804  0.00  0.00    +0.000 A 
ATOM     22  C   UNL     1       0.906  11.449  19.961  0.00  0.00    +0.000 A 
ATOM     23  C   UNL     1       0.787  10.789  21.182  0.00  0.00    +0.000 A 
ATOM     24  C   UNL     1       0.953   9.406  21.246  0.00  0.00    +0.000 A 
ENDBRANCH  18  19
ENDBRANCH   9  18
TORSDOF 3
ENDMDL
