MODEL 1
REMARK VINA RESULT:      -8.1      0.000      0.000
REMARK  Name = 
REMARK  5 active torsions:
REMARK  status: ('A' for Active; 'I' for Inactive)
REMARK    1  A    between atoms: C_1  and  C_2
REMARK    2  A    between atoms: N_6  and  C_7
REMARK    3  A    between atoms: C_7  and  C_8
REMARK    4  A    between atoms: C_8  and  N_9
REMARK    5  A    between atoms: C_12  and  N_13
REMARK                            x       y       z     vdW  Elec       q    Type
REMARK                         _______ _______ _______ _____ _____    ______ ____
ROOT
ATOM      1  N   UNL     1       2.830   5.002  18.765  0.00  0.00    +0.000 N 
ATOM      2  N   UNL     1       2.888   6.129  17.969  0.00  0.00    +0.000 NA
ATOM      3  C   UNL     1       2.498   7.253  18.503  0.00  0.00    +0.000 A 
ATOM      4  C   UNL     1       1.976   7.464  19.887  0.00  0.00    +0.000 A 
ATOM      5  C   UNL     1       1.988   6.346  20.619  0.00  0.00    +0.000 A 
ATOM      6  C   UNL     1       2.466   5.041  20.100  0.00  0.00    +0.000 A 
ATOM      7  O   UNL     1       2.495   4.072  20.855  0.00  0.00    +0.000 OA
ENDROOT
BRANCH   4   8
ATOM      8  N   UNL     1       1.519   8.728  20.296  0.00  0.00    +0.000 N 
ATOM      9  C   UNL     1       0.756   9.667  19.429  0.00  0.00    +0.000 C 
ATOM     10  C   UNL     1       0.897  11.145  19.901  0.00  0.00    +0.000 C 
ATOM     11  C   UNL     1       0.295  11.217  21.284  0.00  0.00    +0.000 A 
ATOM     12  C   UNL     1      -0.587  12.224  21.668  0.00  0.00    +0.000 A 
ATOM     13  C   UNL     1      -1.505  11.955  22.681  0.00  0.00    +0.000 A 
ATOM     14  C   UNL     1      -1.525  10.694  23.287  0.00  0.00    +0.000 A 
ATOM     15  C   UNL     1      -0.522   9.762  23.015  0.00  0.00    +0.000 A 
ATOM     16  C   UNL     1       0.448  10.057  22.061  0.00  0.00    +0.000 A 
ATOM     17  C   UNL     1       1.600   9.148  21.713  0.00  0.00    +0.000 C 
ENDBRANCH   4   8
BRANCH   1  18
ATOM     18  C   UNL     1       3.379   3.772  18.180  0.00  0.00    +0.000 C 
BRANCH  18  19
ATOM     19  C   UNL     1       4.083   3.987  16.833  0.00  0.00    +0.000 C 
BRANCH  19  25
ATOM     20  C   UNL     1       6.195   3.919  14.545  0.00  0.00    +0.000 C 
ATOM     21  C   UNL     1       6.464   4.194  15.975  0.00  0.00    +0.000 A 
ATOM     22  N   UNL     1       7.662   4.474  16.472  0.00  0.00    +0.000 NA
ATOM     23  C   UNL     1       7.470   4.686  17.809  0.00  0.00    +0.000 A 
ATOM     24  C   UNL     1       6.153   4.527  18.138  0.00  0.00    +0.000 A 
ATOM     25  N   UNL     1       5.517   4.199  16.971  0.00  0.00    +0.000 N 
ENDBRANCH  19  25
ENDBRANCH  18  19
ENDBRANCH   1  18
TORSDOF 4
ENDMDL
MODEL 2
REMARK VINA RESULT:      -7.8      0.902      1.523
REMARK  Name = 
REMARK  5 active torsions:
REMARK  status: ('A' for Active; 'I' for Inactive)
REMARK    1  A    between atoms: C_1  and  C_2
REMARK    2  A    between atoms: N_6  and  C_7
REMARK    3  A    between atoms: C_7  and  C_8
REMARK    4  A    between atoms: C_8  and  N_9
REMARK    5  A    between atoms: C_12  and  N_13
REMARK                            x       y       z     vdW  Elec       q    Type
REMARK                         _______ _______ _______ _____ _____    ______ ____
ROOT
ATOM      1  N   UNL     1       2.706   5.733  19.032  0.00  0.00    +0.000 N 
ATOM      2  N   UNL     1       2.803   6.830  18.199  0.00  0.00    +0.000 NA
ATOM      3  C   UNL     1       2.271   7.944  18.620  0.00  0.00    +0.000 A 
ATOM      4  C   UNL     1       1.548   8.171  19.908  0.00  0.00    +0.000 A 
ATOM      5  C   UNL     1       1.529   7.086  20.687  0.00  0.00    +0.000 A 
ATOM      6  C   UNL     1       2.157   5.798  20.301  0.00  0.00    +0.000 A 
ATOM      7  O   UNL     1       2.141   4.864  21.099  0.00  0.00    +0.000 OA
ENDROOT
BRANCH   4   8
ATOM      8  N   UNL     1       0.959   9.416  20.189  0.00  0.00    +0.000 N 
ATOM      9  C   UNL     1      -0.021  10.100  19.303  0.00  0.00    +0.000 C 
ATOM     10  C   UNL     1      -0.047  11.640  19.540  0.00  0.00    +0.000 C 
ATOM     11  C   UNL     1      -0.501  11.852  20.965  0.00  0.00    +0.000 A 
ATOM     12  C   UNL     1      -1.474  12.785  21.312  0.00  0.00    +0.000 A 
ATOM     13  C   UNL     1      -2.228  12.565  22.462  0.00  0.00    +0.000 A 
ATOM     14  C   UNL     1      -1.999  11.423  23.238  0.00  0.00    +0.000 A 
ATOM     15  C   UNL     1      -0.907  10.596  22.974  0.00  0.00    +0.000 A 
ATOM     16  C   UNL     1      -0.098  10.858  21.872  0.00  0.00    +0.000 A 
ATOM     17  C   UNL     1       1.130  10.060  21.510  0.00  0.00    +0.000 C 
ENDBRANCH   4   8
BRANCH   1  18
ATOM     18  C   UNL     1       3.409   4.523  18.587  0.00  0.00    +0.000 C 
BRANCH  18  19
ATOM     19  C   UNL     1       4.903   4.510  18.940  0.00  0.00    +0.000 C 
BRANCH  19  25
ATOM     20  C   UNL     1       7.823   5.586  18.824  0.00  0.00    +0.000 C 
ATOM     21  C   UNL     1       7.059   5.009  17.695  0.00  0.00    +0.000 A 
ATOM     22  N   UNL     1       7.537   4.854  16.467  0.00  0.00    +0.000 NA
ATOM     23  C   UNL     1       6.534   4.269  15.747  0.00  0.00    +0.000 A 
ATOM     24  C   UNL     1       5.431   4.073  16.529  0.00  0.00    +0.000 A 
ATOM     25  N   UNL     1       5.763   4.559  17.765  0.00  0.00    +0.000 N 
ENDBRANCH  19  25
ENDBRANCH  18  19
ENDBRANCH   1  18
TORSDOF 4
ENDMDL
MODEL 3
REMARK VINA RESULT:      -7.8      1.500      2.555
REMARK  Name = 
REMARK  5 active torsions:
REMARK  status: ('A' for Active; 'I' for Inactive)
REMARK    1  A    between atoms: C_1  and  C_2
REMARK    2  A    between atoms: N_6  and  C_7
REMARK    3  A    between atoms: C_7  and  C_8
REMARK    4  A    between atoms: C_8  and  N_9
REMARK    5  A    between atoms: C_12  and  N_13
REMARK                            x       y       z     vdW  Elec       q    Type
REMARK                         _______ _______ _______ _____ _____    ______ ____
ROOT
ATOM      1  N   UNL     1       3.194   5.854  19.047  0.00  0.00    +0.000 N 
ATOM      2  N   UNL     1       2.499   5.551  20.201  0.00  0.00    +0.000 NA
ATOM      3  C   UNL     1       1.750   6.492  20.706  0.00  0.00    +0.000 A 
ATOM      4  C   UNL     1       1.564   7.879  20.182  0.00  0.00    +0.000 A 
ATOM      5  C   UNL     1       2.226   8.093  19.041  0.00  0.00    +0.000 A 
ATOM      6  C   UNL     1       3.056   7.057  18.379  0.00  0.00    +0.000 A 
ATOM      7  O   UNL     1       3.589   7.318  17.302  0.00  0.00    +0.000 OA
ENDROOT
BRANCH   4   8
ATOM      8  N   UNL     1       0.780   8.811  20.883  0.00  0.00    +0.000 N 
ATOM      9  C   UNL     1       0.931   9.116  22.332  0.00  0.00    +0.000 C 
ATOM     10  C   UNL     1      -0.378   9.694  22.948  0.00  0.00    +0.000 C 
ATOM     11  C   UNL     1      -0.652  10.998  22.237  0.00  0.00    +0.000 A 
ATOM     12  C   UNL     1      -0.998  12.165  22.915  0.00  0.00    +0.000 A 
ATOM     13  C   UNL     1      -0.696  13.391  22.327  0.00  0.00    +0.000 A 
ATOM     14  C   UNL     1      -0.057  13.430  21.083  0.00  0.00    +0.000 A 
ATOM     15  C   UNL     1       0.120  12.260  20.342  0.00  0.00    +0.000 A 
ATOM     16  C   UNL     1      -0.255  11.037  20.891  0.00  0.00    +0.000 A 
ATOM     17  C   UNL     1      -0.149   9.716  20.171  0.00  0.00    +0.000 C 
ENDBRANCH   4   8
BRANCH   1  18
ATOM     18  C   UNL     1       3.941   4.745  18.436  0.00  0.00    +0.000 C 
BRANCH  18  19
ATOM     19  C   UNL     1       5.464   4.888  18.548  0.00  0.00    +0.000 C 
BRANCH  19  25
ATOM     20  C   UNL     1       7.532   7.056  17.695  0.00  0.00    +0.000 C 
ATOM     21  C   UNL     1       7.049   5.932  16.860  0.00  0.00    +0.000 A 
ATOM     22  N   UNL     1       7.459   5.687  15.622  0.00  0.00    +0.000 NA
ATOM     23  C   UNL     1       6.796   4.559  15.226  0.00  0.00    +0.000 A 
ATOM     24  C   UNL     1       5.968   4.114  16.219  0.00  0.00    +0.000 A 
ATOM     25  N   UNL     1       6.119   4.999  17.252  0.00  0.00    +0.000 N 
ENDBRANCH  19  25
ENDBRANCH  18  19
ENDBRANCH   1  18
TORSDOF 4
ENDMDL
MODEL 4
REMARK VINA RESULT:      -7.8      1.476      2.751
REMARK  Name = 
REMARK  5 active torsions:
REMARK  status: ('A' for Active; 'I' for Inactive)
REMARK    1  A    between atoms: C_1  and  C_2
REMARK    2  A    between atoms: N_6  and  C_7
REMARK    3  A    between atoms: C_7  and  C_8
REMARK    4  A    between atoms: C_8  and  N_9
REMARK    5  A    between atoms: C_12  and  N_13
REMARK                            x       y       z     vdW  Elec       q    Type
REMARK                         _______ _______ _______ _____ _____    ______ ____
ROOT
ATOM      1  N   UNL     1       3.435   5.336  18.701  0.00  0.00    +0.000 N 
ATOM      2  N   UNL     1       3.564   6.357  17.780  0.00  0.00    +0.000 NA
ATOM      3  C   UNL     1       2.939   7.471  18.039  0.00  0.00    +0.000 A 
ATOM      4  C   UNL     1       2.078   7.772  19.222  0.00  0.00    +0.000 A 
ATOM      5  C   UNL     1       2.032   6.762  20.096  0.00  0.00    +0.000 A 
ATOM      6  C   UNL     1       2.757   5.484  19.898  0.00  0.00    +0.000 A 
ATOM      7  O   UNL     1       2.705   4.626  20.776  0.00  0.00    +0.000 OA
ENDROOT
BRANCH   4   8
ATOM      8  N   UNL     1       1.404   9.001  19.324  0.00  0.00    +0.000 N 
ATOM      9  C   UNL     1       0.893   9.576  20.599  0.00  0.00    +0.000 C 
ATOM     10  C   UNL     1      -0.273  10.581  20.361  0.00  0.00    +0.000 C 
ATOM     11  C   UNL     1       0.295  11.719  19.547  0.00  0.00    +0.000 A 
ATOM     12  C   UNL     1       0.059  13.056  19.858  0.00  0.00    +0.000 A 
ATOM     13  C   UNL     1       0.999  14.007  19.468  0.00  0.00    +0.000 A 
ATOM     14  C   UNL     1       2.150  13.607  18.780  0.00  0.00    +0.000 A 
ATOM     15  C   UNL     1       2.282  12.295  18.323  0.00  0.00    +0.000 A 
ATOM     16  C   UNL     1       1.304  11.357  18.640  0.00  0.00    +0.000 A 
ATOM     17  C   UNL     1       1.319   9.923  18.171  0.00  0.00    +0.000 C 
ENDBRANCH   4   8
BRANCH   1  18
ATOM     18  C   UNL     1       4.238   4.133  18.444  0.00  0.00    +0.000 C 
BRANCH  18  19
ATOM     19  C   UNL     1       5.752   4.382  18.466  0.00  0.00    +0.000 C 
BRANCH  19  25
ATOM     20  C   UNL     1       7.505   6.862  17.774  0.00  0.00    +0.000 C 
ATOM     21  C   UNL     1       7.080   5.802  16.832  0.00  0.00    +0.000 A 
ATOM     22  N   UNL     1       7.416   5.760  15.549  0.00  0.00    +0.000 NA
ATOM     23  C   UNL     1       6.848   4.621  15.052  0.00  0.00    +0.000 A 
ATOM     24  C   UNL     1       6.152   3.964  16.028  0.00  0.00    +0.000 A 
ATOM     25  N   UNL     1       6.288   4.726  17.156  0.00  0.00    +0.000 N 
ENDBRANCH  19  25
ENDBRANCH  18  19
ENDBRANCH   1  18
TORSDOF 4
ENDMDL
MODEL 5
REMARK VINA RESULT:      -7.8      0.987      2.211
REMARK  Name = 
REMARK  5 active torsions:
REMARK  status: ('A' for Active; 'I' for Inactive)
REMARK    1  A    between atoms: C_1  and  C_2
REMARK    2  A    between atoms: N_6  and  C_7
REMARK    3  A    between atoms: C_7  and  C_8
REMARK    4  A    between atoms: C_8  and  N_9
REMARK    5  A    between atoms: C_12  and  N_13
REMARK                            x       y       z     vdW  Elec       q    Type
REMARK                         _______ _______ _______ _____ _____    ______ ____
ROOT
ATOM      1  N   UNL     1       3.198   5.314  18.828  0.00  0.00    +0.000 N 
ATOM      2  N   UNL     1       3.200   6.536  18.186  0.00  0.00    +0.000 NA
ATOM      3  C   UNL     1       2.569   7.516  18.772  0.00  0.00    +0.000 A 
ATOM      4  C   UNL     1       1.824   7.466  20.066  0.00  0.00    +0.000 A 
ATOM      5  C   UNL     1       1.899   6.270  20.659  0.00  0.00    +0.000 A 
ATOM      6  C   UNL     1       2.641   5.123  20.081  0.00  0.00    +0.000 A 
ATOM      7  O   UNL     1       2.706   4.073  20.716  0.00  0.00    +0.000 OA
ENDROOT
BRANCH   4   8
ATOM      8  N   UNL     1       1.125   8.591  20.534  0.00  0.00    +0.000 N 
ATOM      9  C   UNL     1       1.010   8.972  21.968  0.00  0.00    +0.000 C 
ATOM     10  C   UNL     1      -0.245   9.854  22.240  0.00  0.00    +0.000 C 
ATOM     11  C   UNL     1      -0.061  11.126  21.448  0.00  0.00    +0.000 A 
ATOM     12  C   UNL     1      -0.288  12.389  21.990  0.00  0.00    +0.000 A 
ATOM     13  C   UNL     1       0.398  13.476  21.455  0.00  0.00    +0.000 A 
ATOM     14  C   UNL     1       1.293  13.284  20.397  0.00  0.00    +0.000 A 
ATOM     15  C   UNL     1       1.372  12.049  19.753  0.00  0.00    +0.000 A 
ATOM     16  C   UNL     1       0.626  10.976  20.232  0.00  0.00    +0.000 A 
ATOM     17  C   UNL     1       0.600   9.608  19.597  0.00  0.00    +0.000 C 
ENDBRANCH   4   8
BRANCH   1  18
ATOM     18  C   UNL     1       4.008   4.258  18.206  0.00  0.00    +0.000 C 
BRANCH  18  19
ATOM     19  C   UNL     1       5.521   4.487  18.327  0.00  0.00    +0.000 C 
BRANCH  19  25
ATOM     20  C   UNL     1       7.422   6.868  17.681  0.00  0.00    +0.000 C 
ATOM     21  C   UNL     1       7.013   5.798  16.744  0.00  0.00    +0.000 A 
ATOM     22  N   UNL     1       7.428   5.702  15.487  0.00  0.00    +0.000 NA
ATOM     23  C   UNL     1       6.844   4.573  14.986  0.00  0.00    +0.000 A 
ATOM     24  C   UNL     1       6.058   3.977  15.933  0.00  0.00    +0.000 A 
ATOM     25  N   UNL     1       6.155   4.767  17.046  0.00  0.00    +0.000 N 
ENDBRANCH  19  25
ENDBRANCH  18  19
ENDBRANCH   1  18
TORSDOF 4
ENDMDL
MODEL 6
REMARK VINA RESULT:      -7.7      1.301      2.324
REMARK  Name = 
REMARK  5 active torsions:
REMARK  status: ('A' for Active; 'I' for Inactive)
REMARK    1  A    between atoms: C_1  and  C_2
REMARK    2  A    between atoms: N_6  and  C_7
REMARK    3  A    between atoms: C_7  and  C_8
REMARK    4  A    between atoms: C_8  and  N_9
REMARK    5  A    between atoms: C_12  and  N_13
REMARK                            x       y       z     vdW  Elec       q    Type
REMARK                         _______ _______ _______ _____ _____    ______ ____
ROOT
ATOM      1  N   UNL     1       2.887   6.464  18.484  0.00  0.00    +0.000 N 
ATOM      2  N   UNL     1       2.603   7.748  18.061  0.00  0.00    +0.000 NA
ATOM      3  C   UNL     1       1.928   8.506  18.880  0.00  0.00    +0.000 A 
ATOM      4  C   UNL     1       1.409   8.140  20.232  0.00  0.00    +0.000 A 
ATOM      5  C   UNL     1       1.756   6.903  20.600  0.00  0.00    +0.000 A 
ATOM      6  C   UNL     1       2.566   6.000  19.747  0.00  0.00    +0.000 A 
ATOM      7  O   UNL     1       2.888   4.897  20.183  0.00  0.00    +0.000 OA
ENDROOT
BRANCH   4   8
ATOM      8  N   UNL     1       0.627   9.045  20.969  0.00  0.00    +0.000 N 
ATOM      9  C   UNL     1       0.848   9.373  22.404  0.00  0.00    +0.000 C 
ATOM     10  C   UNL     1      -0.448   9.902  23.089  0.00  0.00    +0.000 C 
ATOM     11  C   UNL     1      -0.817  11.186  22.384  0.00  0.00    +0.000 A 
ATOM     12  C   UNL     1      -1.174  12.344  23.071  0.00  0.00    +0.000 A 
ATOM     13  C   UNL     1      -0.959  13.575  22.456  0.00  0.00    +0.000 A 
ATOM     14  C   UNL     1      -0.394  13.627  21.177  0.00  0.00    +0.000 A 
ATOM     15  C   UNL     1      -0.210  12.458  20.437  0.00  0.00    +0.000 A 
ATOM     16  C   UNL     1      -0.501  11.226  21.017  0.00  0.00    +0.000 A 
ATOM     17  C   UNL     1      -0.379   9.902  20.303  0.00  0.00    +0.000 C 
ENDBRANCH   4   8
BRANCH   1  18
ATOM     18  C   UNL     1       3.744   5.668  17.594  0.00  0.00    +0.000 C 
BRANCH  18  19
ATOM     19  C   UNL     1       4.661   6.513  16.699  0.00  0.00    +0.000 C 
BRANCH  19  25
ATOM     20  C   UNL     1       7.454   6.109  18.018  0.00  0.00    +0.000 C 
ATOM     21  C   UNL     1       7.007   5.543  16.725  0.00  0.00    +0.000 A 
ATOM     22  N   UNL     1       7.749   4.757  15.955  0.00  0.00    +0.000 NA
ATOM     23  C   UNL     1       6.964   4.438  14.882  0.00  0.00    +0.000 A 
ATOM     24  C   UNL     1       5.740   5.036  14.986  0.00  0.00    +0.000 A 
ATOM     25  N   UNL     1       5.776   5.752  16.153  0.00  0.00    +0.000 N 
ENDBRANCH  19  25
ENDBRANCH  18  19
ENDBRANCH   1  18
TORSDOF 4
ENDMDL
MODEL 7
REMARK VINA RESULT:      -7.6      0.860      1.406
REMARK  Name = 
REMARK  5 active torsions:
REMARK  status: ('A' for Active; 'I' for Inactive)
REMARK    1  A    between atoms: C_1  and  C_2
REMARK    2  A    between atoms: N_6  and  C_7
REMARK    3  A    between atoms: C_7  and  C_8
REMARK    4  A    between atoms: C_8  and  N_9
REMARK    5  A    between atoms: C_12  and  N_13
REMARK                            x       y       z     vdW  Elec       q    Type
REMARK                         _______ _______ _______ _____ _____    ______ ____
ROOT
ATOM      1  N   UNL     1       3.069   5.407  18.173  0.00  0.00    +0.000 N 
ATOM      2  N   UNL     1       3.254   6.626  17.551  0.00  0.00    +0.000 NA
ATOM      3  C   UNL     1       2.778   7.679  18.155  0.00  0.00    +0.000 A 
ATOM      4  C   UNL     1       2.034   7.720  19.450  0.00  0.00    +0.000 A 
ATOM      5  C   UNL     1       1.929   6.517  20.023  0.00  0.00    +0.000 A 
ATOM      6  C   UNL     1       2.490   5.281  19.424  0.00  0.00    +0.000 A 
ATOM      7  O   UNL     1       2.397   4.223  20.041  0.00  0.00    +0.000 OA
ENDROOT
BRANCH   4   8
ATOM      8  N   UNL     1       1.512   8.929  19.939  0.00  0.00    +0.000 N 
ATOM      9  C   UNL     1       0.571   9.803  19.187  0.00  0.00    +0.000 C 
ATOM     10  C   UNL     1       0.627  11.281  19.677  0.00  0.00    +0.000 C 
ATOM     11  C   UNL     1       0.184  11.276  21.120  0.00  0.00    +0.000 A 
ATOM     12  C   UNL     1      -0.738  12.189  21.626  0.00  0.00    +0.000 A 
ATOM     13  C   UNL     1      -1.504  11.820  22.730  0.00  0.00    +0.000 A 
ATOM     14  C   UNL     1      -1.338  10.555  23.302  0.00  0.00    +0.000 A 
ATOM     15  C   UNL     1      -0.291   9.726  22.896  0.00  0.00    +0.000 A 
ATOM     16  C   UNL     1       0.532  10.125  21.846  0.00  0.00    +0.000 A 
ATOM     17  C   UNL     1       1.716   9.334  21.347  0.00  0.00    +0.000 C 
ENDBRANCH   4   8
BRANCH   1  18
ATOM     18  C   UNL     1       3.712   4.253  17.531  0.00  0.00    +0.000 C 
BRANCH  18  19
ATOM     19  C   UNL     1       5.230   4.190  17.746  0.00  0.00    +0.000 C 
BRANCH  19  25
ATOM     20  C   UNL     1       7.026   6.724  17.510  0.00  0.00    +0.000 C 
ATOM     21  C   UNL     1       6.800   5.712  16.454  0.00  0.00    +0.000 A 
ATOM     22  N   UNL     1       7.361   5.743  15.252  0.00  0.00    +0.000 NA
ATOM     23  C   UNL     1       6.916   4.626  14.603  0.00  0.00    +0.000 A 
ATOM     24  C   UNL     1       6.070   3.910  15.402  0.00  0.00    +0.000 A 
ATOM     25  N   UNL     1       5.986   4.611  16.574  0.00  0.00    +0.000 N 
ENDBRANCH  19  25
ENDBRANCH  18  19
ENDBRANCH   1  18
TORSDOF 4
ENDMDL
MODEL 8
REMARK VINA RESULT:      -7.6      1.768      2.387
REMARK  Name = 
REMARK  5 active torsions:
REMARK  status: ('A' for Active; 'I' for Inactive)
REMARK    1  A    between atoms: C_1  and  C_2
REMARK    2  A    between atoms: N_6  and  C_7
REMARK    3  A    between atoms: C_7  and  C_8
REMARK    4  A    between atoms: C_8  and  N_9
REMARK    5  A    between atoms: C_12  and  N_13
REMARK                            x       y       z     vdW  Elec       q    Type
REMARK                         _______ _______ _______ _____ _____    ______ ____
ROOT
ATOM      1  N   UNL     1       3.137   6.560  18.950  0.00  0.00    +0.000 N 
ATOM      2  N   UNL     1       2.391   6.621  20.111  0.00  0.00    +0.000 NA
ATOM      3  C   UNL     1       1.625   7.665  20.269  0.00  0.00    +0.000 A 
ATOM      4  C   UNL     1       1.469   8.822  19.337  0.00  0.00    +0.000 A 
ATOM      5  C   UNL     1       2.180   8.680  18.214  0.00  0.00    +0.000 A 
ATOM      6  C   UNL     1       3.033   7.498  17.939  0.00  0.00    +0.000 A 
ATOM      7  O   UNL     1       3.613   7.420  16.858  0.00  0.00    +0.000 OA
ENDROOT
BRANCH   4   8
ATOM      8  N   UNL     1       0.659   9.917  19.683  0.00  0.00    +0.000 N 
ATOM      9  C   UNL     1      -0.633  10.248  19.023  0.00  0.00    +0.000 C 
ATOM     10  C   UNL     1      -0.997  11.756  19.173  0.00  0.00    +0.000 C 
ATOM     11  C   UNL     1      -1.164  12.016  20.651  0.00  0.00    +0.000 A 
ATOM     12  C   UNL     1      -2.241  12.729  21.171  0.00  0.00    +0.000 A 
ATOM     13  C   UNL     1      -2.642  12.470  22.480  0.00  0.00    +0.000 A 
ATOM     14  C   UNL     1      -1.966  11.510  23.239  0.00  0.00    +0.000 A 
ATOM     15  C   UNL     1      -0.784  10.937  22.766  0.00  0.00    +0.000 A 
ATOM     16  C   UNL     1      -0.333  11.254  21.488  0.00  0.00    +0.000 A 
ATOM     17  C   UNL     1       0.947  10.729  20.885  0.00  0.00    +0.000 C 
ENDBRANCH   4   8
BRANCH   1  18
ATOM     18  C   UNL     1       3.904   5.324  18.743  0.00  0.00    +0.000 C 
BRANCH  18  19
ATOM     19  C   UNL     1       5.423   5.513  18.843  0.00  0.00    +0.000 C 
BRANCH  19  25
ATOM     20  C   UNL     1       7.560   7.441  17.650  0.00  0.00    +0.000 C 
ATOM     21  C   UNL     1       7.056   6.198  17.022  0.00  0.00    +0.000 A 
ATOM     22  N   UNL     1       7.474   5.725  15.855  0.00  0.00    +0.000 NA
ATOM     23  C   UNL     1       6.785   4.561  15.656  0.00  0.00    +0.000 A 
ATOM     24  C   UNL     1       5.934   4.322  16.698  0.00  0.00    +0.000 A 
ATOM     25  N   UNL     1       6.097   5.373  17.559  0.00  0.00    +0.000 N 
ENDBRANCH  19  25
ENDBRANCH  18  19
ENDBRANCH   1  18
TORSDOF 4
ENDMDL
MODEL 9
REMARK VINA RESULT:      -7.6      0.801      1.913
REMARK  Name = 
REMARK  5 active torsions:
REMARK  status: ('A' for Active; 'I' for Inactive)
REMARK    1  A    between atoms: C_1  and  C_2
REMARK    2  A    between atoms: N_6  and  C_7
REMARK    3  A    between atoms: C_7  and  C_8
REMARK    4  A    between atoms: C_8  and  N_9
REMARK    5  A    between atoms: C_12  and  N_13
REMARK                            x       y       z     vdW  Elec       q    Type
REMARK                         _______ _______ _______ _____ _____    ______ ____
ROOT
ATOM      1  N   UNL     1       2.911   5.224  19.127  0.00  0.00    +0.000 N 
ATOM      2  N   UNL     1       3.033   6.388  18.395  0.00  0.00    +0.000 NA
ATOM      3  C   UNL     1       2.485   7.462  18.892  0.00  0.00    +0.000 A 
ATOM      4  C   UNL     1       1.720   7.578  20.170  0.00  0.00    +0.000 A 
ATOM      5  C   UNL     1       1.678   6.429  20.852  0.00  0.00    +0.000 A 
ATOM      6  C   UNL     1       2.321   5.180  20.377  0.00  0.00    +0.000 A 
ATOM      7  O   UNL     1       2.281   4.180  21.091  0.00  0.00    +0.000 OA
ENDROOT
BRANCH   4   8
ATOM      8  N   UNL     1       1.118   8.794  20.538  0.00  0.00    +0.000 N 
ATOM      9  C   UNL     1       1.095   9.334  21.924  0.00  0.00    +0.000 C 
ATOM     10  C   UNL     1      -0.086  10.326  22.145  0.00  0.00    +0.000 C 
ATOM     11  C   UNL     1       0.145  11.489  21.211  0.00  0.00    +0.000 A 
ATOM     12  C   UNL     1       0.027  12.816  21.618  0.00  0.00    +0.000 A 
ATOM     13  C   UNL     1       0.758  13.788  20.940  0.00  0.00    +0.000 A 
ATOM     14  C   UNL     1       1.588  13.421  19.876  0.00  0.00    +0.000 A 
ATOM     15  C   UNL     1       1.556  12.121  19.370  0.00  0.00    +0.000 A 
ATOM     16  C   UNL     1       0.764  11.161  19.993  0.00  0.00    +0.000 A 
ATOM     17  C   UNL     1       0.619   9.738  19.514  0.00  0.00    +0.000 C 
ENDBRANCH   4   8
BRANCH   1  18
ATOM     18  C   UNL     1       3.632   4.056  18.603  0.00  0.00    +0.000 C 
BRANCH  18  19
ATOM     19  C   UNL     1       4.200   4.260  17.192  0.00  0.00    +0.000 C 
BRANCH  19  25
ATOM     20  C   UNL     1       6.061   4.001  14.708  0.00  0.00    +0.000 C 
ATOM     21  C   UNL     1       6.489   4.297  16.094  0.00  0.00    +0.000 A 
ATOM     22  N   UNL     1       7.746   4.516  16.460  0.00  0.00    +0.000 NA
ATOM     23  C   UNL     1       7.704   4.775  17.801  0.00  0.00    +0.000 A 
ATOM     24  C   UNL     1       6.421   4.707  18.265  0.00  0.00    +0.000 A 
ATOM     25  N   UNL     1       5.651   4.387  17.179  0.00  0.00    +0.000 N 
ENDBRANCH  19  25
ENDBRANCH  18  19
ENDBRANCH   1  18
TORSDOF 4
ENDMDL
