MODEL 1
REMARK VINA RESULT:      -7.6      0.000      0.000
REMARK  Name = 
REMARK  7 active torsions:
REMARK  status: ('A' for Active; 'I' for Inactive)
REMARK    1  A    between atoms: C_2  and  C_3
REMARK    2  A    between atoms: C_3  and  C_4
REMARK    3  A    between atoms: C_4  and  C_5
REMARK    4  A    between atoms: C_5  and  N_6
REMARK    5  A    between atoms: N_6  and  C_7
REMARK    6  A    between atoms: N_6  and  C_8
REMARK    7  A    between atoms: C_12  and  C_13
REMARK                            x       y       z     vdW  Elec       q    Type
REMARK                         _______ _______ _______ _____ _____    ______ ____
ROOT
ATOM      1  C   UNL     1       5.771   5.003  16.520  0.00  0.00    +0.000 C 
ATOM      2  C   UNL     1       5.349   6.311  15.816  0.00  0.00    +0.000 C 
ATOM      3  C   UNL     1       4.451   7.082  16.782  0.00  0.00    +0.000 C 
ATOM      4  C   UNL     1       3.820   6.020  17.626  0.00  0.00    +0.000 C 
ATOM      5  C   UNL     1       2.848   6.102  18.540  0.00  0.00    +0.000 C 
ATOM      6  C   UNL     1       4.612   4.763  17.451  0.00  0.00    +0.000 C 
ATOM      7  O   UNL     1       4.370   3.723  18.048  0.00  0.00    +0.000 OA
ENDROOT
BRANCH   5   8
ATOM      8  C   UNL     1       2.182   7.358  18.861  0.00  0.00    +0.000 A 
ATOM      9  C   UNL     1       1.849   8.244  17.818  0.00  0.00    +0.000 A 
ATOM     10  C   UNL     1       1.229   9.466  18.089  0.00  0.00    +0.000 A 
ATOM     11  C   UNL     1       0.963   9.769  19.408  0.00  0.00    +0.000 A 
ATOM     12  C   UNL     1       1.286   8.905  20.432  0.00  0.00    +0.000 A 
ATOM     13  C   UNL     1       1.897   7.693  20.193  0.00  0.00    +0.000 A 
ATOM     14  O   UNL     1       0.937   9.403  21.650  0.00  0.00    +0.000 OA
ATOM     15  C   UNL     1       0.374  10.678  21.275  0.00  0.00    +0.000 C 
ATOM     16  O   UNL     1       0.372  10.907  19.853  0.00  0.00    +0.000 OA
ENDBRANCH   5   8
BRANCH   1  17
ATOM     17  C   UNL     1       5.898   3.820  15.518  0.00  0.00    +0.000 C 
BRANCH  17  19
ATOM     18  C   UNL     1       5.978   3.601  13.003  0.00  0.00    +0.000 C 
ATOM     19  C   UNL     1       6.394   4.180  14.137  0.00  0.00    +0.000 C 
ENDBRANCH  17  19
ENDBRANCH   1  17
BRANCH   1  20
ATOM     20  C   UNL     1       7.106   5.120  17.324  0.00  0.00    +0.000 C 
BRANCH  20  21
ATOM     21  N   UNL     1       7.234   6.011  18.508  0.00  0.00    +0.000 NA
ATOM     22  C   UNL     1       8.035   5.439  19.596  0.00  0.00    +0.000 C 
ATOM     23  C   UNL     1       7.916   7.253  18.098  0.00  0.00    +0.000 C 
ENDBRANCH  20  21
ENDBRANCH   1  20
TORSDOF 5
ENDMDL
MODEL 2
REMARK VINA RESULT:      -7.4      0.681      1.409
REMARK  Name = 
REMARK  7 active torsions:
REMARK  status: ('A' for Active; 'I' for Inactive)
REMARK    1  A    between atoms: C_2  and  C_3
REMARK    2  A    between atoms: C_3  and  C_4
REMARK    3  A    between atoms: C_4  and  C_5
REMARK    4  A    between atoms: C_5  and  N_6
REMARK    5  A    between atoms: N_6  and  C_7
REMARK    6  A    between atoms: N_6  and  C_8
REMARK    7  A    between atoms: C_12  and  C_13
REMARK                            x       y       z     vdW  Elec       q    Type
REMARK                         _______ _______ _______ _____ _____    ______ ____
ROOT
ATOM      1  C   UNL     1       5.663   5.120  16.644  0.00  0.00    +0.000 C 
ATOM      2  C   UNL     1       5.103   6.421  16.028  0.00  0.00    +0.000 C 
ATOM      3  C   UNL     1       4.266   7.114  17.101  0.00  0.00    +0.000 C 
ATOM      4  C   UNL     1       3.781   5.995  17.969  0.00  0.00    +0.000 C 
ATOM      5  C   UNL     1       2.902   5.998  18.977  0.00  0.00    +0.000 C 
ATOM      6  C   UNL     1       4.618   4.790  17.676  0.00  0.00    +0.000 C 
ATOM      7  O   UNL     1       4.493   3.722  18.260  0.00  0.00    +0.000 OA
ENDROOT
BRANCH   5   8
ATOM      8  C   UNL     1       2.205   7.204  19.402  0.00  0.00    +0.000 A 
ATOM      9  C   UNL     1       1.740   7.297  20.728  0.00  0.00    +0.000 A 
ATOM     10  C   UNL     1       1.050   8.430  21.165  0.00  0.00    +0.000 A 
ATOM     11  C   UNL     1       0.840   9.442  20.253  0.00  0.00    +0.000 A 
ATOM     12  C   UNL     1       1.294   9.357  18.955  0.00  0.00    +0.000 A 
ATOM     13  C   UNL     1       1.978   8.252  18.496  0.00  0.00    +0.000 A 
ATOM     14  O   UNL     1       0.977  10.463  18.228  0.00  0.00    +0.000 OA
ATOM     15  C   UNL     1       0.263  11.243  19.210  0.00  0.00    +0.000 C 
ATOM     16  O   UNL     1       0.189  10.607  20.502  0.00  0.00    +0.000 OA
ENDBRANCH   5   8
BRANCH   1  17
ATOM     17  C   UNL     1       5.753   3.974  15.597  0.00  0.00    +0.000 C 
BRANCH  17  19
ATOM     18  C   UNL     1       6.080   3.673  13.110  0.00  0.00    +0.000 C 
ATOM     19  C   UNL     1       6.286   4.366  14.238  0.00  0.00    +0.000 C 
ENDBRANCH  17  19
ENDBRANCH   1  17
BRANCH   1  20
ATOM     20  C   UNL     1       7.063   5.291  17.316  0.00  0.00    +0.000 C 
BRANCH  20  21
ATOM     21  N   UNL     1       7.265   6.170  18.499  0.00  0.00    +0.000 NA
ATOM     22  C   UNL     1       8.097   5.570  19.548  0.00  0.00    +0.000 C 
ATOM     23  C   UNL     1       7.961   7.397  18.068  0.00  0.00    +0.000 C 
ENDBRANCH  20  21
ENDBRANCH   1  20
TORSDOF 5
ENDMDL
MODEL 3
REMARK VINA RESULT:      -7.3      2.053      3.351
REMARK  Name = 
REMARK  7 active torsions:
REMARK  status: ('A' for Active; 'I' for Inactive)
REMARK    1  A    between atoms: C_2  and  C_3
REMARK    2  A    between atoms: C_3  and  C_4
REMARK    3  A    between atoms: C_4  and  C_5
REMARK    4  A    between atoms: C_5  and  N_6
REMARK    5  A    between atoms: N_6  and  C_7
REMARK    6  A    between atoms: N_6  and  C_8
REMARK    7  A    between atoms: C_12  and  C_13
REMARK                            x       y       z     vdW  Elec       q    Type
REMARK                         _______ _______ _______ _____ _____    ______ ____
ROOT
ATOM      1  C   UNL     1       5.063   4.806  17.920  0.00  0.00    +0.000 C 
ATOM      2  C   UNL     1       4.817   5.147  19.406  0.00  0.00    +0.000 C 
ATOM      3  C   UNL     1       3.630   6.107  19.465  0.00  0.00    +0.000 C 
ATOM      4  C   UNL     1       3.668   6.822  18.151  0.00  0.00    +0.000 C 
ATOM      5  C   UNL     1       2.955   7.864  17.710  0.00  0.00    +0.000 C 
ATOM      6  C   UNL     1       4.548   6.040  17.228  0.00  0.00    +0.000 C 
ATOM      7  O   UNL     1       4.745   6.348  16.060  0.00  0.00    +0.000 OA
ENDROOT
BRANCH   5   8
ATOM      8  C   UNL     1       1.956   8.531  18.534  0.00  0.00    +0.000 A 
ATOM      9  C   UNL     1       1.093   9.471  17.938  0.00  0.00    +0.000 A 
ATOM     10  C   UNL     1       0.136  10.146  18.701  0.00  0.00    +0.000 A 
ATOM     11  C   UNL     1       0.076   9.861  20.049  0.00  0.00    +0.000 A 
ATOM     12  C   UNL     1       0.918   8.942  20.636  0.00  0.00    +0.000 A 
ATOM     13  C   UNL     1       1.870   8.261  19.908  0.00  0.00    +0.000 A 
ATOM     14  O   UNL     1       0.689   8.818  21.972  0.00  0.00    +0.000 OA
ATOM     15  C   UNL     1      -0.379   9.771  22.157  0.00  0.00    +0.000 C 
ATOM     16  O   UNL     1      -0.783  10.423  20.937  0.00  0.00    +0.000 OA
ENDBRANCH   5   8
BRANCH   1  17
ATOM     17  C   UNL     1       6.575   4.619  17.610  0.00  0.00    +0.000 C 
BRANCH  17  19
ATOM     18  C   UNL     1       7.819   6.739  18.193  0.00  0.00    +0.000 C 
ATOM     19  C   UNL     1       7.523   5.456  18.438  0.00  0.00    +0.000 C 
ENDBRANCH  17  19
ENDBRANCH   1  17
BRANCH   1  20
ATOM     20  C   UNL     1       4.293   3.539  17.426  0.00  0.00    +0.000 C 
BRANCH  20  21
ATOM     21  N   UNL     1       3.338   2.809  18.302  0.00  0.00    +0.000 NA
ATOM     22  C   UNL     1       1.937   2.933  17.884  0.00  0.00    +0.000 C 
ATOM     23  C   UNL     1       3.658   1.369  18.261  0.00  0.00    +0.000 C 
ENDBRANCH  20  21
ENDBRANCH   1  20
TORSDOF 5
ENDMDL
MODEL 4
REMARK VINA RESULT:      -7.2      1.834      2.690
REMARK  Name = 
REMARK  7 active torsions:
REMARK  status: ('A' for Active; 'I' for Inactive)
REMARK    1  A    between atoms: C_2  and  C_3
REMARK    2  A    between atoms: C_3  and  C_4
REMARK    3  A    between atoms: C_4  and  C_5
REMARK    4  A    between atoms: C_5  and  N_6
REMARK    5  A    between atoms: N_6  and  C_7
REMARK    6  A    between atoms: N_6  and  C_8
REMARK    7  A    between atoms: C_12  and  C_13
REMARK                            x       y       z     vdW  Elec       q    Type
REMARK                         _______ _______ _______ _____ _____    ______ ____
ROOT
ATOM      1  C   UNL     1       4.216   4.752  18.526  0.00  0.00    +0.000 C 
ATOM      2  C   UNL     1       3.817   5.742  17.411  0.00  0.00    +0.000 C 
ATOM      3  C   UNL     1       3.230   6.980  18.086  0.00  0.00    +0.000 C 
ATOM      4  C   UNL     1       2.663   6.465  19.372  0.00  0.00    +0.000 C 
ATOM      5  C   UNL     1       1.912   7.076  20.294  0.00  0.00    +0.000 C 
ATOM      6  C   UNL     1       3.250   5.112  19.623  0.00  0.00    +0.000 C 
ATOM      7  O   UNL     1       3.013   4.449  20.624  0.00  0.00    +0.000 OA
ENDROOT
BRANCH   5   8
ATOM      8  C   UNL     1       1.477   8.459  20.156  0.00  0.00    +0.000 A 
ATOM      9  C   UNL     1       1.460   9.049  18.878  0.00  0.00    +0.000 A 
ATOM     10  C   UNL     1       1.068  10.379  18.709  0.00  0.00    +0.000 A 
ATOM     11  C   UNL     1       0.708  11.087  19.837  0.00  0.00    +0.000 A 
ATOM     12  C   UNL     1       0.722  10.515  21.090  0.00  0.00    +0.000 A 
ATOM     13  C   UNL     1       1.103   9.204  21.285  0.00  0.00    +0.000 A 
ATOM     14  O   UNL     1       0.333  11.390  22.057  0.00  0.00    +0.000 OA
ATOM     15  C   UNL     1       0.087  12.576  21.272  0.00  0.00    +0.000 C 
ATOM     16  O   UNL     1       0.307  12.384  19.860  0.00  0.00    +0.000 OA
ENDBRANCH   5   8
BRANCH   1  17
ATOM     17  C   UNL     1       3.998   3.273  18.095  0.00  0.00    +0.000 C 
BRANCH  17  19
ATOM     18  C   UNL     1       1.683   2.270  18.218  0.00  0.00    +0.000 C 
ATOM     19  C   UNL     1       2.627   2.944  17.550  0.00  0.00    +0.000 C 
ENDBRANCH  17  19
ENDBRANCH   1  17
BRANCH   1  20
ATOM     20  C   UNL     1       5.690   4.914  19.019  0.00  0.00    +0.000 C 
BRANCH  20  21
ATOM     21  N   UNL     1       6.729   5.575  18.184  0.00  0.00    +0.000 NA
ATOM     22  C   UNL     1       7.812   6.188  18.961  0.00  0.00    +0.000 C 
ATOM     23  C   UNL     1       7.361   4.562  17.318  0.00  0.00    +0.000 C 
ENDBRANCH  20  21
ENDBRANCH   1  20
TORSDOF 5
ENDMDL
MODEL 5
REMARK VINA RESULT:      -7.1      2.101      3.599
REMARK  Name = 
REMARK  7 active torsions:
REMARK  status: ('A' for Active; 'I' for Inactive)
REMARK    1  A    between atoms: C_2  and  C_3
REMARK    2  A    between atoms: C_3  and  C_4
REMARK    3  A    between atoms: C_4  and  C_5
REMARK    4  A    between atoms: C_5  and  N_6
REMARK    5  A    between atoms: N_6  and  C_7
REMARK    6  A    between atoms: N_6  and  C_8
REMARK    7  A    between atoms: C_12  and  C_13
REMARK                            x       y       z     vdW  Elec       q    Type
REMARK                         _______ _______ _______ _____ _____    ______ ____
ROOT
ATOM      1  C   UNL     1       5.063   4.778  17.922  0.00  0.00    +0.000 C 
ATOM      2  C   UNL     1       4.824   5.144  19.403  0.00  0.00    +0.000 C 
ATOM      3  C   UNL     1       3.651   6.122  19.451  0.00  0.00    +0.000 C 
ATOM      4  C   UNL     1       3.699   6.818  18.127  0.00  0.00    +0.000 C 
ATOM      5  C   UNL     1       3.001   7.864  17.672  0.00  0.00    +0.000 C 
ATOM      6  C   UNL     1       4.566   6.010  17.214  0.00  0.00    +0.000 C 
ATOM      7  O   UNL     1       4.766   6.299  16.042  0.00  0.00    +0.000 OA
ENDROOT
BRANCH   5   8
ATOM      8  C   UNL     1       2.013   8.558  18.487  0.00  0.00    +0.000 A 
ATOM      9  C   UNL     1       1.859   8.191  19.838  0.00  0.00    +0.000 A 
ATOM     10  C   UNL     1       0.908   8.820  20.646  0.00  0.00    +0.000 A 
ATOM     11  C   UNL     1       0.129   9.801  20.069  0.00  0.00    +0.000 A 
ATOM     12  C   UNL     1       0.276  10.165  18.748  0.00  0.00    +0.000 A 
ATOM     13  C   UNL     1       1.207   9.562  17.929  0.00  0.00    +0.000 A 
ATOM     14  O   UNL     1      -0.592  11.149  18.388  0.00  0.00    +0.000 OA
ATOM     15  C   UNL     1      -1.307  11.351  19.625  0.00  0.00    +0.000 C 
ATOM     16  O   UNL     1      -0.842  10.511  20.699  0.00  0.00    +0.000 OA
ENDBRANCH   5   8
BRANCH   1  17
ATOM     17  C   UNL     1       6.573   4.565  17.614  0.00  0.00    +0.000 C 
BRANCH  17  19
ATOM     18  C   UNL     1       7.813   6.672  18.245  0.00  0.00    +0.000 C 
ATOM     19  C   UNL     1       7.535   5.379  18.449  0.00  0.00    +0.000 C 
ENDBRANCH  17  19
ENDBRANCH   1  17
BRANCH   1  20
ATOM     20  C   UNL     1       4.274   3.516  17.447  0.00  0.00    +0.000 C 
BRANCH  20  21
ATOM     21  N   UNL     1       3.352   2.779  18.352  0.00  0.00    +0.000 NA
ATOM     22  C   UNL     1       1.943   2.855  17.951  0.00  0.00    +0.000 C 
ATOM     23  C   UNL     1       3.711   1.348  18.336  0.00  0.00    +0.000 C 
ENDBRANCH  20  21
ENDBRANCH   1  20
TORSDOF 5
ENDMDL
MODEL 6
REMARK VINA RESULT:      -7.1      2.416      3.800
REMARK  Name = 
REMARK  7 active torsions:
REMARK  status: ('A' for Active; 'I' for Inactive)
REMARK    1  A    between atoms: C_2  and  C_3
REMARK    2  A    between atoms: C_3  and  C_4
REMARK    3  A    between atoms: C_4  and  C_5
REMARK    4  A    between atoms: C_5  and  N_6
REMARK    5  A    between atoms: N_6  and  C_7
REMARK    6  A    between atoms: N_6  and  C_8
REMARK    7  A    between atoms: C_12  and  C_13
REMARK                            x       y       z     vdW  Elec       q    Type
REMARK                         _______ _______ _______ _____ _____    ______ ____
ROOT
ATOM      1  C   UNL     1       4.009   5.079  18.466  0.00  0.00    +0.000 C 
ATOM      2  C   UNL     1       3.543   5.473  19.884  0.00  0.00    +0.000 C 
ATOM      3  C   UNL     1       2.513   6.592  19.735  0.00  0.00    +0.000 C 
ATOM      4  C   UNL     1       2.895   7.275  18.460  0.00  0.00    +0.000 C 
ATOM      5  C   UNL     1       2.430   8.401  17.907  0.00  0.00    +0.000 C 
ATOM      6  C   UNL     1       3.810   6.364  17.706  0.00  0.00    +0.000 C 
ATOM      7  O   UNL     1       4.261   6.624  16.598  0.00  0.00    +0.000 OA
ENDROOT
BRANCH   5   8
ATOM      8  C   UNL     1       1.401   9.214  18.540  0.00  0.00    +0.000 A 
ATOM      9  C   UNL     1       0.239   9.538  17.813  0.00  0.00    +0.000 A 
ATOM     10  C   UNL     1      -0.761  10.333  18.380  0.00  0.00    +0.000 A 
ATOM     11  C   UNL     1      -0.562  10.788  19.667  0.00  0.00    +0.000 A 
ATOM     12  C   UNL     1       0.573  10.474  20.382  0.00  0.00    +0.000 A 
ATOM     13  C   UNL     1       1.574   9.691  19.849  0.00  0.00    +0.000 A 
ATOM     14  O   UNL     1       0.564  11.028  21.626  0.00  0.00    +0.000 OA
ATOM     15  C   UNL     1      -0.694  11.734  21.603  0.00  0.00    +0.000 C 
ATOM     16  O   UNL     1      -1.421  11.571  20.369  0.00  0.00    +0.000 OA
ENDBRANCH   5   8
BRANCH   1  17
ATOM     17  C   UNL     1       5.511   4.676  18.439  0.00  0.00    +0.000 C 
BRANCH  17  19
ATOM     18  C   UNL     1       7.640   5.965  18.870  0.00  0.00    +0.000 C 
ATOM     19  C   UNL     1       6.436   5.536  19.269  0.00  0.00    +0.000 C 
ENDBRANCH  17  19
ENDBRANCH   1  17
BRANCH   1  20
ATOM     20  C   UNL     1       3.172   3.927  17.823  0.00  0.00    +0.000 C 
BRANCH  20  21
ATOM     21  N   UNL     1       2.737   2.741  18.607  0.00  0.00    +0.000 NA
ATOM     22  C   UNL     1       1.309   2.430  18.468  0.00  0.00    +0.000 C 
ATOM     23  C   UNL     1       3.468   1.554  18.123  0.00  0.00    +0.000 C 
ENDBRANCH  20  21
ENDBRANCH   1  20
TORSDOF 5
ENDMDL
MODEL 7
REMARK VINA RESULT:      -7.1      2.503      4.073
REMARK  Name = 
REMARK  7 active torsions:
REMARK  status: ('A' for Active; 'I' for Inactive)
REMARK    1  A    between atoms: C_2  and  C_3
REMARK    2  A    between atoms: C_3  and  C_4
REMARK    3  A    between atoms: C_4  and  C_5
REMARK    4  A    between atoms: C_5  and  N_6
REMARK    5  A    between atoms: N_6  and  C_7
REMARK    6  A    between atoms: N_6  and  C_8
REMARK    7  A    between atoms: C_12  and  C_13
REMARK                            x       y       z     vdW  Elec       q    Type
REMARK                         _______ _______ _______ _____ _____    ______ ____
ROOT
ATOM      1  C   UNL     1       4.097   5.016  18.470  0.00  0.00    +0.000 C 
ATOM      2  C   UNL     1       3.598   5.417  19.875  0.00  0.00    +0.000 C 
ATOM      3  C   UNL     1       2.558   6.522  19.695  0.00  0.00    +0.000 C 
ATOM      4  C   UNL     1       2.958   7.198  18.421  0.00  0.00    +0.000 C 
ATOM      5  C   UNL     1       2.491   8.313  17.848  0.00  0.00    +0.000 C 
ATOM      6  C   UNL     1       3.899   6.290  17.694  0.00  0.00    +0.000 C 
ATOM      7  O   UNL     1       4.370   6.546  16.594  0.00  0.00    +0.000 OA
ENDROOT
BRANCH   5   8
ATOM      8  C   UNL     1       1.440   9.120  18.452  0.00  0.00    +0.000 A 
ATOM      9  C   UNL     1       1.468   9.355  19.841  0.00  0.00    +0.000 A 
ATOM     10  C   UNL     1       0.466  10.108  20.458  0.00  0.00    +0.000 A 
ATOM     11  C   UNL     1      -0.545  10.601  19.661  0.00  0.00    +0.000 A 
ATOM     12  C   UNL     1      -0.577  10.374  18.303  0.00  0.00    +0.000 A 
ATOM     13  C   UNL     1       0.398   9.637  17.667  0.00  0.00    +0.000 A 
ATOM     14  O   UNL     1      -1.661  10.948  17.713  0.00  0.00    +0.000 OA
ATOM     15  C   UNL     1      -2.311  11.547  18.854  0.00  0.00    +0.000 C 
ATOM     16  O   UNL     1      -1.598  11.344  20.090  0.00  0.00    +0.000 OA
ENDBRANCH   5   8
BRANCH   1  17
ATOM     17  C   UNL     1       5.604   4.630  18.478  0.00  0.00    +0.000 C 
BRANCH  17  19
ATOM     18  C   UNL     1       7.727   5.938  18.880  0.00  0.00    +0.000 C 
ATOM     19  C   UNL     1       6.510   5.541  19.274  0.00  0.00    +0.000 C 
ENDBRANCH  17  19
ENDBRANCH   1  17
BRANCH   1  20
ATOM     20  C   UNL     1       3.288   3.847  17.821  0.00  0.00    +0.000 C 
BRANCH  20  21
ATOM     21  N   UNL     1       2.751   2.720  18.629  0.00  0.00    +0.000 NA
ATOM     22  C   UNL     1       1.317   2.480  18.432  0.00  0.00    +0.000 C 
ATOM     23  C   UNL     1       3.438   1.477  18.229  0.00  0.00    +0.000 C 
ENDBRANCH  20  21
ENDBRANCH   1  20
TORSDOF 5
ENDMDL
MODEL 8
REMARK VINA RESULT:      -7.1      2.406      3.865
REMARK  Name = 
REMARK  7 active torsions:
REMARK  status: ('A' for Active; 'I' for Inactive)
REMARK    1  A    between atoms: C_2  and  C_3
REMARK    2  A    between atoms: C_3  and  C_4
REMARK    3  A    between atoms: C_4  and  C_5
REMARK    4  A    between atoms: C_5  and  N_6
REMARK    5  A    between atoms: N_6  and  C_7
REMARK    6  A    between atoms: N_6  and  C_8
REMARK    7  A    between atoms: C_12  and  C_13
REMARK                            x       y       z     vdW  Elec       q    Type
REMARK                         _______ _______ _______ _____ _____    ______ ____
ROOT
ATOM      1  C   UNL     1       3.772   5.557  18.631  0.00  0.00    +0.000 C 
ATOM      2  C   UNL     1       3.072   5.950  19.951  0.00  0.00    +0.000 C 
ATOM      3  C   UNL     1       2.049   7.036  19.622  0.00  0.00    +0.000 C 
ATOM      4  C   UNL     1       2.611   7.719  18.415  0.00  0.00    +0.000 C 
ATOM      5  C   UNL     1       2.210   8.824  17.778  0.00  0.00    +0.000 C 
ATOM      6  C   UNL     1       3.662   6.828  17.831  0.00  0.00    +0.000 C 
ATOM      7  O   UNL     1       4.278   7.091  16.807  0.00  0.00    +0.000 OA
ENDROOT
BRANCH   5   8
ATOM      8  C   UNL     1       1.070   9.612  18.225  0.00  0.00    +0.000 A 
ATOM      9  C   UNL     1      -0.185   9.407  17.620  0.00  0.00    +0.000 A 
ATOM     10  C   UNL     1      -1.298  10.158  18.009  0.00  0.00    +0.000 A 
ATOM     11  C   UNL     1      -1.116  11.103  18.996  0.00  0.00    +0.000 A 
ATOM     12  C   UNL     1       0.109  11.308  19.592  0.00  0.00    +0.000 A 
ATOM     13  C   UNL     1       1.223  10.580  19.229  0.00  0.00    +0.000 A 
ATOM     14  O   UNL     1       0.063  12.287  20.536  0.00  0.00    +0.000 OA
ATOM     15  C   UNL     1      -1.323  12.682  20.455  0.00  0.00    +0.000 C 
ATOM     16  O   UNL     1      -2.079  11.922  19.492  0.00  0.00    +0.000 OA
ENDBRANCH   5   8
BRANCH   1  17
ATOM     17  C   UNL     1       5.269   5.200  18.852  0.00  0.00    +0.000 C 
BRANCH  17  19
ATOM     18  C   UNL     1       7.277   4.594  17.444  0.00  0.00    +0.000 C 
ATOM     19  C   UNL     1       5.962   4.527  17.690  0.00  0.00    +0.000 C 
ENDBRANCH  17  19
ENDBRANCH   1  17
BRANCH   1  20
ATOM     20  C   UNL     1       3.083   4.374  17.878  0.00  0.00    +0.000 C 
BRANCH  20  21
ATOM     21  N   UNL     1       2.636   3.146  18.588  0.00  0.00    +0.000 NA
ATOM     22  C   UNL     1       1.189   2.915  18.519  0.00  0.00    +0.000 C 
ATOM     23  C   UNL     1       3.273   1.973  17.959  0.00  0.00    +0.000 C 
ENDBRANCH  20  21
ENDBRANCH   1  20
TORSDOF 5
ENDMDL
MODEL 9
REMARK VINA RESULT:      -7.1      1.917      3.263
REMARK  Name = 
REMARK  7 active torsions:
REMARK  status: ('A' for Active; 'I' for Inactive)
REMARK    1  A    between atoms: C_2  and  C_3
REMARK    2  A    between atoms: C_3  and  C_4
REMARK    3  A    between atoms: C_4  and  C_5
REMARK    4  A    between atoms: C_5  and  N_6
REMARK    5  A    between atoms: N_6  and  C_7
REMARK    6  A    between atoms: N_6  and  C_8
REMARK    7  A    between atoms: C_12  and  C_13
REMARK                            x       y       z     vdW  Elec       q    Type
REMARK                         _______ _______ _______ _____ _____    ______ ____
ROOT
ATOM      1  C   UNL     1       3.442   3.721  17.909  0.00  0.00    +0.000 C 
ATOM      2  C   UNL     1       2.004   4.057  17.457  0.00  0.00    +0.000 C 
ATOM      3  C   UNL     1       1.775   5.544  17.726  0.00  0.00    +0.000 C 
ATOM      4  C   UNL     1       2.680   5.854  18.876  0.00  0.00    +0.000 C 
ATOM      5  C   UNL     1       2.794   6.963  19.615  0.00  0.00    +0.000 C 
ATOM      6  C   UNL     1       3.674   4.742  18.991  0.00  0.00    +0.000 C 
ATOM      7  O   UNL     1       4.580   4.728  19.814  0.00  0.00    +0.000 OA
ENDROOT
BRANCH   5   8
ATOM      8  C   UNL     1       1.954   8.134  19.400  0.00  0.00    +0.000 A 
ATOM      9  C   UNL     1       2.009   8.798  18.160  0.00  0.00    +0.000 A 
ATOM     10  C   UNL     1       1.233   9.936  17.925  0.00  0.00    +0.000 A 
ATOM     11  C   UNL     1       0.424  10.381  18.950  0.00  0.00    +0.000 A 
ATOM     12  C   UNL     1       0.367   9.734  20.165  0.00  0.00    +0.000 A 
ATOM     13  C   UNL     1       1.120   8.609  20.424  0.00  0.00    +0.000 A 
ATOM     14  O   UNL     1      -0.491  10.342  21.029  0.00  0.00    +0.000 OA
ATOM     15  C   UNL     1      -0.953  11.448  20.225  0.00  0.00    +0.000 C 
ATOM     16  O   UNL     1      -0.389  11.468  18.899  0.00  0.00    +0.000 OA
ENDBRANCH   5   8
BRANCH   1  17
ATOM     17  C   UNL     1       3.543   2.288  18.505  0.00  0.00    +0.000 C 
BRANCH  17  19
ATOM     18  C   UNL     1       1.896   2.254  20.420  0.00  0.00    +0.000 C 
ATOM     19  C   UNL     1       2.316   1.793  19.235  0.00  0.00    +0.000 C 
ENDBRANCH  17  19
ENDBRANCH   1  17
BRANCH   1  20
ATOM     20  C   UNL     1       4.511   3.867  16.779  0.00  0.00    +0.000 C 
BRANCH  20  21
ATOM     21  N   UNL     1       5.530   4.950  16.797  0.00  0.00    +0.000 NA
ATOM     22  C   UNL     1       6.905   4.472  16.613  0.00  0.00    +0.000 C 
ATOM     23  C   UNL     1       5.261   5.877  15.681  0.00  0.00    +0.000 C 
ENDBRANCH  20  21
ENDBRANCH   1  20
TORSDOF 5
ENDMDL
