MODEL 1
REMARK VINA RESULT:      -8.5      0.000      0.000
REMARK  Name = 
REMARK  10 active torsions:
REMARK  status: ('A' for Active; 'I' for Inactive)
REMARK    1  A    between atoms: C_1  and  C_2
REMARK    2  A    between atoms: C_2  and  C_3
REMARK    3  A    between atoms: C_2  and  C_4
REMARK    4  A    between atoms: C_2  and  N_5
REMARK    5  A    between atoms: N_5  and  S_6
REMARK    6  A    between atoms: S_6  and  C_9
REMARK    7  A    between atoms: C_15  and  C_16
REMARK    8  A    between atoms: C_15  and  C_17
REMARK    9  A    between atoms: N_19  and  C_20
REMARK   10  A    between atoms: C_20  and  C_21
REMARK                            x       y       z     vdW  Elec       q    Type
REMARK                         _______ _______ _______ _____ _____    ______ ____
ROOT
ATOM      1  C   UNL     1       1.373   7.555  20.553  0.00  0.00    +0.000 A 
ATOM      2  C   UNL     1       2.187   7.954  19.481  0.00  0.00    +0.000 A 
ATOM      3  C   UNL     1       2.850   6.996  18.704  0.00  0.00    +0.000 A 
ATOM      4  C   UNL     1       2.719   5.652  19.019  0.00  0.00    +0.000 A 
ATOM      5  C   UNL     1       1.944   5.271  20.125  0.00  0.00    +0.000 A 
ATOM      6  C   UNL     1       1.264   6.205  20.902  0.00  0.00    +0.000 A 
ATOM      7  C   UNL     1       1.963   3.767  20.256  0.00  0.00    +0.000 C 
ATOM      8  C   UNL     1       0.636   3.168  19.773  0.00  0.00    +0.000 C 
ATOM      9  C   UNL     1       2.281   3.294  21.678  0.00  0.00    +0.000 C 
ATOM     10  C   UNL     1       3.119   3.424  19.269  0.00  0.00    +0.000 C 
ATOM     11  N   UNL     1       3.207   4.549  18.318  0.00  0.00    +0.000 N 
ENDROOT
BRANCH   1  12
ATOM     12  S   UNL     1       0.542   8.780  21.547  0.00  0.00    +0.000 S 
ATOM     13  O   UNL     1       1.494   9.303  22.500  0.00  0.00    +0.000 OA
ATOM     14  O   UNL     1      -0.700   8.167  21.976  0.00  0.00    +0.000 OA
BRANCH  12  15
ATOM     15  N   UNL     1       0.111   9.979  20.448  0.00  0.00    +0.000 NA
ATOM     16  H   UNL     1       0.513   9.802  19.527  0.00  0.00    +0.000 HD
BRANCH  15  18
ATOM     17  C   UNL     1       1.129  12.232  20.702  0.00  0.00    +0.000 C 
ATOM     18  C   UNL     1      -0.149  11.403  20.776  0.00  0.00    +0.000 C 
ATOM     19  C   UNL     1      -0.838  11.548  22.138  0.00  0.00    +0.000 C 
ATOM     20  C   UNL     1      -1.139  11.932  19.718  0.00  0.00    +0.000 C 
ENDBRANCH  15  18
ENDBRANCH  12  15
ENDBRANCH   1  12
BRANCH  11  21
ATOM     21  C   UNL     1       4.367   4.632  17.429  0.00  0.00    +0.000 C 
BRANCH  21  22
ATOM     22  C   UNL     1       5.677   4.680  18.237  0.00  0.00    +0.000 C 
ATOM     23  O   UNL     1       6.035   3.722  18.926  0.00  0.00    +0.000 OA
ATOM     24  N   UNL     1       6.426   5.841  18.156  0.00  0.00    +0.000 N 
ATOM     25  C   UNL     1       6.162   6.992  17.314  0.00  0.00    +0.000 C 
ATOM     26  C   UNL     1       7.523   7.646  17.158  0.00  0.00    +0.000 C 
ATOM     27  C   UNL     1       8.210   7.365  18.489  0.00  0.00    +0.000 C 
ATOM     28  C   UNL     1       7.634   6.025  18.939  0.00  0.00    +0.000 C 
ENDBRANCH  21  22
ENDBRANCH  11  21
TORSDOF 5
ENDMDL
MODEL 2
REMARK VINA RESULT:      -8.1      3.138      7.954
REMARK  Name = 
REMARK  10 active torsions:
REMARK  status: ('A' for Active; 'I' for Inactive)
REMARK    1  A    between atoms: C_1  and  C_2
REMARK    2  A    between atoms: C_2  and  C_3
REMARK    3  A    between atoms: C_2  and  C_4
REMARK    4  A    between atoms: C_2  and  N_5
REMARK    5  A    between atoms: N_5  and  S_6
REMARK    6  A    between atoms: S_6  and  C_9
REMARK    7  A    between atoms: C_15  and  C_16
REMARK    8  A    between atoms: C_15  and  C_17
REMARK    9  A    between atoms: N_19  and  C_20
REMARK   10  A    between atoms: C_20  and  C_21
REMARK                            x       y       z     vdW  Elec       q    Type
REMARK                         _______ _______ _______ _____ _____    ______ ____
ROOT
ATOM      1  C   UNL     1       2.537   7.010  19.038  0.00  0.00    +0.000 A 
ATOM      2  C   UNL     1       2.594   7.904  17.956  0.00  0.00    +0.000 A 
ATOM      3  C   UNL     1       2.004   9.169  18.055  0.00  0.00    +0.000 A 
ATOM      4  C   UNL     1       1.338   9.523  19.219  0.00  0.00    +0.000 A 
ATOM      5  C   UNL     1       1.244   8.600  20.272  0.00  0.00    +0.000 A 
ATOM      6  C   UNL     1       1.836   7.343  20.202  0.00  0.00    +0.000 A 
ATOM      7  C   UNL     1       0.474   9.221  21.414  0.00  0.00    +0.000 C 
ATOM      8  C   UNL     1       1.426   9.630  22.544  0.00  0.00    +0.000 C 
ATOM      9  C   UNL     1      -0.637   8.312  21.949  0.00  0.00    +0.000 C 
ATOM     10  C   UNL     1      -0.110  10.474  20.696  0.00  0.00    +0.000 C 
ATOM     11  N   UNL     1       0.778  10.756  19.553  0.00  0.00    +0.000 N 
ENDROOT
BRANCH   1  12
ATOM     12  S   UNL     1       3.278   5.394  18.902  0.00  0.00    +0.000 S 
ATOM     13  O   UNL     1       4.658   5.499  19.316  0.00  0.00    +0.000 OA
ATOM     14  O   UNL     1       2.918   4.902  17.586  0.00  0.00    +0.000 OA
BRANCH  12  15
ATOM     15  N   UNL     1       2.418   4.452  20.000  0.00  0.00    +0.000 NA
ATOM     16  H   UNL     1       2.260   4.952  20.875  0.00  0.00    +0.000 HD
BRANCH  15  18
ATOM     17  C   UNL     1       3.890   2.453  19.875  0.00  0.00    +0.000 C 
ATOM     18  C   UNL     1       2.474   2.973  20.103  0.00  0.00    +0.000 C 
ATOM     19  C   UNL     1       1.469   2.307  19.155  0.00  0.00    +0.000 C 
ATOM     20  C   UNL     1       2.042   2.608  21.538  0.00  0.00    +0.000 C 
ENDBRANCH  15  18
ENDBRANCH  12  15
ENDBRANCH   1  12
BRANCH  11  21
ATOM     21  C   UNL     1       0.343  11.722  18.543  0.00  0.00    +0.000 C 
BRANCH  21  22
ATOM     22  C   UNL     1      -1.153  12.050  18.703  0.00  0.00    +0.000 C 
ATOM     23  O   UNL     1      -1.525  13.005  19.389  0.00  0.00    +0.000 OA
ATOM     24  N   UNL     1      -2.053  11.226  18.050  0.00  0.00    +0.000 N 
ATOM     25  C   UNL     1      -1.740  10.137  17.146  0.00  0.00    +0.000 C 
ATOM     26  C   UNL     1      -2.989  10.003  16.294  0.00  0.00    +0.000 C 
ATOM     27  C   UNL     1      -4.116  10.378  17.249  0.00  0.00    +0.000 C 
ATOM     28  C   UNL     1      -3.487  11.394  18.199  0.00  0.00    +0.000 C 
ENDBRANCH  21  22
ENDBRANCH  11  21
TORSDOF 5
ENDMDL
MODEL 3
REMARK VINA RESULT:      -7.9      3.123      8.128
REMARK  Name = 
REMARK  10 active torsions:
REMARK  status: ('A' for Active; 'I' for Inactive)
REMARK    1  A    between atoms: C_1  and  C_2
REMARK    2  A    between atoms: C_2  and  C_3
REMARK    3  A    between atoms: C_2  and  C_4
REMARK    4  A    between atoms: C_2  and  N_5
REMARK    5  A    between atoms: N_5  and  S_6
REMARK    6  A    between atoms: S_6  and  C_9
REMARK    7  A    between atoms: C_15  and  C_16
REMARK    8  A    between atoms: C_15  and  C_17
REMARK    9  A    between atoms: N_19  and  C_20
REMARK   10  A    between atoms: C_20  and  C_21
REMARK                            x       y       z     vdW  Elec       q    Type
REMARK                         _______ _______ _______ _____ _____    ______ ____
ROOT
ATOM      1  C   UNL     1       2.556   7.247  18.789  0.00  0.00    +0.000 A 
ATOM      2  C   UNL     1       2.452   8.190  17.754  0.00  0.00    +0.000 A 
ATOM      3  C   UNL     1       1.762   9.390  17.959  0.00  0.00    +0.000 A 
ATOM      4  C   UNL     1       1.156   9.628  19.184  0.00  0.00    +0.000 A 
ATOM      5  C   UNL     1       1.224   8.654  20.192  0.00  0.00    +0.000 A 
ATOM      6  C   UNL     1       1.917   7.461  20.015  0.00  0.00    +0.000 A 
ATOM      7  C   UNL     1       0.489   9.149  21.416  0.00  0.00    +0.000 C 
ATOM      8  C   UNL     1       1.483   9.593  22.496  0.00  0.00    +0.000 C 
ATOM      9  C   UNL     1      -0.493   8.118  21.981  0.00  0.00    +0.000 C 
ATOM     10  C   UNL     1      -0.256  10.374  20.807  0.00  0.00    +0.000 C 
ATOM     11  N   UNL     1       0.516  10.788  19.621  0.00  0.00    +0.000 N 
ENDROOT
BRANCH   1  12
ATOM     12  S   UNL     1       3.425   5.714  18.517  0.00  0.00    +0.000 S 
ATOM     13  O   UNL     1       4.245   5.454  19.678  0.00  0.00    +0.000 OA
ATOM     14  O   UNL     1       4.001   5.814  17.190  0.00  0.00    +0.000 OA
BRANCH  12  15
ATOM     15  N   UNL     1       2.203   4.562  18.406  0.00  0.00    +0.000 NA
ATOM     16  H   UNL     1       1.387   4.931  17.918  0.00  0.00    +0.000 HD
BRANCH  15  18
ATOM     17  C   UNL     1       1.330   4.047  20.675  0.00  0.00    +0.000 C 
ATOM     18  C   UNL     1       1.934   3.486  19.392  0.00  0.00    +0.000 C 
ATOM     19  C   UNL     1       3.193   2.657  19.676  0.00  0.00    +0.000 C 
ATOM     20  C   UNL     1       0.910   2.532  18.744  0.00  0.00    +0.000 C 
ENDBRANCH  15  18
ENDBRANCH  12  15
ENDBRANCH   1  12
BRANCH  11  21
ATOM     21  C   UNL     1      -0.077  11.755  18.695  0.00  0.00    +0.000 C 
BRANCH  21  22
ATOM     22  C   UNL     1      -1.470  11.290  18.232  0.00  0.00    +0.000 C 
ATOM     23  O   UNL     1      -1.596  10.415  17.372  0.00  0.00    +0.000 OA
ATOM     24  N   UNL     1      -2.566  11.898  18.819  0.00  0.00    +0.000 N 
ATOM     25  C   UNL     1      -2.552  12.866  19.899  0.00  0.00    +0.000 C 
ATOM     26  C   UNL     1      -3.927  12.727  20.529  0.00  0.00    +0.000 C 
ATOM     27  C   UNL     1      -4.826  12.378  19.349  0.00  0.00    +0.000 C 
ATOM     28  C   UNL     1      -3.922  11.595  18.399  0.00  0.00    +0.000 C 
ENDBRANCH  21  22
ENDBRANCH  11  21
TORSDOF 5
ENDMDL
MODEL 4
REMARK VINA RESULT:      -7.8      3.200      7.727
REMARK  Name = 
REMARK  10 active torsions:
REMARK  status: ('A' for Active; 'I' for Inactive)
REMARK    1  A    between atoms: C_1  and  C_2
REMARK    2  A    between atoms: C_2  and  C_3
REMARK    3  A    between atoms: C_2  and  C_4
REMARK    4  A    between atoms: C_2  and  N_5
REMARK    5  A    between atoms: N_5  and  S_6
REMARK    6  A    between atoms: S_6  and  C_9
REMARK    7  A    between atoms: C_15  and  C_16
REMARK    8  A    between atoms: C_15  and  C_17
REMARK    9  A    between atoms: N_19  and  C_20
REMARK   10  A    between atoms: C_20  and  C_21
REMARK                            x       y       z     vdW  Elec       q    Type
REMARK                         _______ _______ _______ _____ _____    ______ ____
ROOT
ATOM      1  C   UNL     1       2.572   7.068  18.839  0.00  0.00    +0.000 A 
ATOM      2  C   UNL     1       2.645   8.018  17.807  0.00  0.00    +0.000 A 
ATOM      3  C   UNL     1       2.080   9.287  17.976  0.00  0.00    +0.000 A 
ATOM      4  C   UNL     1       1.422   9.589  19.158  0.00  0.00    +0.000 A 
ATOM      5  C   UNL     1       1.311   8.613  20.160  0.00  0.00    +0.000 A 
ATOM      6  C   UNL     1       1.879   7.350  20.020  0.00  0.00    +0.000 A 
ATOM      7  C   UNL     1       0.554   9.185  21.335  0.00  0.00    +0.000 C 
ATOM      8  C   UNL     1       1.515   9.515  22.484  0.00  0.00    +0.000 C 
ATOM      9  C   UNL     1      -0.573   8.270  21.823  0.00  0.00    +0.000 C 
ATOM     10  C   UNL     1      -0.007  10.487  20.688  0.00  0.00    +0.000 C 
ATOM     11  N   UNL     1       0.886  10.814  19.560  0.00  0.00    +0.000 N 
ENDROOT
BRANCH   1  12
ATOM     12  S   UNL     1       3.282   5.448  18.613  0.00  0.00    +0.000 S 
ATOM     13  O   UNL     1       4.134   5.172  19.747  0.00  0.00    +0.000 OA
ATOM     14  O   UNL     1       3.796   5.425  17.257  0.00  0.00    +0.000 OA
BRANCH  12  15
ATOM     15  N   UNL     1       1.956   4.412  18.624  0.00  0.00    +0.000 NA
ATOM     16  H   UNL     1       1.083   4.922  18.488  0.00  0.00    +0.000 HD
BRANCH  15  18
ATOM     17  C   UNL     1       1.565   3.415  20.867  0.00  0.00    +0.000 C 
ATOM     18  C   UNL     1       1.851   3.147  19.393  0.00  0.00    +0.000 C 
ATOM     19  C   UNL     1       3.097   2.273  19.209  0.00  0.00    +0.000 C 
ATOM     20  C   UNL     1       0.664   2.360  18.799  0.00  0.00    +0.000 C 
ENDBRANCH  15  18
ENDBRANCH  12  15
ENDBRANCH   1  12
BRANCH  11  21
ATOM     21  C   UNL     1       0.469  11.841  18.605  0.00  0.00    +0.000 C 
BRANCH  21  22
ATOM     22  C   UNL     1       1.517  12.966  18.514  0.00  0.00    +0.000 C 
ATOM     23  O   UNL     1       2.690  12.719  18.222  0.00  0.00    +0.000 OA
ATOM     24  N   UNL     1       1.086  14.254  18.775  0.00  0.00    +0.000 N 
ATOM     25  C   UNL     1      -0.275  14.682  19.035  0.00  0.00    +0.000 C 
ATOM     26  C   UNL     1      -0.274  16.151  18.652  0.00  0.00    +0.000 C 
ATOM     27  C   UNL     1       1.134  16.612  19.011  0.00  0.00    +0.000 C 
ATOM     28  C   UNL     1       2.005  15.376  18.798  0.00  0.00    +0.000 C 
ENDBRANCH  21  22
ENDBRANCH  11  21
TORSDOF 5
ENDMDL
MODEL 5
REMARK VINA RESULT:      -7.7      3.136      8.096
REMARK  Name = 
REMARK  10 active torsions:
REMARK  status: ('A' for Active; 'I' for Inactive)
REMARK    1  A    between atoms: C_1  and  C_2
REMARK    2  A    between atoms: C_2  and  C_3
REMARK    3  A    between atoms: C_2  and  C_4
REMARK    4  A    between atoms: C_2  and  N_5
REMARK    5  A    between atoms: N_5  and  S_6
REMARK    6  A    between atoms: S_6  and  C_9
REMARK    7  A    between atoms: C_15  and  C_16
REMARK    8  A    between atoms: C_15  and  C_17
REMARK    9  A    between atoms: N_19  and  C_20
REMARK   10  A    between atoms: C_20  and  C_21
REMARK                            x       y       z     vdW  Elec       q    Type
REMARK                         _______ _______ _______ _____ _____    ______ ____
ROOT
ATOM      1  C   UNL     1       2.559   7.075  18.910  0.00  0.00    +0.000 A 
ATOM      2  C   UNL     1       2.479   7.982  17.842  0.00  0.00    +0.000 A 
ATOM      3  C   UNL     1       1.809   9.201  18.001  0.00  0.00    +0.000 A 
ATOM      4  C   UNL     1       1.200   9.492  19.212  0.00  0.00    +0.000 A 
ATOM      5  C   UNL     1       1.244   8.553  20.254  0.00  0.00    +0.000 A 
ATOM      6  C   UNL     1       1.917   7.343  20.124  0.00  0.00    +0.000 A 
ATOM      7  C   UNL     1       0.511   9.103  21.455  0.00  0.00    +0.000 C 
ATOM      8  C   UNL     1       1.506   9.567  22.525  0.00  0.00    +0.000 C 
ATOM      9  C   UNL     1      -0.493   8.111  22.048  0.00  0.00    +0.000 C 
ATOM     10  C   UNL     1      -0.208  10.320  20.799  0.00  0.00    +0.000 C 
ATOM     11  N   UNL     1       0.578  10.678  19.603  0.00  0.00    +0.000 N 
ENDROOT
BRANCH   1  12
ATOM     12  S   UNL     1       3.403   5.518  18.698  0.00  0.00    +0.000 S 
ATOM     13  O   UNL     1       4.822   5.782  18.646  0.00  0.00    +0.000 OA
ATOM     14  O   UNL     1       2.719   4.841  17.614  0.00  0.00    +0.000 OA
BRANCH  12  15
ATOM     15  N   UNL     1       3.029   4.653  20.093  0.00  0.00    +0.000 NA
ATOM     16  H   UNL     1       3.708   4.830  20.833  0.00  0.00    +0.000 HD
BRANCH  15  18
ATOM     17  C   UNL     1       3.089   2.301  19.292  0.00  0.00    +0.000 C 
ATOM     18  C   UNL     1       2.352   3.334  20.139  0.00  0.00    +0.000 C 
ATOM     19  C   UNL     1       0.877   3.446  19.736  0.00  0.00    +0.000 C 
ATOM     20  C   UNL     1       2.378   2.870  21.610  0.00  0.00    +0.000 C 
ENDBRANCH  15  18
ENDBRANCH  12  15
ENDBRANCH   1  12
BRANCH  11  21
ATOM     21  C   UNL     1       0.008  11.622  18.641  0.00  0.00    +0.000 C 
BRANCH  21  22
ATOM     22  C   UNL     1      -1.388  11.163  18.180  0.00  0.00    +0.000 C 
ATOM     23  O   UNL     1      -1.518  10.260  17.350  0.00  0.00    +0.000 OA
ATOM     24  N   UNL     1      -2.480  11.808  18.734  0.00  0.00    +0.000 N 
ATOM     25  C   UNL     1      -2.461  12.812  19.780  0.00  0.00    +0.000 C 
ATOM     26  C   UNL     1      -3.843  12.717  20.400  0.00  0.00    +0.000 C 
ATOM     27  C   UNL     1      -4.736  12.340  19.223  0.00  0.00    +0.000 C 
ATOM     28  C   UNL     1      -3.835  11.511  18.311  0.00  0.00    +0.000 C 
ENDBRANCH  21  22
ENDBRANCH  11  21
TORSDOF 5
ENDMDL
MODEL 6
REMARK VINA RESULT:      -7.6      3.168      7.461
REMARK  Name = 
REMARK  10 active torsions:
REMARK  status: ('A' for Active; 'I' for Inactive)
REMARK    1  A    between atoms: C_1  and  C_2
REMARK    2  A    between atoms: C_2  and  C_3
REMARK    3  A    between atoms: C_2  and  C_4
REMARK    4  A    between atoms: C_2  and  N_5
REMARK    5  A    between atoms: N_5  and  S_6
REMARK    6  A    between atoms: S_6  and  C_9
REMARK    7  A    between atoms: C_15  and  C_16
REMARK    8  A    between atoms: C_15  and  C_17
REMARK    9  A    between atoms: N_19  and  C_20
REMARK   10  A    between atoms: C_20  and  C_21
REMARK                            x       y       z     vdW  Elec       q    Type
REMARK                         _______ _______ _______ _____ _____    ______ ____
ROOT
ATOM      1  C   UNL     1       2.530   7.301  18.792  0.00  0.00    +0.000 A 
ATOM      2  C   UNL     1       2.455   8.237  17.748  0.00  0.00    +0.000 A 
ATOM      3  C   UNL     1       1.772   9.445  17.930  0.00  0.00    +0.000 A 
ATOM      4  C   UNL     1       1.144   9.697  19.141  0.00  0.00    +0.000 A 
ATOM      5  C   UNL     1       1.182   8.731  20.157  0.00  0.00    +0.000 A 
ATOM      6  C   UNL     1       1.869   7.531  20.004  0.00  0.00    +0.000 A 
ATOM      7  C   UNL     1       0.428   9.242  21.362  0.00  0.00    +0.000 C 
ATOM      8  C   UNL     1       1.405   9.685  22.459  0.00  0.00    +0.000 C 
ATOM      9  C   UNL     1      -0.575   8.224  21.915  0.00  0.00    +0.000 C 
ATOM     10  C   UNL     1      -0.293  10.469  20.729  0.00  0.00    +0.000 C 
ATOM     11  N   UNL     1       0.505  10.867  19.555  0.00  0.00    +0.000 N 
ENDROOT
BRANCH   1  12
ATOM     12  S   UNL     1       3.391   5.759  18.550  0.00  0.00    +0.000 S 
ATOM     13  O   UNL     1       4.193   5.505  19.724  0.00  0.00    +0.000 OA
ATOM     14  O   UNL     1       3.985   5.839  17.229  0.00  0.00    +0.000 OA
BRANCH  12  15
ATOM     15  N   UNL     1       2.161   4.615  18.434  0.00  0.00    +0.000 NA
ATOM     16  H   UNL     1       1.327   5.007  17.998  0.00  0.00    +0.000 HD
BRANCH  15  18
ATOM     17  C   UNL     1       1.407   3.998  20.721  0.00  0.00    +0.000 C 
ATOM     18  C   UNL     1       1.929   3.494  19.379  0.00  0.00    +0.000 C 
ATOM     19  C   UNL     1       3.187   2.634  19.550  0.00  0.00    +0.000 C 
ATOM     20  C   UNL     1       0.854   2.589  18.744  0.00  0.00    +0.000 C 
ENDBRANCH  15  18
ENDBRANCH  12  15
ENDBRANCH   1  12
BRANCH  11  21
ATOM     21  C   UNL     1      -0.060  11.832  18.611  0.00  0.00    +0.000 C 
BRANCH  21  22
ATOM     22  C   UNL     1       0.142  13.274  19.110  0.00  0.00    +0.000 C 
ATOM     23  O   UNL     1      -0.706  13.829  19.813  0.00  0.00    +0.000 OA
ATOM     24  N   UNL     1       1.309  13.915  18.733  0.00  0.00    +0.000 N 
ATOM     25  C   UNL     1       2.417  13.343  17.992  0.00  0.00    +0.000 C 
ATOM     26  C   UNL     1       3.600  14.213  18.379  0.00  0.00    +0.000 C 
ATOM     27  C   UNL     1       2.978  15.590  18.581  0.00  0.00    +0.000 C 
ATOM     28  C   UNL     1       1.564  15.301  19.078  0.00  0.00    +0.000 C 
ENDBRANCH  21  22
ENDBRANCH  11  21
TORSDOF 5
ENDMDL
MODEL 7
REMARK VINA RESULT:      -7.6      2.761      7.937
REMARK  Name = 
REMARK  10 active torsions:
REMARK  status: ('A' for Active; 'I' for Inactive)
REMARK    1  A    between atoms: C_1  and  C_2
REMARK    2  A    between atoms: C_2  and  C_3
REMARK    3  A    between atoms: C_2  and  C_4
REMARK    4  A    between atoms: C_2  and  N_5
REMARK    5  A    between atoms: N_5  and  S_6
REMARK    6  A    between atoms: S_6  and  C_9
REMARK    7  A    between atoms: C_15  and  C_16
REMARK    8  A    between atoms: C_15  and  C_17
REMARK    9  A    between atoms: N_19  and  C_20
REMARK   10  A    between atoms: C_20  and  C_21
REMARK                            x       y       z     vdW  Elec       q    Type
REMARK                         _______ _______ _______ _____ _____    ______ ____
ROOT
ATOM      1  C   UNL     1       2.682   6.982  18.914  0.00  0.00    +0.000 A 
ATOM      2  C   UNL     1       2.745   7.910  17.862  0.00  0.00    +0.000 A 
ATOM      3  C   UNL     1       2.146   9.168  17.994  0.00  0.00    +0.000 A 
ATOM      4  C   UNL     1       1.464   9.480  19.161  0.00  0.00    +0.000 A 
ATOM      5  C   UNL     1       1.364   8.524  20.183  0.00  0.00    +0.000 A 
ATOM      6  C   UNL     1       1.965   7.274  20.079  0.00  0.00    +0.000 A 
ATOM      7  C   UNL     1       0.577   9.103  21.335  0.00  0.00    +0.000 C 
ATOM      8  C   UNL     1       1.514   9.483  22.488  0.00  0.00    +0.000 C 
ATOM      9  C   UNL     1      -0.533   8.170  21.828  0.00  0.00    +0.000 C 
ATOM     10  C   UNL     1      -0.007  10.375  20.650  0.00  0.00    +0.000 C 
ATOM     11  N   UNL     1       0.892  10.699  19.527  0.00  0.00    +0.000 N 
ENDROOT
BRANCH   1  12
ATOM     12  S   UNL     1       3.436   5.377  18.735  0.00  0.00    +0.000 S 
ATOM     13  O   UNL     1       3.324   4.982  17.349  0.00  0.00    +0.000 OA
ATOM     14  O   UNL     1       2.888   4.560  19.801  0.00  0.00    +0.000 OA
BRANCH  12  15
ATOM     15  N   UNL     1       5.051   5.633  19.132  0.00  0.00    +0.000 NA
ATOM     16  H   UNL     1       5.142   6.229  19.955  0.00  0.00    +0.000 HD
BRANCH  15  18
ATOM     17  C   UNL     1       6.070   6.884  17.241  0.00  0.00    +0.000 C 
ATOM     18  C   UNL     1       6.183   5.681  18.172  0.00  0.00    +0.000 C 
ATOM     19  C   UNL     1       6.309   4.370  17.388  0.00  0.00    +0.000 C 
ATOM     20  C   UNL     1       7.471   5.826  19.007  0.00  0.00    +0.000 C 
ENDBRANCH  15  18
ENDBRANCH  12  15
ENDBRANCH   1  12
BRANCH  11  21
ATOM     21  C   UNL     1       0.462  11.694  18.543  0.00  0.00    +0.000 C 
BRANCH  21  22
ATOM     22  C   UNL     1      -1.018  12.066  18.748  0.00  0.00    +0.000 C 
ATOM     23  O   UNL     1      -1.339  13.052  19.416  0.00  0.00    +0.000 OA
ATOM     24  N   UNL     1      -1.963  11.247  18.155  0.00  0.00    +0.000 N 
ATOM     25  C   UNL     1      -1.713  10.122  17.276  0.00  0.00    +0.000 C 
ATOM     26  C   UNL     1      -2.996   9.995  16.474  0.00  0.00    +0.000 C 
ATOM     27  C   UNL     1      -4.075  10.430  17.459  0.00  0.00    +0.000 C 
ATOM     28  C   UNL     1      -3.385  11.458  18.352  0.00  0.00    +0.000 C 
ENDBRANCH  21  22
ENDBRANCH  11  21
TORSDOF 5
ENDMDL
MODEL 8
REMARK VINA RESULT:      -7.6      2.834      8.237
REMARK  Name = 
REMARK  10 active torsions:
REMARK  status: ('A' for Active; 'I' for Inactive)
REMARK    1  A    between atoms: C_1  and  C_2
REMARK    2  A    between atoms: C_2  and  C_3
REMARK    3  A    between atoms: C_2  and  C_4
REMARK    4  A    between atoms: C_2  and  N_5
REMARK    5  A    between atoms: N_5  and  S_6
REMARK    6  A    between atoms: S_6  and  C_9
REMARK    7  A    between atoms: C_15  and  C_16
REMARK    8  A    between atoms: C_15  and  C_17
REMARK    9  A    between atoms: N_19  and  C_20
REMARK   10  A    between atoms: C_20  and  C_21
REMARK                            x       y       z     vdW  Elec       q    Type
REMARK                         _______ _______ _______ _____ _____    ______ ____
ROOT
ATOM      1  C   UNL     1       2.507   7.496  18.699  0.00  0.00    +0.000 A 
ATOM      2  C   UNL     1       2.474   8.501  17.719  0.00  0.00    +0.000 A 
ATOM      3  C   UNL     1       1.823   9.713  17.974  0.00  0.00    +0.000 A 
ATOM      4  C   UNL     1       1.185   9.902  19.192  0.00  0.00    +0.000 A 
ATOM      5  C   UNL     1       1.181   8.869  20.141  0.00  0.00    +0.000 A 
ATOM      6  C   UNL     1       1.835   7.662  19.915  0.00  0.00    +0.000 A 
ATOM      7  C   UNL     1       0.425   9.319  21.368  0.00  0.00    +0.000 C 
ATOM      8  C   UNL     1       1.397   9.660  22.504  0.00  0.00    +0.000 C 
ATOM      9  C   UNL     1      -0.615   8.297  21.838  0.00  0.00    +0.000 C 
ATOM     10  C   UNL     1      -0.253  10.607  20.810  0.00  0.00    +0.000 C 
ATOM     11  N   UNL     1       0.574  11.059  19.676  0.00  0.00    +0.000 N 
ENDROOT
BRANCH   1  12
ATOM     12  S   UNL     1       3.327   5.949  18.363  0.00  0.00    +0.000 S 
ATOM     13  O   UNL     1       2.372   5.062  17.739  0.00  0.00    +0.000 OA
ATOM     14  O   UNL     1       4.007   5.585  19.592  0.00  0.00    +0.000 OA
BRANCH  12  15
ATOM     15  N   UNL     1       4.539   6.353  17.267  0.00  0.00    +0.000 NA
ATOM     16  H   UNL     1       4.267   7.150  16.690  0.00  0.00    +0.000 HD
BRANCH  15  18
ATOM     17  C   UNL     1       5.521   5.549  15.130  0.00  0.00    +0.000 C 
ATOM     18  C   UNL     1       5.500   5.407  16.649  0.00  0.00    +0.000 C 
ATOM     19  C   UNL     1       5.219   3.962  17.077  0.00  0.00    +0.000 C 
ATOM     20  C   UNL     1       6.897   5.769  17.194  0.00  0.00    +0.000 C 
ENDBRANCH  15  18
ENDBRANCH  12  15
ENDBRANCH   1  12
BRANCH  11  21
ATOM     21  C   UNL     1       0.049  12.102  18.792  0.00  0.00    +0.000 C 
BRANCH  21  22
ATOM     22  C   UNL     1      -1.450  12.340  19.052  0.00  0.00    +0.000 C 
ATOM     23  O   UNL     1      -1.827  13.175  19.878  0.00  0.00    +0.000 OA
ATOM     24  N   UNL     1      -2.346  11.578  18.324  0.00  0.00    +0.000 N 
ATOM     25  C   UNL     1      -2.033  10.637  17.266  0.00  0.00    +0.000 C 
ATOM     26  C   UNL     1      -3.311  10.570  16.450  0.00  0.00    +0.000 C 
ATOM     27  C   UNL     1      -4.409  10.762  17.490  0.00  0.00    +0.000 C 
ATOM     28  C   UNL     1      -3.777  11.663  18.549  0.00  0.00    +0.000 C 
ENDBRANCH  21  22
ENDBRANCH  11  21
TORSDOF 5
ENDMDL
MODEL 9
REMARK VINA RESULT:      -7.5      3.173      7.511
REMARK  Name = 
REMARK  10 active torsions:
REMARK  status: ('A' for Active; 'I' for Inactive)
REMARK    1  A    between atoms: C_1  and  C_2
REMARK    2  A    between atoms: C_2  and  C_3
REMARK    3  A    between atoms: C_2  and  C_4
REMARK    4  A    between atoms: C_2  and  N_5
REMARK    5  A    between atoms: N_5  and  S_6
REMARK    6  A    between atoms: S_6  and  C_9
REMARK    7  A    between atoms: C_15  and  C_16
REMARK    8  A    between atoms: C_15  and  C_17
REMARK    9  A    between atoms: N_19  and  C_20
REMARK   10  A    between atoms: C_20  and  C_21
REMARK                            x       y       z     vdW  Elec       q    Type
REMARK                         _______ _______ _______ _____ _____    ______ ____
ROOT
ATOM      1  C   UNL     1       2.524   7.048  19.064  0.00  0.00    +0.000 A 
ATOM      2  C   UNL     1       2.505   7.907  17.953  0.00  0.00    +0.000 A 
ATOM      3  C   UNL     1       1.856   9.145  18.030  0.00  0.00    +0.000 A 
ATOM      4  C   UNL     1       1.208   9.504  19.202  0.00  0.00    +0.000 A 
ATOM      5  C   UNL     1       1.191   8.614  20.287  0.00  0.00    +0.000 A 
ATOM      6  C   UNL     1       1.842   7.385  20.238  0.00  0.00    +0.000 A 
ATOM      7  C   UNL     1       0.425   9.234  21.431  0.00  0.00    +0.000 C 
ATOM      8  C   UNL     1       1.389   9.727  22.518  0.00  0.00    +0.000 C 
ATOM      9  C   UNL     1      -0.622   8.291  22.030  0.00  0.00    +0.000 C 
ATOM     10  C   UNL     1      -0.241  10.433  20.693  0.00  0.00    +0.000 C 
ATOM     11  N   UNL     1       0.598  10.720  19.514  0.00  0.00    +0.000 N 
ENDROOT
BRANCH   1  12
ATOM     12  S   UNL     1       3.341   5.467  18.957  0.00  0.00    +0.000 S 
ATOM     13  O   UNL     1       4.716   5.646  19.360  0.00  0.00    +0.000 OA
ATOM     14  O   UNL     1       2.997   4.931  17.654  0.00  0.00    +0.000 OA
BRANCH  12  15
ATOM     15  N   UNL     1       2.532   4.508  20.079  0.00  0.00    +0.000 NA
ATOM     16  H   UNL     1       2.423   4.991  20.971  0.00  0.00    +0.000 HD
BRANCH  15  18
ATOM     17  C   UNL     1       3.975   2.501  19.824  0.00  0.00    +0.000 C 
ATOM     18  C   UNL     1       2.580   3.027  20.148  0.00  0.00    +0.000 C 
ATOM     19  C   UNL     1       1.514   2.388  19.252  0.00  0.00    +0.000 C 
ATOM     20  C   UNL     1       2.235   2.636  21.600  0.00  0.00    +0.000 C 
ENDBRANCH  15  18
ENDBRANCH  12  15
ENDBRANCH   1  12
BRANCH  11  21
ATOM     21  C   UNL     1       0.086  11.629  18.488  0.00  0.00    +0.000 C 
BRANCH  21  22
ATOM     22  C   UNL     1       0.173  13.093  18.957  0.00  0.00    +0.000 C 
ATOM     23  O   UNL     1      -0.749  13.615  19.589  0.00  0.00    +0.000 OA
ATOM     24  N   UNL     1       1.324  13.791  18.635  0.00  0.00    +0.000 N 
ATOM     25  C   UNL     1       2.508  13.267  17.983  0.00  0.00    +0.000 C 
ATOM     26  C   UNL     1       3.612  14.214  18.419  0.00  0.00    +0.000 C 
ATOM     27  C   UNL     1       2.902  15.557  18.541  0.00  0.00    +0.000 C 
ATOM     28  C   UNL     1       1.477  15.198  18.956  0.00  0.00    +0.000 C 
ENDBRANCH  21  22
ENDBRANCH  11  21
TORSDOF 5
ENDMDL
