MODEL 1
REMARK VINA RESULT:      -8.7      0.000      0.000
REMARK  Name = 
REMARK  13 active torsions:
REMARK  status: ('A' for Active; 'I' for Inactive)
REMARK    1  A    between atoms: C_1  and  C_2
REMARK    2  A    between atoms: C_2  and  C_3
REMARK    3  A    between atoms: C_4  and  C_5
REMARK    4  A    between atoms: C_5  and  C_6
REMARK    5  A    between atoms: C_6  and  C_7
REMARK    6  A    between atoms: C_7  and  C_8
REMARK    7  A    between atoms: C_9  and  C_10
REMARK    8  A    between atoms: C_10  and  O_11
REMARK    9  A    between atoms: O_11  and  N_12
REMARK   10  A    between atoms: C_15  and  O_16
REMARK   11  A    between atoms: C_17  and  O_18
REMARK   12  A    between atoms: N_23  and  C_24
REMARK   13  A    between atoms: C_24  and  C_25
REMARK                            x       y       z     vdW  Elec       q    Type
REMARK                         _______ _______ _______ _____ _____    ______ ____
ROOT
ATOM      1  N   UNL     1       5.657   3.796  18.994  0.00  0.00    +0.000 NA
ATOM      2  C   UNL     1       4.404   4.121  18.899  0.00  0.00    +0.000 C 
ATOM      3  C   UNL     1       3.390   3.025  19.228  0.00  0.00    +0.000 C 
ATOM      4  C   UNL     1       2.298   3.534  20.168  0.00  0.00    +0.000 C 
ATOM      5  C   UNL     1       1.732   4.917  19.752  0.00  0.00    +0.000 C 
ATOM      6  C   UNL     1       2.881   5.938  19.651  0.00  0.00    +0.000 C 
ATOM      7  C   UNL     1       2.561   7.430  19.504  0.00  0.00    +0.000 C 
ATOM      8  C   UNL     1       1.379   8.133  20.132  0.00  0.00    +0.000 C 
ATOM      9  O   UNL     1       0.972   7.964  21.269  0.00  0.00    +0.000 OA
ATOM     10  N   UNL     1       1.052   9.176  19.292  0.00  0.00    +0.000 N 
ATOM     11  C   UNL     1       1.900   9.247  18.212  0.00  0.00    +0.000 C 
ATOM     12  O   UNL     1       2.176  10.218  17.530  0.00  0.00    +0.000 OA
ATOM     13  C   UNL     1       2.481   7.868  18.051  0.00  0.00    +0.000 C 
ATOM     14  C   UNL     1       3.836   7.756  17.369  0.00  0.00    +0.000 C 
ATOM     15  C   UNL     1       4.673   6.601  17.946  0.00  0.00    +0.000 C 
ATOM     16  C   UNL     1       3.788   5.460  18.470  0.00  0.00    +0.000 C 
ENDROOT
BRANCH   4  17
ATOM     17  O   UNL     1       2.781   3.607  21.521  0.00  0.00    +0.000 OA
ATOM     18  H   UNL     1       3.596   4.140  21.547  0.00  0.00    +0.000 HD
ENDBRANCH   4  17
BRANCH   5  19
ATOM     19  O   UNL     1       0.745   5.316  20.684  0.00  0.00    +0.000 OA
ATOM     20  H   UNL     1       0.220   4.523  20.912  0.00  0.00    +0.000 HD
ENDBRANCH   5  19
BRANCH   1  21
ATOM     21  O   UNL     1       6.505   4.846  18.640  0.00  0.00    +0.000 OA
BRANCH  21  22
ATOM     22  C   UNL     1       7.469   4.419  17.677  0.00  0.00    +0.000 C 
BRANCH  22  25
ATOM     23  C   UNL     1       6.189   4.386  15.466  0.00  0.00    +0.000 C 
ATOM     24  C   UNL     1       5.482   3.089  15.770  0.00  0.00    +0.000 C 
ATOM     25  C   UNL     1       7.049   4.942  16.338  0.00  0.00    +0.000 C 
BRANCH  23  26
ATOM     26  C   UNL     1       5.835   5.026  14.126  0.00  0.00    +0.000 C 
BRANCH  26  27
ATOM     27  C   UNL     1       6.826   4.744  12.988  0.00  0.00    +0.000 C 
BRANCH  27  31
ATOM     28  C   UNL     1       5.938   1.340  11.312  0.00  0.00    +0.000 C 
ATOM     29  C   UNL     1       5.792   2.739  11.841  0.00  0.00    +0.000 C 
ATOM     30  C   UNL     1       4.487   3.441  11.579  0.00  0.00    +0.000 C 
ATOM     31  C   UNL     1       6.808   3.317  12.514  0.00  0.00    +0.000 C 
ENDBRANCH  27  31
ENDBRANCH  26  27
ENDBRANCH  23  26
ENDBRANCH  22  25
ENDBRANCH  21  22
ENDBRANCH   1  21
BRANCH  10  32
ATOM     32  C   UNL     1       0.162  10.264  19.675  0.00  0.00    +0.000 C 
BRANCH  32  33
ATOM     33  C   UNL     1      -1.222  10.181  19.015  0.00  0.00    +0.000 C 
ATOM     34  C   UNL     1      -1.248   9.739  17.557  0.00  0.00    +0.000 C 
ATOM     35  C   UNL     1      -2.238  10.668  16.884  0.00  0.00    +0.000 C 
ATOM     36  C   UNL     1      -2.857  11.458  18.012  0.00  0.00    +0.000 C 
ATOM     37  O   UNL     1      -1.895  11.449  19.068  0.00  0.00    +0.000 OA
ENDBRANCH  32  33
ENDBRANCH  10  32
TORSDOF 10
ENDMDL
MODEL 2
REMARK VINA RESULT:      -8.6      1.156      1.725
REMARK  Name = 
REMARK  13 active torsions:
REMARK  status: ('A' for Active; 'I' for Inactive)
REMARK    1  A    between atoms: C_1  and  C_2
REMARK    2  A    between atoms: C_2  and  C_3
REMARK    3  A    between atoms: C_4  and  C_5
REMARK    4  A    between atoms: C_5  and  C_6
REMARK    5  A    between atoms: C_6  and  C_7
REMARK    6  A    between atoms: C_7  and  C_8
REMARK    7  A    between atoms: C_9  and  C_10
REMARK    8  A    between atoms: C_10  and  O_11
REMARK    9  A    between atoms: O_11  and  N_12
REMARK   10  A    between atoms: C_15  and  O_16
REMARK   11  A    between atoms: C_17  and  O_18
REMARK   12  A    between atoms: N_23  and  C_24
REMARK   13  A    between atoms: C_24  and  C_25
REMARK                            x       y       z     vdW  Elec       q    Type
REMARK                         _______ _______ _______ _____ _____    ______ ____
ROOT
ATOM      1  N   UNL     1       5.636   3.819  19.272  0.00  0.00    +0.000 NA
ATOM      2  C   UNL     1       4.380   4.112  19.126  0.00  0.00    +0.000 C 
ATOM      3  C   UNL     1       3.379   3.005  19.461  0.00  0.00    +0.000 C 
ATOM      4  C   UNL     1       2.247   3.520  20.347  0.00  0.00    +0.000 C 
ATOM      5  C   UNL     1       1.665   4.876  19.866  0.00  0.00    +0.000 C 
ATOM      6  C   UNL     1       2.795   5.918  19.767  0.00  0.00    +0.000 C 
ATOM      7  C   UNL     1       2.448   7.396  19.559  0.00  0.00    +0.000 C 
ATOM      8  C   UNL     1       1.232   8.093  20.125  0.00  0.00    +0.000 C 
ATOM      9  O   UNL     1       0.791   7.954  21.254  0.00  0.00    +0.000 OA
ATOM     10  N   UNL     1       0.909   9.100  19.240  0.00  0.00    +0.000 N 
ATOM     11  C   UNL     1       1.790   9.154  18.186  0.00  0.00    +0.000 C 
ATOM     12  O   UNL     1       2.067  10.108  17.480  0.00  0.00    +0.000 OA
ATOM     13  C   UNL     1       2.405   7.783  18.091  0.00  0.00    +0.000 C 
ATOM     14  C   UNL     1       3.785   7.680  17.456  0.00  0.00    +0.000 C 
ATOM     15  C   UNL     1       4.626   6.563  18.098  0.00  0.00    +0.000 C 
ATOM     16  C   UNL     1       3.749   5.421  18.632  0.00  0.00    +0.000 C 
ENDROOT
BRANCH   4  17
ATOM     17  O   UNL     1       2.684   3.649  21.711  0.00  0.00    +0.000 OA
ATOM     18  H   UNL     1       2.009   4.128  22.225  0.00  0.00    +0.000 HD
ENDBRANCH   4  17
BRANCH   5  19
ATOM     19  O   UNL     1       0.640   5.283  20.752  0.00  0.00    +0.000 OA
ATOM     20  H   UNL     1       0.093   4.496  20.949  0.00  0.00    +0.000 HD
ENDBRANCH   5  19
BRANCH   1  21
ATOM     21  O   UNL     1       6.473   4.874  18.910  0.00  0.00    +0.000 OA
BRANCH  21  22
ATOM     22  C   UNL     1       7.595   4.403  18.164  0.00  0.00    +0.000 C 
BRANCH  22  25
ATOM     23  C   UNL     1       6.651   4.467  15.790  0.00  0.00    +0.000 C 
ATOM     24  C   UNL     1       5.686   3.332  16.027  0.00  0.00    +0.000 C 
ATOM     25  C   UNL     1       7.466   4.914  16.761  0.00  0.00    +0.000 C 
BRANCH  23  26
ATOM     26  C   UNL     1       6.608   5.081  14.393  0.00  0.00    +0.000 C 
BRANCH  26  27
ATOM     27  C   UNL     1       5.607   4.431  13.427  0.00  0.00    +0.000 C 
BRANCH  27  31
ATOM     28  C   UNL     1       6.252   1.482  10.964  0.00  0.00    +0.000 C 
ATOM     29  C   UNL     1       5.548   2.596  11.686  0.00  0.00    +0.000 C 
ATOM     30  C   UNL     1       4.165   2.955  11.215  0.00  0.00    +0.000 C 
ATOM     31  C   UNL     1       6.158   3.232  12.707  0.00  0.00    +0.000 C 
ENDBRANCH  27  31
ENDBRANCH  26  27
ENDBRANCH  23  26
ENDBRANCH  22  25
ENDBRANCH  21  22
ENDBRANCH   1  21
BRANCH  10  32
ATOM     32  C   UNL     1      -0.016  10.180  19.557  0.00  0.00    +0.000 C 
BRANCH  32  33
ATOM     33  C   UNL     1       0.540  11.179  20.582  0.00  0.00    +0.000 C 
ATOM     34  C   UNL     1      -0.345  11.470  21.788  0.00  0.00    +0.000 C 
ATOM     35  C   UNL     1      -0.268  12.971  21.977  0.00  0.00    +0.000 C 
ATOM     36  C   UNL     1       0.789  13.430  21.001  0.00  0.00    +0.000 C 
ATOM     37  O   UNL     1       0.819  12.446  19.966  0.00  0.00    +0.000 OA
ENDBRANCH  32  33
ENDBRANCH  10  32
TORSDOF 10
ENDMDL
MODEL 3
REMARK VINA RESULT:      -8.2      0.748      1.202
REMARK  Name = 
REMARK  13 active torsions:
REMARK  status: ('A' for Active; 'I' for Inactive)
REMARK    1  A    between atoms: C_1  and  C_2
REMARK    2  A    between atoms: C_2  and  C_3
REMARK    3  A    between atoms: C_4  and  C_5
REMARK    4  A    between atoms: C_5  and  C_6
REMARK    5  A    between atoms: C_6  and  C_7
REMARK    6  A    between atoms: C_7  and  C_8
REMARK    7  A    between atoms: C_9  and  C_10
REMARK    8  A    between atoms: C_10  and  O_11
REMARK    9  A    between atoms: O_11  and  N_12
REMARK   10  A    between atoms: C_15  and  O_16
REMARK   11  A    between atoms: C_17  and  O_18
REMARK   12  A    between atoms: N_23  and  C_24
REMARK   13  A    between atoms: C_24  and  C_25
REMARK                            x       y       z     vdW  Elec       q    Type
REMARK                         _______ _______ _______ _____ _____    ______ ____
ROOT
ATOM      1  N   UNL     1       5.738   4.196  19.084  0.00  0.00    +0.000 NA
ATOM      2  C   UNL     1       4.466   4.421  18.955  0.00  0.00    +0.000 C 
ATOM      3  C   UNL     1       3.534   3.242  19.240  0.00  0.00    +0.000 C 
ATOM      4  C   UNL     1       2.377   3.648  20.151  0.00  0.00    +0.000 C 
ATOM      5  C   UNL     1       1.714   4.988  19.735  0.00  0.00    +0.000 C 
ATOM      6  C   UNL     1       2.780   6.099  19.682  0.00  0.00    +0.000 C 
ATOM      7  C   UNL     1       2.346   7.562  19.543  0.00  0.00    +0.000 C 
ATOM      8  C   UNL     1       1.093   8.159  20.143  0.00  0.00    +0.000 C 
ATOM      9  O   UNL     1       0.667   7.942  21.264  0.00  0.00    +0.000 OA
ATOM     10  N   UNL     1       0.708   9.185  19.305  0.00  0.00    +0.000 N 
ATOM     11  C   UNL     1       1.579   9.339  18.254  0.00  0.00    +0.000 C 
ATOM     12  O   UNL     1       1.796  10.339  17.592  0.00  0.00    +0.000 OA
ATOM     13  C   UNL     1       2.274   8.013  18.094  0.00  0.00    +0.000 C 
ATOM     14  C   UNL     1       3.654   8.020  17.452  0.00  0.00    +0.000 C 
ATOM     15  C   UNL     1       4.563   6.927  18.041  0.00  0.00    +0.000 C 
ATOM     16  C   UNL     1       3.757   5.712  18.524  0.00  0.00    +0.000 C 
ENDROOT
BRANCH   4  17
ATOM     17  O   UNL     1       2.812   3.740  21.519  0.00  0.00    +0.000 OA
ATOM     18  H   UNL     1       3.713   4.111  21.550  0.00  0.00    +0.000 HD
ENDBRANCH   4  17
BRANCH   5  19
ATOM     19  O   UNL     1       0.672   5.293  20.641  0.00  0.00    +0.000 OA
ATOM     20  H   UNL     1      -0.118   4.790  20.358  0.00  0.00    +0.000 HD
ENDBRANCH   5  19
BRANCH   1  21
ATOM     21  O   UNL     1       6.509   5.315  18.770  0.00  0.00    +0.000 OA
BRANCH  21  22
ATOM     22  C   UNL     1       7.645   4.947  17.988  0.00  0.00    +0.000 C 
BRANCH  22  25
ATOM     23  C   UNL     1       6.524   4.476  15.740  0.00  0.00    +0.000 C 
ATOM     24  C   UNL     1       6.204   5.926  15.474  0.00  0.00    +0.000 C 
ATOM     25  C   UNL     1       7.169   4.090  16.854  0.00  0.00    +0.000 C 
BRANCH  23  26
ATOM     26  C   UNL     1       6.096   3.501  14.647  0.00  0.00    +0.000 C 
BRANCH  26  27
ATOM     27  C   UNL     1       6.387   3.963  13.212  0.00  0.00    +0.000 C 
BRANCH  27  31
ATOM     28  C   UNL     1       3.482   3.072  10.772  0.00  0.00    +0.000 C 
ATOM     29  C   UNL     1       4.785   2.983  11.515  0.00  0.00    +0.000 C 
ATOM     30  C   UNL     1       5.611   1.743  11.308  0.00  0.00    +0.000 C 
ATOM     31  C   UNL     1       5.169   3.987  12.330  0.00  0.00    +0.000 C 
ENDBRANCH  27  31
ENDBRANCH  26  27
ENDBRANCH  23  26
ENDBRANCH  22  25
ENDBRANCH  21  22
ENDBRANCH   1  21
BRANCH  10  32
ATOM     32  C   UNL     1      -0.278  10.192  19.674  0.00  0.00    +0.000 C 
BRANCH  32  33
ATOM     33  C   UNL     1      -1.145  10.657  18.496  0.00  0.00    +0.000 C 
ATOM     34  C   UNL     1      -2.017  11.883  18.744  0.00  0.00    +0.000 C 
ATOM     35  C   UNL     1      -3.356  11.543  18.121  0.00  0.00    +0.000 C 
ATOM     36  C   UNL     1      -3.125  10.238  17.396  0.00  0.00    +0.000 C 
ATOM     37  O   UNL     1      -2.027   9.611  18.060  0.00  0.00    +0.000 OA
ENDBRANCH  32  33
ENDBRANCH  10  32
TORSDOF 10
ENDMDL
MODEL 4
REMARK VINA RESULT:      -8.1      0.981      1.566
REMARK  Name = 
REMARK  13 active torsions:
REMARK  status: ('A' for Active; 'I' for Inactive)
REMARK    1  A    between atoms: C_1  and  C_2
REMARK    2  A    between atoms: C_2  and  C_3
REMARK    3  A    between atoms: C_4  and  C_5
REMARK    4  A    between atoms: C_5  and  C_6
REMARK    5  A    between atoms: C_6  and  C_7
REMARK    6  A    between atoms: C_7  and  C_8
REMARK    7  A    between atoms: C_9  and  C_10
REMARK    8  A    between atoms: C_10  and  O_11
REMARK    9  A    between atoms: O_11  and  N_12
REMARK   10  A    between atoms: C_15  and  O_16
REMARK   11  A    between atoms: C_17  and  O_18
REMARK   12  A    between atoms: N_23  and  C_24
REMARK   13  A    between atoms: C_24  and  C_25
REMARK                            x       y       z     vdW  Elec       q    Type
REMARK                         _______ _______ _______ _____ _____    ______ ____
ROOT
ATOM      1  N   UNL     1       5.513   3.634  18.026  0.00  0.00    +0.000 NA
ATOM      2  C   UNL     1       4.274   4.010  18.121  0.00  0.00    +0.000 C 
ATOM      3  C   UNL     1       3.256   2.921  18.462  0.00  0.00    +0.000 C 
ATOM      4  C   UNL     1       2.310   3.365  19.576  0.00  0.00    +0.000 C 
ATOM      5  C   UNL     1       1.764   4.804  19.376  0.00  0.00    +0.000 C 
ATOM      6  C   UNL     1       2.940   5.789  19.237  0.00  0.00    +0.000 C 
ATOM      7  C   UNL     1       2.677   7.298  19.282  0.00  0.00    +0.000 C 
ATOM      8  C   UNL     1       1.614   7.971  20.120  0.00  0.00    +0.000 C 
ATOM      9  O   UNL     1       1.338   7.697  21.276  0.00  0.00    +0.000 OA
ATOM     10  N   UNL     1       1.237   9.109  19.437  0.00  0.00    +0.000 N 
ATOM     11  C   UNL     1       1.953   9.264  18.273  0.00  0.00    +0.000 C 
ATOM     12  O   UNL     1       2.190  10.292  17.663  0.00  0.00    +0.000 OA
ATOM     13  C   UNL     1       2.443   7.890  17.902  0.00  0.00    +0.000 C 
ATOM     14  C   UNL     1       3.701   7.804  17.049  0.00  0.00    +0.000 C 
ATOM     15  C   UNL     1       4.544   6.566  17.398  0.00  0.00    +0.000 C 
ATOM     16  C   UNL     1       3.675   5.408  17.910  0.00  0.00    +0.000 C 
ENDROOT
BRANCH   4  17
ATOM     17  O   UNL     1       2.955   3.277  20.859  0.00  0.00    +0.000 OA
ATOM     18  H   UNL     1       2.311   3.482  21.561  0.00  0.00    +0.000 HD
ENDBRANCH   4  17
BRANCH   5  19
ATOM     19  O   UNL     1       0.917   5.136  20.459  0.00  0.00    +0.000 OA
ATOM     20  H   UNL     1       0.144   5.610  20.091  0.00  0.00    +0.000 HD
ENDBRANCH   5  19
BRANCH   1  21
ATOM     21  O   UNL     1       6.361   4.684  17.678  0.00  0.00    +0.000 OA
BRANCH  21  22
ATOM     22  C   UNL     1       7.028   4.414  16.445  0.00  0.00    +0.000 C 
BRANCH  22  25
ATOM     23  C   UNL     1       6.000   4.048  14.134  0.00  0.00    +0.000 C 
ATOM     24  C   UNL     1       7.105   4.775  13.409  0.00  0.00    +0.000 C 
ATOM     25  C   UNL     1       6.010   3.903  15.471  0.00  0.00    +0.000 C 
BRANCH  23  26
ATOM     26  C   UNL     1       4.903   3.471  13.244  0.00  0.00    +0.000 C 
BRANCH  26  27
ATOM     27  C   UNL     1       5.314   3.217  11.787  0.00  0.00    +0.000 C 
BRANCH  27  31
ATOM     28  C   UNL     1       2.594   4.594   9.360  0.00  0.00    +0.000 C 
ATOM     29  C   UNL     1       3.348   3.650  10.254  0.00  0.00    +0.000 C 
ATOM     30  C   UNL     1       2.728   2.304  10.511  0.00  0.00    +0.000 C 
ATOM     31  C   UNL     1       4.527   4.023  10.791  0.00  0.00    +0.000 C 
ENDBRANCH  27  31
ENDBRANCH  26  27
ENDBRANCH  23  26
ENDBRANCH  22  25
ENDBRANCH  21  22
ENDBRANCH   1  21
BRANCH  10  32
ATOM     32  C   UNL     1       0.453  10.179  20.035  0.00  0.00    +0.000 C 
BRANCH  32  33
ATOM     33  C   UNL     1      -0.974  10.276  19.477  0.00  0.00    +0.000 C 
ATOM     34  C   UNL     1      -1.119  10.124  17.967  0.00  0.00    +0.000 C 
ATOM     35  C   UNL     1      -2.103  11.201  17.558  0.00  0.00    +0.000 C 
ATOM     36  C   UNL     1      -2.605  11.781  18.858  0.00  0.00    +0.000 C 
ATOM     37  O   UNL     1      -1.577  11.534  19.819  0.00  0.00    +0.000 OA
ENDBRANCH  32  33
ENDBRANCH  10  32
TORSDOF 10
ENDMDL
MODEL 5
REMARK VINA RESULT:      -8.1      1.385      2.166
REMARK  Name = 
REMARK  13 active torsions:
REMARK  status: ('A' for Active; 'I' for Inactive)
REMARK    1  A    between atoms: C_1  and  C_2
REMARK    2  A    between atoms: C_2  and  C_3
REMARK    3  A    between atoms: C_4  and  C_5
REMARK    4  A    between atoms: C_5  and  C_6
REMARK    5  A    between atoms: C_6  and  C_7
REMARK    6  A    between atoms: C_7  and  C_8
REMARK    7  A    between atoms: C_9  and  C_10
REMARK    8  A    between atoms: C_10  and  O_11
REMARK    9  A    between atoms: O_11  and  N_12
REMARK   10  A    between atoms: C_15  and  O_16
REMARK   11  A    between atoms: C_17  and  O_18
REMARK   12  A    between atoms: N_23  and  C_24
REMARK   13  A    between atoms: C_24  and  C_25
REMARK                            x       y       z     vdW  Elec       q    Type
REMARK                         _______ _______ _______ _____ _____    ______ ____
ROOT
ATOM      1  N   UNL     1       5.693   3.738  18.249  0.00  0.00    +0.000 NA
ATOM      2  C   UNL     1       4.430   4.021  18.353  0.00  0.00    +0.000 C 
ATOM      3  C   UNL     1       3.511   2.880  18.790  0.00  0.00    +0.000 C 
ATOM      4  C   UNL     1       2.557   3.320  19.900  0.00  0.00    +0.000 C 
ATOM      5  C   UNL     1       1.893   4.695  19.623  0.00  0.00    +0.000 C 
ATOM      6  C   UNL     1       2.982   5.759  19.389  0.00  0.00    +0.000 C 
ATOM      7  C   UNL     1       2.599   7.242  19.344  0.00  0.00    +0.000 C 
ATOM      8  C   UNL     1       1.503   7.883  20.166  0.00  0.00    +0.000 C 
ATOM      9  O   UNL     1       1.277   7.664  21.344  0.00  0.00    +0.000 OA
ATOM     10  N   UNL     1       1.022   8.939  19.422  0.00  0.00    +0.000 N 
ATOM     11  C   UNL     1       1.696   9.074  18.232  0.00  0.00    +0.000 C 
ATOM     12  O   UNL     1       1.837  10.074  17.551  0.00  0.00    +0.000 OA
ATOM     13  C   UNL     1       2.288   7.721  17.937  0.00  0.00    +0.000 C 
ATOM     14  C   UNL     1       3.529   7.679  17.057  0.00  0.00    +0.000 C 
ATOM     15  C   UNL     1       4.477   6.537  17.461  0.00  0.00    +0.000 C 
ATOM     16  C   UNL     1       3.716   5.350  18.069  0.00  0.00    +0.000 C 
ENDROOT
BRANCH   4  17
ATOM     17  O   UNL     1       3.235   3.368  21.167  0.00  0.00    +0.000 OA
ATOM     18  H   UNL     1       3.901   4.080  21.153  0.00  0.00    +0.000 HD
ENDBRANCH   4  17
BRANCH   5  19
ATOM     19  O   UNL     1       1.046   5.029  20.705  0.00  0.00    +0.000 OA
ATOM     20  H   UNL     1       0.159   5.218  20.335  0.00  0.00    +0.000 HD
ENDBRANCH   5  19
BRANCH   1  21
ATOM     21  O   UNL     1       6.446   4.828  17.811  0.00  0.00    +0.000 OA
BRANCH  21  22
ATOM     22  C   UNL     1       7.106   4.529  16.581  0.00  0.00    +0.000 C 
BRANCH  22  25
ATOM     23  C   UNL     1       6.174   4.253  14.218  0.00  0.00    +0.000 C 
ATOM     24  C   UNL     1       7.473   4.620  13.546  0.00  0.00    +0.000 C 
ATOM     25  C   UNL     1       6.059   4.215  15.557  0.00  0.00    +0.000 C 
BRANCH  23  26
ATOM     26  C   UNL     1       5.027   3.901  13.275  0.00  0.00    +0.000 C 
BRANCH  26  27
ATOM     27  C   UNL     1       5.452   3.480  11.861  0.00  0.00    +0.000 C 
BRANCH  27  31
ATOM     28  C   UNL     1       6.030  -0.302  11.124  0.00  0.00    +0.000 C 
ATOM     29  C   UNL     1       6.289   1.173  11.243  0.00  0.00    +0.000 C 
ATOM     30  C   UNL     1       7.686   1.652  10.955  0.00  0.00    +0.000 C 
ATOM     31  C   UNL     1       5.291   2.009  11.597  0.00  0.00    +0.000 C 
ENDBRANCH  27  31
ENDBRANCH  26  27
ENDBRANCH  23  26
ENDBRANCH  22  25
ENDBRANCH  21  22
ENDBRANCH   1  21
BRANCH  10  32
ATOM     32  C   UNL     1       0.167   9.982  19.972  0.00  0.00    +0.000 C 
BRANCH  32  33
ATOM     33  C   UNL     1       0.941  11.075  20.722  0.00  0.00    +0.000 C 
ATOM     34  C   UNL     1       0.159  11.857  21.770  0.00  0.00    +0.000 C 
ATOM     35  C   UNL     1       0.563  13.302  21.562  0.00  0.00    +0.000 C 
ATOM     36  C   UNL     1       1.679  13.250  20.546  0.00  0.00    +0.000 C 
ATOM     37  O   UNL     1       1.479  12.043  19.808  0.00  0.00    +0.000 OA
ENDBRANCH  32  33
ENDBRANCH  10  32
TORSDOF 10
ENDMDL
MODEL 6
REMARK VINA RESULT:      -8.0      3.018      4.825
REMARK  Name = 
REMARK  13 active torsions:
REMARK  status: ('A' for Active; 'I' for Inactive)
REMARK    1  A    between atoms: C_1  and  C_2
REMARK    2  A    between atoms: C_2  and  C_3
REMARK    3  A    between atoms: C_4  and  C_5
REMARK    4  A    between atoms: C_5  and  C_6
REMARK    5  A    between atoms: C_6  and  C_7
REMARK    6  A    between atoms: C_7  and  C_8
REMARK    7  A    between atoms: C_9  and  C_10
REMARK    8  A    between atoms: C_10  and  O_11
REMARK    9  A    between atoms: O_11  and  N_12
REMARK   10  A    between atoms: C_15  and  O_16
REMARK   11  A    between atoms: C_17  and  O_18
REMARK   12  A    between atoms: N_23  and  C_24
REMARK   13  A    between atoms: C_24  and  C_25
REMARK                            x       y       z     vdW  Elec       q    Type
REMARK                         _______ _______ _______ _____ _____    ______ ____
ROOT
ATOM      1  N   UNL     1       5.274   3.744  17.677  0.00  0.00    +0.000 NA
ATOM      2  C   UNL     1       4.044   4.094  17.902  0.00  0.00    +0.000 C 
ATOM      3  C   UNL     1       3.068   2.969  18.245  0.00  0.00    +0.000 C 
ATOM      4  C   UNL     1       2.215   3.317  19.464  0.00  0.00    +0.000 C 
ATOM      5  C   UNL     1       1.642   4.758  19.415  0.00  0.00    +0.000 C 
ATOM      6  C   UNL     1       2.794   5.768  19.251  0.00  0.00    +0.000 C 
ATOM      7  C   UNL     1       2.522   7.266  19.428  0.00  0.00    +0.000 C 
ATOM      8  C   UNL     1       1.527   7.861  20.398  0.00  0.00    +0.000 C 
ATOM      9  O   UNL     1       1.352   7.501  21.550  0.00  0.00    +0.000 OA
ATOM     10  N   UNL     1       1.085   9.039  19.834  0.00  0.00    +0.000 N 
ATOM     11  C   UNL     1       1.698   9.289  18.629  0.00  0.00    +0.000 C 
ATOM     12  O   UNL     1       1.875  10.361  18.078  0.00  0.00    +0.000 OA
ATOM     13  C   UNL     1       2.168   7.952  18.120  0.00  0.00    +0.000 C 
ATOM     14  C   UNL     1       3.350   7.947  17.161  0.00  0.00    +0.000 C 
ATOM     15  C   UNL     1       4.231   6.699  17.347  0.00  0.00    +0.000 C 
ATOM     16  C   UNL     1       3.418   5.494  17.844  0.00  0.00    +0.000 C 
ENDROOT
BRANCH   4  17
ATOM     17  O   UNL     1       2.966   3.146  20.679  0.00  0.00    +0.000 OA
ATOM     18  H   UNL     1       3.529   2.355  20.604  0.00  0.00    +0.000 HD
ENDBRANCH   4  17
BRANCH   5  19
ATOM     19  O   UNL     1       0.886   4.999  20.586  0.00  0.00    +0.000 OA
ATOM     20  H   UNL     1       0.217   5.679  20.368  0.00  0.00    +0.000 HD
ENDBRANCH   5  19
BRANCH   1  21
ATOM     21  O   UNL     1       6.081   4.829  17.337  0.00  0.00    +0.000 OA
BRANCH  21  22
ATOM     22  C   UNL     1       7.438   4.593  17.713  0.00  0.00    +0.000 C 
BRANCH  22  25
ATOM     23  C   UNL     1       7.987   7.031  18.244  0.00  0.00    +0.000 C 
ATOM     24  C   UNL     1       7.612   7.528  16.870  0.00  0.00    +0.000 C 
ATOM     25  C   UNL     1       7.885   5.732  18.577  0.00  0.00    +0.000 C 
BRANCH  23  26
ATOM     26  C   UNL     1       8.452   8.106  19.224  0.00  0.00    +0.000 C 
BRANCH  26  27
ATOM     27  C   UNL     1       8.835   9.447  18.583  0.00  0.00    +0.000 C 
BRANCH  27  31
ATOM     28  C   UNL     1      10.860  12.362  20.191  0.00  0.00    +0.000 C 
ATOM     29  C   UNL     1      10.323  11.412  19.159  0.00  0.00    +0.000 C 
ATOM     30  C   UNL     1      10.714  11.658  17.727  0.00  0.00    +0.000 C 
ATOM     31  C   UNL     1       9.525  10.390  19.530  0.00  0.00    +0.000 C 
ENDBRANCH  27  31
ENDBRANCH  26  27
ENDBRANCH  23  26
ENDBRANCH  22  25
ENDBRANCH  21  22
ENDBRANCH   1  21
BRANCH  10  32
ATOM     32  C   UNL     1       0.344  10.053  20.572  0.00  0.00    +0.000 C 
BRANCH  32  33
ATOM     33  C   UNL     1      -0.458  11.001  19.670  0.00  0.00    +0.000 C 
ATOM     34  C   UNL     1      -1.090  12.208  20.353  0.00  0.00    +0.000 C 
ATOM     35  C   UNL     1      -2.484  12.304  19.768  0.00  0.00    +0.000 C 
ATOM     36  C   UNL     1      -2.510  11.278  18.660  0.00  0.00    +0.000 C 
ATOM     37  O   UNL     1      -1.524  10.304  19.007  0.00  0.00    +0.000 OA
ENDBRANCH  32  33
ENDBRANCH  10  32
TORSDOF 10
ENDMDL
MODEL 7
REMARK VINA RESULT:      -8.0      3.654      5.965
REMARK  Name = 
REMARK  13 active torsions:
REMARK  status: ('A' for Active; 'I' for Inactive)
REMARK    1  A    between atoms: C_1  and  C_2
REMARK    2  A    between atoms: C_2  and  C_3
REMARK    3  A    between atoms: C_4  and  C_5
REMARK    4  A    between atoms: C_5  and  C_6
REMARK    5  A    between atoms: C_6  and  C_7
REMARK    6  A    between atoms: C_7  and  C_8
REMARK    7  A    between atoms: C_9  and  C_10
REMARK    8  A    between atoms: C_10  and  O_11
REMARK    9  A    between atoms: O_11  and  N_12
REMARK   10  A    between atoms: C_15  and  O_16
REMARK   11  A    between atoms: C_17  and  O_18
REMARK   12  A    between atoms: N_23  and  C_24
REMARK   13  A    between atoms: C_24  and  C_25
REMARK                            x       y       z     vdW  Elec       q    Type
REMARK                         _______ _______ _______ _____ _____    ______ ____
ROOT
ATOM      1  N   UNL     1       1.270   7.264  21.033  0.00  0.00    +0.000 NA
ATOM      2  C   UNL     1       0.566   8.354  21.059  0.00  0.00    +0.000 C 
ATOM      3  C   UNL     1      -0.585   8.397  22.065  0.00  0.00    +0.000 C 
ATOM      4  C   UNL     1      -0.587   9.702  22.860  0.00  0.00    +0.000 C 
ATOM      5  C   UNL     1      -0.379  10.957  21.972  0.00  0.00    +0.000 C 
ATOM      6  C   UNL     1       0.928  10.813  21.169  0.00  0.00    +0.000 C 
ATOM      7  C   UNL     1       1.491  12.019  20.410  0.00  0.00    +0.000 C 
ATOM      8  C   UNL     1       1.391  13.458  20.864  0.00  0.00    +0.000 C 
ATOM      9  O   UNL     1       1.558  13.857  22.004  0.00  0.00    +0.000 OA
ATOM     10  N   UNL     1       1.367  14.229  19.722  0.00  0.00    +0.000 N 
ATOM     11  C   UNL     1       1.468  13.462  18.586  0.00  0.00    +0.000 C 
ATOM     12  O   UNL     1       1.883  13.788  17.488  0.00  0.00    +0.000 OA
ATOM     13  C   UNL     1       0.999  12.085  18.974  0.00  0.00    +0.000 C 
ATOM     14  C   UNL     1       1.526  10.913  18.159  0.00  0.00    +0.000 C 
ATOM     15  C   UNL     1       1.706   9.652  19.023  0.00  0.00    +0.000 C 
ATOM     16  C   UNL     1       0.709   9.612  20.191  0.00  0.00    +0.000 C 
ENDROOT
BRANCH   4  17
ATOM     17  O   UNL     1       0.419   9.677  23.888  0.00  0.00    +0.000 OA
ATOM     18  H   UNL     1       0.131  10.226  24.639  0.00  0.00    +0.000 HD
ENDBRANCH   4  17
BRANCH   5  19
ATOM     19  O   UNL     1      -0.376  12.112  22.790  0.00  0.00    +0.000 OA
ATOM     20  H   UNL     1      -0.381  11.811  23.721  0.00  0.00    +0.000 HD
ENDBRANCH   5  19
BRANCH   1  21
ATOM     21  O   UNL     1       2.271   7.302  20.062  0.00  0.00    +0.000 OA
BRANCH  21  22
ATOM     22  C   UNL     1       2.820   6.002  19.845  0.00  0.00    +0.000 C 
BRANCH  22  25
ATOM     23  C   UNL     1       4.171   4.999  17.922  0.00  0.00    +0.000 C 
ATOM     24  C   UNL     1       4.387   3.679  18.619  0.00  0.00    +0.000 C 
ATOM     25  C   UNL     1       3.466   5.992  18.493  0.00  0.00    +0.000 C 
BRANCH  23  26
ATOM     26  C   UNL     1       4.777   5.109  16.525  0.00  0.00    +0.000 C 
BRANCH  26  27
ATOM     27  C   UNL     1       6.311   5.172  16.485  0.00  0.00    +0.000 C 
BRANCH  27  31
ATOM     28  C   UNL     1       8.141   8.283  17.952  0.00  0.00    +0.000 C 
ATOM     29  C   UNL     1       7.530   6.914  17.857  0.00  0.00    +0.000 C 
ATOM     30  C   UNL     1       7.705   6.000  19.039  0.00  0.00    +0.000 C 
ATOM     31  C   UNL     1       6.862   6.547  16.744  0.00  0.00    +0.000 C 
ENDBRANCH  27  31
ENDBRANCH  26  27
ENDBRANCH  23  26
ENDBRANCH  22  25
ENDBRANCH  21  22
ENDBRANCH   1  21
BRANCH  10  32
ATOM     32  C   UNL     1       1.566  15.672  19.726  0.00  0.00    +0.000 C 
BRANCH  32  33
ATOM     33  C   UNL     1       0.255  16.470  19.675  0.00  0.00    +0.000 C 
ATOM     34  C   UNL     1      -0.266  16.821  18.286  0.00  0.00    +0.000 C 
ATOM     35  C   UNL     1      -0.717  18.264  18.391  0.00  0.00    +0.000 C 
ATOM     36  C   UNL     1      -0.606  18.598  19.860  0.00  0.00    +0.000 C 
ATOM     37  O   UNL     1       0.378  17.709  20.389  0.00  0.00    +0.000 OA
ENDBRANCH  32  33
ENDBRANCH  10  32
TORSDOF 10
ENDMDL
MODEL 8
REMARK VINA RESULT:      -7.9      2.886      4.600
REMARK  Name = 
REMARK  13 active torsions:
REMARK  status: ('A' for Active; 'I' for Inactive)
REMARK    1  A    between atoms: C_1  and  C_2
REMARK    2  A    between atoms: C_2  and  C_3
REMARK    3  A    between atoms: C_4  and  C_5
REMARK    4  A    between atoms: C_5  and  C_6
REMARK    5  A    between atoms: C_6  and  C_7
REMARK    6  A    between atoms: C_7  and  C_8
REMARK    7  A    between atoms: C_9  and  C_10
REMARK    8  A    between atoms: C_10  and  O_11
REMARK    9  A    between atoms: O_11  and  N_12
REMARK   10  A    between atoms: C_15  and  O_16
REMARK   11  A    between atoms: C_17  and  O_18
REMARK   12  A    between atoms: N_23  and  C_24
REMARK   13  A    between atoms: C_24  and  C_25
REMARK                            x       y       z     vdW  Elec       q    Type
REMARK                         _______ _______ _______ _____ _____    ______ ____
ROOT
ATOM      1  N   UNL     1       5.227   3.798  17.814  0.00  0.00    +0.000 NA
ATOM      2  C   UNL     1       4.000   4.173  18.009  0.00  0.00    +0.000 C 
ATOM      3  C   UNL     1       2.998   3.072  18.356  0.00  0.00    +0.000 C 
ATOM      4  C   UNL     1       2.129   3.460  19.551  0.00  0.00    +0.000 C 
ATOM      5  C   UNL     1       1.582   4.909  19.462  0.00  0.00    +0.000 C 
ATOM      6  C   UNL     1       2.754   5.896  19.300  0.00  0.00    +0.000 C 
ATOM      7  C   UNL     1       2.505   7.401  19.441  0.00  0.00    +0.000 C 
ATOM      8  C   UNL     1       1.502   8.034  20.380  0.00  0.00    +0.000 C 
ATOM      9  O   UNL     1       1.300   7.700  21.535  0.00  0.00    +0.000 OA
ATOM     10  N   UNL     1       1.092   9.207  19.783  0.00  0.00    +0.000 N 
ATOM     11  C   UNL     1       1.732   9.421  18.586  0.00  0.00    +0.000 C 
ATOM     12  O   UNL     1       1.938  10.479  18.017  0.00  0.00    +0.000 OA
ATOM     13  C   UNL     1       2.188   8.067  18.112  0.00  0.00    +0.000 C 
ATOM     14  C   UNL     1       3.387   8.022  17.177  0.00  0.00    +0.000 C 
ATOM     15  C   UNL     1       4.242   6.763  17.405  0.00  0.00    +0.000 C 
ATOM     16  C   UNL     1       3.399   5.583  17.910  0.00  0.00    +0.000 C 
ENDROOT
BRANCH   4  17
ATOM     17  O   UNL     1       2.854   3.301  20.783  0.00  0.00    +0.000 OA
ATOM     18  H   UNL     1       3.791   3.122  20.588  0.00  0.00    +0.000 HD
ENDBRANCH   4  17
BRANCH   5  19
ATOM     19  O   UNL     1       0.808   5.187  20.613  0.00  0.00    +0.000 OA
ATOM     20  H   UNL     1       0.192   5.912  20.384  0.00  0.00    +0.000 HD
ENDBRANCH   5  19
BRANCH   1  21
ATOM     21  O   UNL     1       6.060   4.862  17.468  0.00  0.00    +0.000 OA
BRANCH  21  22
ATOM     22  C   UNL     1       7.390   4.642  17.939  0.00  0.00    +0.000 C 
BRANCH  22  25
ATOM     23  C   UNL     1       7.962   7.127  18.108  0.00  0.00    +0.000 C 
ATOM     24  C   UNL     1       7.589   7.422  16.677  0.00  0.00    +0.000 C 
ATOM     25  C   UNL     1       7.850   5.892  18.627  0.00  0.00    +0.000 C 
BRANCH  23  26
ATOM     26  C   UNL     1       8.440   8.329  18.920  0.00  0.00    +0.000 C 
BRANCH  26  27
ATOM     27  C   UNL     1       8.317   9.684  18.209  0.00  0.00    +0.000 C 
BRANCH  27  31
ATOM     28  C   UNL     1      11.439  12.014  18.279  0.00  0.00    +0.000 C 
ATOM     29  C   UNL     1      10.045  11.506  18.518  0.00  0.00    +0.000 C 
ATOM     30  C   UNL     1       9.153  12.335  19.401  0.00  0.00    +0.000 C 
ATOM     31  C   UNL     1       9.640  10.351  17.953  0.00  0.00    +0.000 C 
ENDBRANCH  27  31
ENDBRANCH  26  27
ENDBRANCH  23  26
ENDBRANCH  22  25
ENDBRANCH  21  22
ENDBRANCH   1  21
BRANCH  10  32
ATOM     32  C   UNL     1       0.355  10.248  20.487  0.00  0.00    +0.000 C 
BRANCH  32  33
ATOM     33  C   UNL     1      -0.912  10.703  19.749  0.00  0.00    +0.000 C 
ATOM     34  C   UNL     1      -1.456   9.750  18.691  0.00  0.00    +0.000 C 
ATOM     35  C   UNL     1      -1.826  10.636  17.519  0.00  0.00    +0.000 C 
ATOM     36  C   UNL     1      -1.653  12.047  18.031  0.00  0.00    +0.000 C 
ATOM     37  O   UNL     1      -0.702  11.963  19.093  0.00  0.00    +0.000 OA
ENDBRANCH  32  33
ENDBRANCH  10  32
TORSDOF 10
ENDMDL
MODEL 9
REMARK VINA RESULT:      -7.7      2.757      5.714
REMARK  Name = 
REMARK  13 active torsions:
REMARK  status: ('A' for Active; 'I' for Inactive)
REMARK    1  A    between atoms: C_1  and  C_2
REMARK    2  A    between atoms: C_2  and  C_3
REMARK    3  A    between atoms: C_4  and  C_5
REMARK    4  A    between atoms: C_5  and  C_6
REMARK    5  A    between atoms: C_6  and  C_7
REMARK    6  A    between atoms: C_7  and  C_8
REMARK    7  A    between atoms: C_9  and  C_10
REMARK    8  A    between atoms: C_10  and  O_11
REMARK    9  A    between atoms: O_11  and  N_12
REMARK   10  A    between atoms: C_15  and  O_16
REMARK   11  A    between atoms: C_17  and  O_18
REMARK   12  A    between atoms: N_23  and  C_24
REMARK   13  A    between atoms: C_24  and  C_25
REMARK                            x       y       z     vdW  Elec       q    Type
REMARK                         _______ _______ _______ _____ _____    ______ ____
ROOT
ATOM      1  N   UNL     1       2.085   6.860  19.709  0.00  0.00    +0.000 NA
ATOM      2  C   UNL     1       1.974   8.153  19.694  0.00  0.00    +0.000 C 
ATOM      3  C   UNL     1       2.763   8.892  18.613  0.00  0.00    +0.000 C 
ATOM      4  C   UNL     1       1.899   9.927  17.895  0.00  0.00    +0.000 C 
ATOM      5  C   UNL     1       1.050  10.791  18.864  0.00  0.00    +0.000 C 
ATOM      6  C   UNL     1       0.181   9.877  19.749  0.00  0.00    +0.000 C 
ATOM      7  C   UNL     1      -0.928  10.486  20.612  0.00  0.00    +0.000 C 
ATOM      8  C   UNL     1      -1.767  11.686  20.233  0.00  0.00    +0.000 C 
ATOM      9  O   UNL     1      -2.245  11.901  19.132  0.00  0.00    +0.000 OA
ATOM     10  N   UNL     1      -2.114  12.310  21.413  0.00  0.00    +0.000 N 
ATOM     11  C   UNL     1      -1.624  11.639  22.508  0.00  0.00    +0.000 C 
ATOM     12  O   UNL     1      -2.051  11.642  23.649  0.00  0.00    +0.000 OA
ATOM     13  C   UNL     1      -0.451  10.837  22.011  0.00  0.00    +0.000 C 
ATOM     14  C   UNL     1      -0.079   9.586  22.794  0.00  0.00    +0.000 C 
ATOM     15  C   UNL     1       0.469   8.480  21.875  0.00  0.00    +0.000 C 
ATOM     16  C   UNL     1       1.173   9.060  20.640  0.00  0.00    +0.000 C 
ENDROOT
BRANCH   4  17
ATOM     17  O   UNL     1       1.028   9.292  16.941  0.00  0.00    +0.000 OA
ATOM     18  H   UNL     1       0.847   8.378  17.224  0.00  0.00    +0.000 HD
ENDBRANCH   4  17
BRANCH   5  19
ATOM     19  O   UNL     1       0.271  11.704  18.115  0.00  0.00    +0.000 OA
ATOM     20  H   UNL     1       0.854  12.094  17.433  0.00  0.00    +0.000 HD
ENDBRANCH   5  19
BRANCH   1  21
ATOM     21  O   UNL     1       1.361   6.277  20.749  0.00  0.00    +0.000 OA
BRANCH  21  22
ATOM     22  C   UNL     1       1.473   4.854  20.712  0.00  0.00    +0.000 C 
BRANCH  22  25
ATOM     23  C   UNL     1       1.991   3.464  18.631  0.00  0.00    +0.000 C 
ATOM     24  C   UNL     1       0.824   2.529  18.833  0.00  0.00    +0.000 C 
ATOM     25  C   UNL     1       2.234   4.481  19.476  0.00  0.00    +0.000 C 
BRANCH  23  26
ATOM     26  C   UNL     1       2.841   3.190  17.393  0.00  0.00    +0.000 C 
BRANCH  26  27
ATOM     27  C   UNL     1       4.287   3.701  17.472  0.00  0.00    +0.000 C 
BRANCH  27  31
ATOM     28  C   UNL     1       6.681   4.547  14.517  0.00  0.00    +0.000 C 
ATOM     29  C   UNL     1       6.172   4.361  15.918  0.00  0.00    +0.000 C 
ATOM     30  C   UNL     1       7.156   4.557  17.039  0.00  0.00    +0.000 C 
ATOM     31  C   UNL     1       4.883   4.028  16.130  0.00  0.00    +0.000 C 
ENDBRANCH  27  31
ENDBRANCH  26  27
ENDBRANCH  23  26
ENDBRANCH  22  25
ENDBRANCH  21  22
ENDBRANCH   1  21
BRANCH  10  32
ATOM     32  C   UNL     1      -3.150  13.329  21.504  0.00  0.00    +0.000 C 
BRANCH  32  33
ATOM     33  C   UNL     1      -4.573  12.767  21.374  0.00  0.00    +0.000 C 
ATOM     34  C   UNL     1      -5.545  13.583  20.529  0.00  0.00    +0.000 C 
ATOM     35  C   UNL     1      -6.839  13.587  21.316  0.00  0.00    +0.000 C 
ATOM     36  C   UNL     1      -6.599  12.631  22.461  0.00  0.00    +0.000 C 
ATOM     37  O   UNL     1      -5.185  12.611  22.663  0.00  0.00    +0.000 OA
ENDBRANCH  32  33
ENDBRANCH  10  32
TORSDOF 10
ENDMDL
