MODEL 1
REMARK VINA RESULT:      -7.2      0.000      0.000
REMARK  Name = 
REMARK  9 active torsions:
REMARK  status: ('A' for Active; 'I' for Inactive)
REMARK    1  A    between atoms: C_1  and  C_2
REMARK    2  A    between atoms: C_2  and  C_3
REMARK    3  A    between atoms: C_3  and  C_7
REMARK    4  A    between atoms: N_4  and  O_5
REMARK    5  A    between atoms: O_5  and  C_6
REMARK    6  A    between atoms: C_10  and  O_11
REMARK    7  A    between atoms: O_11  and  C_12
REMARK    8  A    between atoms: C_12  and  C_13
REMARK    9  A    between atoms: C_13  and  C_14
REMARK                            x       y       z     vdW  Elec       q    Type
REMARK                         _______ _______ _______ _____ _____    ______ ____
ROOT
ATOM      1  C   UNL     1       1.885   8.109  21.131  0.00  0.00    +0.000 C 
ENDROOT
BRANCH   1   2
ATOM      2  O   UNL     1       1.592   7.344  19.958  0.00  0.00    +0.000 OA
BRANCH   2   6
ATOM      3  C   UNL     1       4.903   6.055  17.741  0.00  0.00    +0.000 A 
ATOM      4  C   UNL     1       4.100   7.128  17.345  0.00  0.00    +0.000 A 
ATOM      5  C   UNL     1       3.010   7.527  18.127  0.00  0.00    +0.000 A 
ATOM      6  C   UNL     1       2.655   6.823  19.273  0.00  0.00    +0.000 A 
ATOM      7  C   UNL     1       3.418   5.725  19.657  0.00  0.00    +0.000 A 
ATOM      8  C   UNL     1       4.540   5.349  18.896  0.00  0.00    +0.000 A 
BRANCH   3   9
ATOM      9  C   UNL     1       6.140   5.652  16.968  0.00  0.00    +0.000 C 
ATOM     10  N   UNL     1       6.158   5.895  15.686  0.00  0.00    +0.000 NA
BRANCH   9  12
ATOM     11  C   UNL     1       7.884   5.862  18.849  0.00  0.00    +0.000 C 
ATOM     12  C   UNL     1       7.315   5.010  17.720  0.00  0.00    +0.000 C 
ENDBRANCH   9  12
BRANCH  10  13
ATOM     13  O   UNL     1       7.361   5.508  15.079  0.00  0.00    +0.000 OA
ATOM     14  C   UNL     1       7.068   4.663  13.972  0.00  0.00    +0.000 C 
ENDBRANCH  10  13
ENDBRANCH   3   9
ENDBRANCH   2   6
ENDBRANCH   1   2
BRANCH   1  15
ATOM     15  C   UNL     1       1.225   9.486  20.946  0.00  0.00    +0.000 C 
BRANCH  15  16
ATOM     16  C   UNL     1      -0.318   9.456  20.914  0.00  0.00    +0.000 C 
ATOM     17  C   UNL     1      -0.977  10.638  20.179  0.00  0.00    +0.000 C 
ATOM     18  C   UNL     1      -1.090  11.932  20.992  0.00  0.00    +0.000 C 
ATOM     19  N   UNL     1      -1.543  11.705  22.364  0.00  0.00    +0.000 N 
ATOM     20  C   UNL     1      -2.809  12.122  22.751  0.00  0.00    +0.000 A 
ATOM     21  C   UNL     1      -3.066  12.441  24.087  0.00  0.00    +0.000 A 
ATOM     22  C   UNL     1      -4.325  12.886  24.490  0.00  0.00    +0.000 A 
ATOM     23  C   UNL     1      -5.302  12.995  23.531  0.00  0.00    +0.000 A 
ATOM     24 CL   UNL     1      -6.887  13.509  23.919  0.00  0.00    +0.000 Cl
ATOM     25  N   UNL     1      -5.071  12.709  22.238  0.00  0.00    +0.000 NA
ATOM     26  N   UNL     1      -3.806  12.282  21.851  0.00  0.00    +0.000 NA
ATOM     27  C   UNL     1      -0.871  10.650  23.113  0.00  0.00    +0.000 C 
ATOM     28  C   UNL     1      -0.904   9.336  22.333  0.00  0.00    +0.000 C 
ENDBRANCH  15  16
ENDBRANCH   1  15
TORSDOF 7
ENDMDL
MODEL 2
REMARK VINA RESULT:      -7.1      3.317      3.977
REMARK  Name = 
REMARK  9 active torsions:
REMARK  status: ('A' for Active; 'I' for Inactive)
REMARK    1  A    between atoms: C_1  and  C_2
REMARK    2  A    between atoms: C_2  and  C_3
REMARK    3  A    between atoms: C_3  and  C_7
REMARK    4  A    between atoms: N_4  and  O_5
REMARK    5  A    between atoms: O_5  and  C_6
REMARK    6  A    between atoms: C_10  and  O_11
REMARK    7  A    between atoms: O_11  and  C_12
REMARK    8  A    between atoms: C_12  and  C_13
REMARK    9  A    between atoms: C_13  and  C_14
REMARK                            x       y       z     vdW  Elec       q    Type
REMARK                         _______ _______ _______ _____ _____    ______ ____
ROOT
ATOM      1  C   UNL     1       1.825   5.588  20.632  0.00  0.00    +0.000 C 
ENDROOT
BRANCH   1   2
ATOM      2  O   UNL     1       1.616   4.993  19.347  0.00  0.00    +0.000 OA
BRANCH   2   6
ATOM      3  C   UNL     1       4.764   4.629  16.609  0.00  0.00    +0.000 A 
ATOM      4  C   UNL     1       4.115   3.524  17.166  0.00  0.00    +0.000 A 
ATOM      5  C   UNL     1       3.061   3.698  18.069  0.00  0.00    +0.000 A 
ATOM      6  C   UNL     1       2.682   4.969  18.492  0.00  0.00    +0.000 A 
ATOM      7  C   UNL     1       3.348   6.078  17.981  0.00  0.00    +0.000 A 
ATOM      8  C   UNL     1       4.379   5.906  17.039  0.00  0.00    +0.000 A 
BRANCH   3   9
ATOM      9  C   UNL     1       5.848   4.480  15.564  0.00  0.00    +0.000 C 
ATOM     10  N   UNL     1       5.475   4.317  14.324  0.00  0.00    +0.000 NA
BRANCH   9  12
ATOM     11  C   UNL     1       7.532   4.596  17.507  0.00  0.00    +0.000 C 
ATOM     12  C   UNL     1       7.320   4.553  15.998  0.00  0.00    +0.000 C 
ENDBRANCH   9  12
BRANCH  10  13
ATOM     13  O   UNL     1       6.559   4.220  13.441  0.00  0.00    +0.000 OA
ATOM     14  C   UNL     1       6.202   3.358  12.367  0.00  0.00    +0.000 C 
ENDBRANCH  10  13
ENDBRANCH   3   9
ENDBRANCH   2   6
ENDBRANCH   1   2
BRANCH   1  15
ATOM     15  C   UNL     1       0.916   6.825  20.707  0.00  0.00    +0.000 C 
BRANCH  15  16
ATOM     16  C   UNL     1       1.670   8.170  20.776  0.00  0.00    +0.000 C 
ATOM     17  C   UNL     1       1.184   9.134  21.875  0.00  0.00    +0.000 C 
ATOM     18  C   UNL     1      -0.072   9.939  21.529  0.00  0.00    +0.000 C 
ATOM     19  N   UNL     1      -0.044  10.484  20.172  0.00  0.00    +0.000 N 
ATOM     20  C   UNL     1       0.091  11.853  19.981  0.00  0.00    +0.000 A 
ATOM     21  C   UNL     1      -0.422  12.456  18.830  0.00  0.00    +0.000 A 
ATOM     22  C   UNL     1      -0.317  13.832  18.632  0.00  0.00    +0.000 A 
ATOM     23  C   UNL     1       0.309  14.573  19.605  0.00  0.00    +0.000 A 
ATOM     24 CL   UNL     1       0.511  16.265  19.454  0.00  0.00    +0.000 Cl
ATOM     25  N   UNL     1       0.794  14.014  20.728  0.00  0.00    +0.000 NA
ATOM     26  N   UNL     1       0.668  12.643  20.916  0.00  0.00    +0.000 NA
ATOM     27  C   UNL     1       0.325   9.567  19.101  0.00  0.00    +0.000 C 
ATOM     28  C   UNL     1       1.658   8.888  19.414  0.00  0.00    +0.000 C 
ENDBRANCH  15  16
ENDBRANCH   1  15
TORSDOF 7
ENDMDL
MODEL 3
REMARK VINA RESULT:      -7.1      3.770      4.478
REMARK  Name = 
REMARK  9 active torsions:
REMARK  status: ('A' for Active; 'I' for Inactive)
REMARK    1  A    between atoms: C_1  and  C_2
REMARK    2  A    between atoms: C_2  and  C_3
REMARK    3  A    between atoms: C_3  and  C_7
REMARK    4  A    between atoms: N_4  and  O_5
REMARK    5  A    between atoms: O_5  and  C_6
REMARK    6  A    between atoms: C_10  and  O_11
REMARK    7  A    between atoms: O_11  and  C_12
REMARK    8  A    between atoms: C_12  and  C_13
REMARK    9  A    between atoms: C_13  and  C_14
REMARK                            x       y       z     vdW  Elec       q    Type
REMARK                         _______ _______ _______ _____ _____    ______ ____
ROOT
ATOM      1  C   UNL     1       1.422   4.397  20.756  0.00  0.00    +0.000 C 
ENDROOT
BRANCH   1   2
ATOM      2  O   UNL     1       1.766   3.625  19.601  0.00  0.00    +0.000 OA
BRANCH   2   6
ATOM      3  C   UNL     1       5.196   4.709  17.455  0.00  0.00    +0.000 A 
ATOM      4  C   UNL     1       3.963   4.476  16.841  0.00  0.00    +0.000 A 
ATOM      5  C   UNL     1       2.843   4.125  17.604  0.00  0.00    +0.000 A 
ATOM      6  C   UNL     1       2.945   3.930  18.978  0.00  0.00    +0.000 A 
ATOM      7  C   UNL     1       4.176   4.115  19.599  0.00  0.00    +0.000 A 
ATOM      8  C   UNL     1       5.292   4.510  18.839  0.00  0.00    +0.000 A 
BRANCH   3   9
ATOM      9  C   UNL     1       6.406   5.175  16.674  0.00  0.00    +0.000 C 
ATOM     10  N   UNL     1       6.502   4.799  15.428  0.00  0.00    +0.000 NA
BRANCH   9  12
ATOM     11  C   UNL     1       7.030   7.545  17.457  0.00  0.00    +0.000 C 
ATOM     12  C   UNL     1       7.438   6.079  17.363  0.00  0.00    +0.000 C 
ENDBRANCH   9  12
BRANCH  10  13
ATOM     13  O   UNL     1       7.643   5.312  14.795  0.00  0.00    +0.000 OA
ATOM     14  C   UNL     1       7.568   5.019  13.404  0.00  0.00    +0.000 C 
ENDBRANCH  10  13
ENDBRANCH   3   9
ENDBRANCH   2   6
ENDBRANCH   1   2
BRANCH   1  15
ATOM     15  C   UNL     1       0.921   5.761  20.253  0.00  0.00    +0.000 C 
BRANCH  15  16
ATOM     16  C   UNL     1       1.764   6.965  20.724  0.00  0.00    +0.000 C 
ATOM     17  C   UNL     1       1.043   7.926  21.689  0.00  0.00    +0.000 C 
ATOM     18  C   UNL     1       0.103   8.935  21.024  0.00  0.00    +0.000 C 
ATOM     19  N   UNL     1       0.680   9.550  19.828  0.00  0.00    +0.000 N 
ATOM     20  C   UNL     1       1.044  10.889  19.847  0.00  0.00    +0.000 A 
ATOM     21  C   UNL     1       1.054  11.632  18.664  0.00  0.00    +0.000 A 
ATOM     22  C   UNL     1       1.393  12.985  18.668  0.00  0.00    +0.000 A 
ATOM     23  C   UNL     1       1.720  13.559  19.872  0.00  0.00    +0.000 A 
ATOM     24 CL   UNL     1       2.173  15.205  19.987  0.00  0.00    +0.000 Cl
ATOM     25  N   UNL     1       1.701  12.866  21.023  0.00  0.00    +0.000 NA
ATOM     26  N   UNL     1       1.345  11.523  21.004  0.00  0.00    +0.000 NA
ATOM     27  C   UNL     1       1.288   8.651  18.854  0.00  0.00    +0.000 C 
ATOM     28  C   UNL     1       2.326   7.755  19.529  0.00  0.00    +0.000 C 
ENDBRANCH  15  16
ENDBRANCH   1  15
TORSDOF 7
ENDMDL
MODEL 4
REMARK VINA RESULT:      -7.0      2.892      3.498
REMARK  Name = 
REMARK  9 active torsions:
REMARK  status: ('A' for Active; 'I' for Inactive)
REMARK    1  A    between atoms: C_1  and  C_2
REMARK    2  A    between atoms: C_2  and  C_3
REMARK    3  A    between atoms: C_3  and  C_7
REMARK    4  A    between atoms: N_4  and  O_5
REMARK    5  A    between atoms: O_5  and  C_6
REMARK    6  A    between atoms: C_10  and  O_11
REMARK    7  A    between atoms: O_11  and  C_12
REMARK    8  A    between atoms: C_12  and  C_13
REMARK    9  A    between atoms: C_13  and  C_14
REMARK                            x       y       z     vdW  Elec       q    Type
REMARK                         _______ _______ _______ _____ _____    ______ ____
ROOT
ATOM      1  C   UNL     1       1.113  10.015  18.067  0.00  0.00    +0.000 C 
ENDROOT
BRANCH   1   2
ATOM      2  O   UNL     1       2.000   9.517  19.073  0.00  0.00    +0.000 OA
BRANCH   2   6
ATOM      3  C   UNL     1       2.262   5.357  19.484  0.00  0.00    +0.000 A 
ATOM      4  C   UNL     1       2.542   6.017  18.284  0.00  0.00    +0.000 A 
ATOM      5  C   UNL     1       2.450   7.411  18.201  0.00  0.00    +0.000 A 
ATOM      6  C   UNL     1       2.008   8.165  19.283  0.00  0.00    +0.000 A 
ATOM      7  C   UNL     1       1.683   7.519  20.472  0.00  0.00    +0.000 A 
ATOM      8  C   UNL     1       1.817   6.122  20.570  0.00  0.00    +0.000 A 
BRANCH   3   9
ATOM      9  C   UNL     1       2.436   3.861  19.635  0.00  0.00    +0.000 C 
ATOM     10  N   UNL     1       3.577   3.344  19.267  0.00  0.00    +0.000 NA
BRANCH   9  12
ATOM     11  C   UNL     1       1.451   2.707  21.714  0.00  0.00    +0.000 C 
ATOM     12  C   UNL     1       1.290   3.033  20.233  0.00  0.00    +0.000 C 
ENDBRANCH   9  12
BRANCH  10  13
ATOM     13  O   UNL     1       3.637   1.960  19.480  0.00  0.00    +0.000 OA
ATOM     14  C   UNL     1       3.672   1.302  18.218  0.00  0.00    +0.000 C 
ENDBRANCH  10  13
ENDBRANCH   3   9
ENDBRANCH   2   6
ENDBRANCH   1   2
BRANCH   1  15
ATOM     15  C   UNL     1       0.244  11.097  18.728  0.00  0.00    +0.000 C 
BRANCH  15  16
ATOM     16  C   UNL     1      -1.014  10.558  19.442  0.00  0.00    +0.000 C 
ATOM     17  C   UNL     1      -2.352  11.085  18.889  0.00  0.00    +0.000 C 
ATOM     18  C   UNL     1      -2.758  12.478  19.378  0.00  0.00    +0.000 C 
ATOM     19  N   UNL     1      -2.548  12.662  20.814  0.00  0.00    +0.000 N 
ATOM     20  C   UNL     1      -3.640  12.761  21.664  0.00  0.00    +0.000 A 
ATOM     21  C   UNL     1      -3.535  13.466  22.866  0.00  0.00    +0.000 A 
ATOM     22  C   UNL     1      -4.628  13.596  23.721  0.00  0.00    +0.000 A 
ATOM     23  C   UNL     1      -5.810  13.006  23.344  0.00  0.00    +0.000 A 
ATOM     24 CL   UNL     1      -7.207  13.085  24.328  0.00  0.00    +0.000 Cl
ATOM     25  N   UNL     1      -5.937  12.337  22.185  0.00  0.00    +0.000 NA
ATOM     26  N   UNL     1      -4.841  12.230  21.337  0.00  0.00    +0.000 NA
ATOM     27  C   UNL     1      -1.253  12.256  21.347  0.00  0.00    +0.000 C 
ATOM     28  C   UNL     1      -0.945  10.809  20.960  0.00  0.00    +0.000 C 
ENDBRANCH  15  16
ENDBRANCH   1  15
TORSDOF 7
ENDMDL
MODEL 5
REMARK VINA RESULT:      -7.0      4.506     11.376
REMARK  Name = 
REMARK  9 active torsions:
REMARK  status: ('A' for Active; 'I' for Inactive)
REMARK    1  A    between atoms: C_1  and  C_2
REMARK    2  A    between atoms: C_2  and  C_3
REMARK    3  A    between atoms: C_3  and  C_7
REMARK    4  A    between atoms: N_4  and  O_5
REMARK    5  A    between atoms: O_5  and  C_6
REMARK    6  A    between atoms: C_10  and  O_11
REMARK    7  A    between atoms: O_11  and  C_12
REMARK    8  A    between atoms: C_12  and  C_13
REMARK    9  A    between atoms: C_13  and  C_14
REMARK                            x       y       z     vdW  Elec       q    Type
REMARK                         _______ _______ _______ _____ _____    ______ ____
ROOT
ATOM      1  C   UNL     1       1.279   6.580  20.714  0.00  0.00    +0.000 C 
ENDROOT
BRANCH   1   2
ATOM      2  O   UNL     1       1.838   7.761  21.295  0.00  0.00    +0.000 OA
BRANCH   2   6
ATOM      3  C   UNL     1      -0.810  11.004  21.407  0.00  0.00    +0.000 A 
ATOM      4  C   UNL     1      -0.236  10.537  20.221  0.00  0.00    +0.000 A 
ATOM      5  C   UNL     1       0.636   9.442  20.235  0.00  0.00    +0.000 A 
ATOM      6  C   UNL     1       1.010   8.840  21.432  0.00  0.00    +0.000 A 
ATOM      7  C   UNL     1       0.482   9.321  22.626  0.00  0.00    +0.000 A 
ATOM      8  C   UNL     1      -0.429  10.394  22.609  0.00  0.00    +0.000 A 
BRANCH   3   9
ATOM      9  C   UNL     1      -1.824  12.127  21.419  0.00  0.00    +0.000 C 
ATOM     10  N   UNL     1      -2.441  12.397  20.301  0.00  0.00    +0.000 NA
BRANCH   9  12
ATOM     11  C   UNL     1      -3.189  12.246  23.597  0.00  0.00    +0.000 C 
ATOM     12  C   UNL     1      -2.099  12.871  22.734  0.00  0.00    +0.000 C 
ENDBRANCH   9  12
BRANCH  10  13
ATOM     13  O   UNL     1      -3.376  13.433  20.436  0.00  0.00    +0.000 OA
ATOM     14  C   UNL     1      -4.669  12.930  20.116  0.00  0.00    +0.000 C 
ENDBRANCH  10  13
ENDBRANCH   3   9
ENDBRANCH   2   6
ENDBRANCH   1   2
BRANCH   1  15
ATOM     15  C   UNL     1       2.433   5.819  20.041  0.00  0.00    +0.000 C 
BRANCH  15  16
ATOM     16  C   UNL     1       2.430   5.888  18.499  0.00  0.00    +0.000 C 
ATOM     17  C   UNL     1       2.428   4.522  17.786  0.00  0.00    +0.000 C 
ATOM     18  C   UNL     1       3.794   3.838  17.682  0.00  0.00    +0.000 C 
ATOM     19  N   UNL     1       4.863   4.756  17.291  0.00  0.00    +0.000 N 
ATOM     20  C   UNL     1       5.443   4.647  16.035  0.00  0.00    +0.000 A 
ATOM     21  C   UNL     1       6.758   5.072  15.827  0.00  0.00    +0.000 A 
ATOM     22  C   UNL     1       7.364   4.947  14.578  0.00  0.00    +0.000 A 
ATOM     23  C   UNL     1       6.625   4.397  13.559  0.00  0.00    +0.000 A 
ATOM     24 CL   UNL     1       7.263   4.218  11.982  0.00  0.00    +0.000 Cl
ATOM     25  N   UNL     1       5.364   3.968  13.742  0.00  0.00    +0.000 NA
ATOM     26  N   UNL     1       4.780   4.085  14.997  0.00  0.00    +0.000 NA
ATOM     27  C   UNL     1       4.943   6.020  18.015  0.00  0.00    +0.000 C 
ATOM     28  C   UNL     1       3.598   6.744  17.975  0.00  0.00    +0.000 C 
ENDBRANCH  15  16
ENDBRANCH   1  15
TORSDOF 7
ENDMDL
MODEL 6
REMARK VINA RESULT:      -7.0      4.525     11.486
REMARK  Name = 
REMARK  9 active torsions:
REMARK  status: ('A' for Active; 'I' for Inactive)
REMARK    1  A    between atoms: C_1  and  C_2
REMARK    2  A    between atoms: C_2  and  C_3
REMARK    3  A    between atoms: C_3  and  C_7
REMARK    4  A    between atoms: N_4  and  O_5
REMARK    5  A    between atoms: O_5  and  C_6
REMARK    6  A    between atoms: C_10  and  O_11
REMARK    7  A    between atoms: O_11  and  C_12
REMARK    8  A    between atoms: C_12  and  C_13
REMARK    9  A    between atoms: C_13  and  C_14
REMARK                            x       y       z     vdW  Elec       q    Type
REMARK                         _______ _______ _______ _____ _____    ______ ____
ROOT
ATOM      1  C   UNL     1       2.063   7.640  20.329  0.00  0.00    +0.000 C 
ENDROOT
BRANCH   1   2
ATOM      2  O   UNL     1       1.121   7.622  21.406  0.00  0.00    +0.000 OA
BRANCH   2   6
ATOM      3  C   UNL     1      -0.943  11.223  21.963  0.00  0.00    +0.000 A 
ATOM      4  C   UNL     1      -0.373  10.860  20.739  0.00  0.00    +0.000 A 
ATOM      5  C   UNL     1       0.298   9.639  20.601  0.00  0.00    +0.000 A 
ATOM      6  C   UNL     1       0.479   8.795  21.692  0.00  0.00    +0.000 A 
ATOM      7  C   UNL     1      -0.044   9.162  22.928  0.00  0.00    +0.000 A 
ATOM      8  C   UNL     1      -0.756  10.368  23.057  0.00  0.00    +0.000 A 
BRANCH   3   9
ATOM      9  C   UNL     1      -1.750  12.493  22.126  0.00  0.00    +0.000 C 
ATOM     10  N   UNL     1      -2.974  12.494  21.671  0.00  0.00    +0.000 NA
BRANCH   9  12
ATOM     11  C   UNL     1       0.163  14.213  22.178  0.00  0.00    +0.000 C 
ATOM     12  C   UNL     1      -1.114  13.698  22.833  0.00  0.00    +0.000 C 
ENDBRANCH   9  12
BRANCH  10  13
ATOM     13  O   UNL     1      -3.635  13.708  21.902  0.00  0.00    +0.000 OA
ATOM     14  C   UNL     1      -4.733  13.474  22.778  0.00  0.00    +0.000 C 
ENDBRANCH  10  13
ENDBRANCH   3   9
ENDBRANCH   2   6
ENDBRANCH   1   2
BRANCH   1  15
ATOM     15  C   UNL     1       2.169   6.200  19.799  0.00  0.00    +0.000 C 
BRANCH  15  16
ATOM     16  C   UNL     1       2.199   6.086  18.261  0.00  0.00    +0.000 C 
ATOM     17  C   UNL     1       2.315   4.650  17.717  0.00  0.00    +0.000 C 
ATOM     18  C   UNL     1       3.729   4.063  17.717  0.00  0.00    +0.000 C 
ATOM     19  N   UNL     1       4.738   5.006  17.237  0.00  0.00    +0.000 N 
ATOM     20  C   UNL     1       5.355   4.793  16.012  0.00  0.00    +0.000 A 
ATOM     21  C   UNL     1       6.641   5.288  15.776  0.00  0.00    +0.000 A 
ATOM     22  C   UNL     1       7.286   5.063  14.561  0.00  0.00    +0.000 A 
ATOM     23  C   UNL     1       6.614   4.342  13.604  0.00  0.00    +0.000 A 
ATOM     24 CL   UNL     1       7.303   4.027  12.070  0.00  0.00    +0.000 Cl
ATOM     25  N   UNL     1       5.384   3.844  13.816  0.00  0.00    +0.000 NA
ATOM     26  N   UNL     1       4.762   4.064  15.039  0.00  0.00    +0.000 NA
ATOM     27  C   UNL     1       4.708   6.348  17.805  0.00  0.00    +0.000 C 
ATOM     28  C   UNL     1       3.315   6.960  17.658  0.00  0.00    +0.000 C 
ENDBRANCH  15  16
ENDBRANCH   1  15
TORSDOF 7
ENDMDL
MODEL 7
REMARK VINA RESULT:      -6.9      2.156      2.593
REMARK  Name = 
REMARK  9 active torsions:
REMARK  status: ('A' for Active; 'I' for Inactive)
REMARK    1  A    between atoms: C_1  and  C_2
REMARK    2  A    between atoms: C_2  and  C_3
REMARK    3  A    between atoms: C_3  and  C_7
REMARK    4  A    between atoms: N_4  and  O_5
REMARK    5  A    between atoms: O_5  and  C_6
REMARK    6  A    between atoms: C_10  and  O_11
REMARK    7  A    between atoms: O_11  and  C_12
REMARK    8  A    between atoms: C_12  and  C_13
REMARK    9  A    between atoms: C_13  and  C_14
REMARK                            x       y       z     vdW  Elec       q    Type
REMARK                         _______ _______ _______ _____ _____    ______ ____
ROOT
ATOM      1  C   UNL     1       1.275   7.030  20.877  0.00  0.00    +0.000 C 
ENDROOT
BRANCH   1   2
ATOM      2  O   UNL     1       1.721   7.640  19.662  0.00  0.00    +0.000 OA
BRANCH   2   6
ATOM      3  C   UNL     1       4.948   6.062  17.508  0.00  0.00    +0.000 A 
ATOM      4  C   UNL     1       4.261   7.211  17.107  0.00  0.00    +0.000 A 
ATOM      5  C   UNL     1       3.195   7.705  17.868  0.00  0.00    +0.000 A 
ATOM      6  C   UNL     1       2.746   7.027  18.996  0.00  0.00    +0.000 A 
ATOM      7  C   UNL     1       3.390   5.856  19.383  0.00  0.00    +0.000 A 
ATOM      8  C   UNL     1       4.489   5.382  18.644  0.00  0.00    +0.000 A 
BRANCH   3   9
ATOM      9  C   UNL     1       6.159   5.549  16.759  0.00  0.00    +0.000 C 
ATOM     10  N   UNL     1       6.270   5.867  15.498  0.00  0.00    +0.000 NA
BRANCH   9  12
ATOM     11  C   UNL     1       7.840   5.421  18.703  0.00  0.00    +0.000 C 
ATOM     12  C   UNL     1       7.204   4.713  17.512  0.00  0.00    +0.000 C 
ENDBRANCH   9  12
BRANCH  10  13
ATOM     13  O   UNL     1       7.442   5.365  14.915  0.00  0.00    +0.000 OA
ATOM     14  C   UNL     1       7.093   4.598  13.768  0.00  0.00    +0.000 C 
ENDBRANCH  10  13
ENDBRANCH   3   9
ENDBRANCH   2   6
ENDBRANCH   1   2
BRANCH   1  15
ATOM     15  C   UNL     1       0.240   7.978  21.503  0.00  0.00    +0.000 C 
BRANCH  15  16
ATOM     16  C   UNL     1       0.831   9.286  22.069  0.00  0.00    +0.000 C 
ATOM     17  C   UNL     1       0.152   9.807  23.350  0.00  0.00    +0.000 C 
ATOM     18  C   UNL     1      -1.154  10.577  23.130  0.00  0.00    +0.000 C 
ATOM     19  N   UNL     1      -1.076  11.527  22.021  0.00  0.00    +0.000 N 
ATOM     20  C   UNL     1      -1.080  12.891  22.279  0.00  0.00    +0.000 A 
ATOM     21  C   UNL     1      -1.561  13.787  21.321  0.00  0.00    +0.000 A 
ATOM     22  C   UNL     1      -1.595  15.158  21.571  0.00  0.00    +0.000 A 
ATOM     23  C   UNL     1      -1.137  15.597  22.790  0.00  0.00    +0.000 A 
ATOM     24 CL   UNL     1      -1.114  17.259  23.193  0.00  0.00    +0.000 Cl
ATOM     25  N   UNL     1      -0.686  14.750  23.732  0.00  0.00    +0.000 NA
ATOM     26  N   UNL     1      -0.674  13.386  23.471  0.00  0.00    +0.000 NA
ATOM     27  C   UNL     1      -0.520  11.032  20.767  0.00  0.00    +0.000 C 
ATOM     28  C   UNL     1       0.850  10.398  21.003  0.00  0.00    +0.000 C 
ENDBRANCH  15  16
ENDBRANCH   1  15
TORSDOF 7
ENDMDL
MODEL 8
REMARK VINA RESULT:      -6.9      4.986     10.995
REMARK  Name = 
REMARK  9 active torsions:
REMARK  status: ('A' for Active; 'I' for Inactive)
REMARK    1  A    between atoms: C_1  and  C_2
REMARK    2  A    between atoms: C_2  and  C_3
REMARK    3  A    between atoms: C_3  and  C_7
REMARK    4  A    between atoms: N_4  and  O_5
REMARK    5  A    between atoms: O_5  and  C_6
REMARK    6  A    between atoms: C_10  and  O_11
REMARK    7  A    between atoms: O_11  and  C_12
REMARK    8  A    between atoms: C_12  and  C_13
REMARK    9  A    between atoms: C_13  and  C_14
REMARK                            x       y       z     vdW  Elec       q    Type
REMARK                         _______ _______ _______ _____ _____    ______ ____
ROOT
ATOM      1  C   UNL     1       1.582   5.870  20.692  0.00  0.00    +0.000 C 
ENDROOT
BRANCH   1   2
ATOM      2  O   UNL     1       2.260   7.056  20.268  0.00  0.00    +0.000 OA
BRANCH   2   6
ATOM      3  C   UNL     1       0.044  10.584  19.840  0.00  0.00    +0.000 A 
ATOM      4  C   UNL     1       1.005  10.178  18.911  0.00  0.00    +0.000 A 
ATOM      5  C   UNL     1       1.713   8.984  19.094  0.00  0.00    +0.000 A 
ATOM      6  C   UNL     1       1.531   8.213  20.237  0.00  0.00    +0.000 A 
ATOM      7  C   UNL     1       0.610   8.626  21.194  0.00  0.00    +0.000 A 
ATOM      8  C   UNL     1      -0.133   9.803  20.990  0.00  0.00    +0.000 A 
BRANCH   3   9
ATOM      9  C   UNL     1      -0.801  11.822  19.631  0.00  0.00    +0.000 C 
ATOM     10  N   UNL     1      -0.267  12.976  19.926  0.00  0.00    +0.000 NA
BRANCH   9  12
ATOM     11  C   UNL     1      -2.272  11.180  17.620  0.00  0.00    +0.000 C 
ATOM     12  C   UNL     1      -2.219  11.671  19.062  0.00  0.00    +0.000 C 
ENDBRANCH   9  12
BRANCH  10  13
ATOM     13  O   UNL     1      -1.126  14.052  19.665  0.00  0.00    +0.000 OA
ATOM     14  C   UNL     1      -0.358  15.148  19.182  0.00  0.00    +0.000 C 
ENDBRANCH  10  13
ENDBRANCH   3   9
ENDBRANCH   2   6
ENDBRANCH   1   2
BRANCH   1  15
ATOM     15  C   UNL     1       2.182   4.700  19.895  0.00  0.00    +0.000 C 
BRANCH  15  16
ATOM     16  C   UNL     1       2.230   4.924  18.369  0.00  0.00    +0.000 C 
ATOM     17  C   UNL     1       2.415   3.646  17.529  0.00  0.00    +0.000 C 
ATOM     18  C   UNL     1       3.855   3.134  17.427  0.00  0.00    +0.000 C 
ATOM     19  N   UNL     1       4.824   4.202  17.181  0.00  0.00    +0.000 N 
ATOM     20  C   UNL     1       5.459   4.287  15.950  0.00  0.00    +0.000 A 
ATOM     21  C   UNL     1       6.722   4.876  15.849  0.00  0.00    +0.000 A 
ATOM     22  C   UNL     1       7.386   4.948  14.625  0.00  0.00    +0.000 A 
ATOM     23  C   UNL     1       6.756   4.425  13.523  0.00  0.00    +0.000 A 
ATOM     24 CL   UNL     1       7.471   4.480  11.970  0.00  0.00    +0.000 Cl
ATOM     25  N   UNL     1       5.548   3.839  13.601  0.00  0.00    +0.000 NA
ATOM     26  N   UNL     1       4.907   3.762  14.831  0.00  0.00    +0.000 NA
ATOM     27  C   UNL     1       4.727   5.386  18.025  0.00  0.00    +0.000 C 
ATOM     28  C   UNL     1       3.308   5.955  17.989  0.00  0.00    +0.000 C 
ENDBRANCH  15  16
ENDBRANCH   1  15
TORSDOF 7
ENDMDL
MODEL 9
REMARK VINA RESULT:      -6.9      4.414     11.468
REMARK  Name = 
REMARK  9 active torsions:
REMARK  status: ('A' for Active; 'I' for Inactive)
REMARK    1  A    between atoms: C_1  and  C_2
REMARK    2  A    between atoms: C_2  and  C_3
REMARK    3  A    between atoms: C_3  and  C_7
REMARK    4  A    between atoms: N_4  and  O_5
REMARK    5  A    between atoms: O_5  and  C_6
REMARK    6  A    between atoms: C_10  and  O_11
REMARK    7  A    between atoms: O_11  and  C_12
REMARK    8  A    between atoms: C_12  and  C_13
REMARK    9  A    between atoms: C_13  and  C_14
REMARK                            x       y       z     vdW  Elec       q    Type
REMARK                         _______ _______ _______ _____ _____    ______ ____
ROOT
ATOM      1  C   UNL     1       0.909   7.223  21.015  0.00  0.00    +0.000 C 
ENDROOT
BRANCH   1   2
ATOM      2  O   UNL     1       1.233   8.597  20.783  0.00  0.00    +0.000 OA
BRANCH   2   6
ATOM      3  C   UNL     1      -1.365  11.432  22.442  0.00  0.00    +0.000 A 
ATOM      4  C   UNL     1      -0.815  10.384  23.186  0.00  0.00    +0.000 A 
ATOM      5  C   UNL     1       0.057   9.468  22.587  0.00  0.00    +0.000 A 
ATOM      6  C   UNL     1       0.339   9.532  21.226  0.00  0.00    +0.000 A 
ATOM      7  C   UNL     1      -0.235  10.543  20.462  0.00  0.00    +0.000 A 
ATOM      8  C   UNL     1      -1.078  11.490  21.072  0.00  0.00    +0.000 A 
BRANCH   3   9
ATOM      9  C   UNL     1      -2.241  12.491  23.075  0.00  0.00    +0.000 C 
ATOM     10  N   UNL     1      -3.531  12.290  23.074  0.00  0.00    +0.000 NA
BRANCH   9  12
ATOM     11  C   UNL     1      -0.882  14.646  22.716  0.00  0.00    +0.000 C 
ATOM     12  C   UNL     1      -1.582  13.725  23.709  0.00  0.00    +0.000 C 
ENDBRANCH   9  12
BRANCH  10  13
ATOM     13  O   UNL     1      -4.239  13.317  23.711  0.00  0.00    +0.000 OA
ATOM     14  C   UNL     1      -5.605  13.249  23.316  0.00  0.00    +0.000 C 
ENDBRANCH  10  13
ENDBRANCH   3   9
ENDBRANCH   2   6
ENDBRANCH   1   2
BRANCH   1  15
ATOM     15  C   UNL     1       2.220   6.427  20.911  0.00  0.00    +0.000 C 
BRANCH  15  16
ATOM     16  C   UNL     1       2.254   5.400  19.760  0.00  0.00    +0.000 C 
ATOM     17  C   UNL     1       3.467   4.450  19.771  0.00  0.00    +0.000 C 
ATOM     18  C   UNL     1       4.760   5.035  19.193  0.00  0.00    +0.000 C 
ATOM     19  N   UNL     1       4.545   5.776  17.951  0.00  0.00    +0.000 N 
ATOM     20  C   UNL     1       5.013   5.261  16.750  0.00  0.00    +0.000 A 
ATOM     21  C   UNL     1       5.336   6.118  15.695  0.00  0.00    +0.000 A 
ATOM     22  C   UNL     1       5.830   5.621  14.490  0.00  0.00    +0.000 A 
ATOM     23  C   UNL     1       5.986   4.261  14.374  0.00  0.00    +0.000 A 
ATOM     24 CL   UNL     1       6.563   3.543  12.933  0.00  0.00    +0.000 Cl
ATOM     25  N   UNL     1       5.696   3.420  15.383  0.00  0.00    +0.000 NA
ATOM     26  N   UNL     1       5.219   3.934  16.582  0.00  0.00    +0.000 NA
ATOM     27  C   UNL     1       3.459   6.749  17.944  0.00  0.00    +0.000 C 
ATOM     28  C   UNL     1       2.152   6.094  18.389  0.00  0.00    +0.000 C 
ENDBRANCH  15  16
ENDBRANCH   1  15
TORSDOF 7
ENDMDL
