MODEL 1
REMARK VINA RESULT:      -7.7      0.000      0.000
REMARK  Name = 
REMARK  3 active torsions:
REMARK  status: ('A' for Active; 'I' for Inactive)
REMARK    1  A    between atoms: C_1  and  C_2
REMARK    2  A    between atoms: C_12  and  C_13
REMARK    3  A    between atoms: N_15  and  C_16
REMARK                            x       y       z     vdW  Elec       q    Type
REMARK                         _______ _______ _______ _____ _____    ______ ____
ROOT
ATOM      1  C   UNL     1       2.096  12.782  18.388  0.00  0.00    +0.000 C 
ATOM      2  C   UNL     1       0.735  12.120  18.662  0.00  0.00    +0.000 C 
ATOM      3  C   UNL     1      -0.145  13.129  19.429  0.00  0.00    +0.000 C 
ATOM      4  O   UNL     1      -0.901  12.706  20.554  0.00  0.00    +0.000 OA
ATOM      5  C   UNL     1      -0.497  11.557  21.160  0.00  0.00    +0.000 A 
ATOM      6  C   UNL     1      -1.076  11.321  22.415  0.00  0.00    +0.000 A 
ATOM      7  C   UNL     1      -0.828  10.135  23.101  0.00  0.00    +0.000 A 
ATOM      8  C   UNL     1      -0.005   9.176  22.527  0.00  0.00    +0.000 A 
ATOM      9  C   UNL     1       0.571   9.420  21.274  0.00  0.00    +0.000 A 
ATOM     10  C   UNL     1       1.408   8.365  20.658  0.00  0.00    +0.000 A 
ATOM     11  O   UNL     1       1.748   7.377  21.308  0.00  0.00    +0.000 OA
ATOM     12  C   UNL     1       1.797   8.530  19.235  0.00  0.00    +0.000 A 
ATOM     13  C   UNL     1       1.542   9.726  18.682  0.00  0.00    +0.000 A 
ATOM     14  N   UNL     1       0.933  10.810  19.309  0.00  0.00    +0.000 N 
ATOM     15  C   UNL     1       0.349  10.620  20.572  0.00  0.00    +0.000 A 
ENDROOT
BRANCH  12  16
ATOM     16  C   UNL     1       2.441   7.453  18.413  0.00  0.00    +0.000 C 
ATOM     17  O   UNL     1       3.169   7.718  17.461  0.00  0.00    +0.000 OA
ATOM     18  N   UNL     1       2.154   6.168  18.814  0.00  0.00    +0.000 N 
ATOM     19  H   UNL     1       1.590   6.055  19.657  0.00  0.00    +0.000 HD
BRANCH  18  20
ATOM     20  C   UNL     1       2.770   4.983  18.229  0.00  0.00    +0.000 C 
ATOM     21  C   UNL     1       3.687   4.275  19.236  0.00  0.00    +0.000 C 
ATOM     22  C   UNL     1       2.897   3.623  20.370  0.00  0.00    +0.000 C 
ATOM     23  C   UNL     1       1.864   2.636  19.833  0.00  0.00    +0.000 C 
ATOM     24  C   UNL     1       0.942   3.275  18.800  0.00  0.00    +0.000 C 
ATOM     25  C   UNL     1       1.709   4.008  17.695  0.00  0.00    +0.000 C 
ENDBRANCH  18  20
ENDBRANCH  12  16
TORSDOF 2
ENDMDL
MODEL 2
REMARK VINA RESULT:      -7.2      1.884      2.611
REMARK  Name = 
REMARK  3 active torsions:
REMARK  status: ('A' for Active; 'I' for Inactive)
REMARK    1  A    between atoms: C_1  and  C_2
REMARK    2  A    between atoms: C_12  and  C_13
REMARK    3  A    between atoms: N_15  and  C_16
REMARK                            x       y       z     vdW  Elec       q    Type
REMARK                         _______ _______ _______ _____ _____    ______ ____
ROOT
ATOM      1  C   UNL     1       2.564  12.218  18.079  0.00  0.00    +0.000 C 
ATOM      2  C   UNL     1       1.158  11.665  18.367  0.00  0.00    +0.000 C 
ATOM      3  C   UNL     1       0.349  12.762  19.091  0.00  0.00    +0.000 C 
ATOM      4  O   UNL     1      -0.440  12.435  20.225  0.00  0.00    +0.000 OA
ATOM      5  C   UNL     1      -0.122  11.283  20.875  0.00  0.00    +0.000 A 
ATOM      6  C   UNL     1      -0.722  11.134  22.133  0.00  0.00    +0.000 A 
ATOM      7  C   UNL     1      -0.563   9.959  22.863  0.00  0.00    +0.000 A 
ATOM      8  C   UNL     1       0.193   8.924  22.330  0.00  0.00    +0.000 A 
ATOM      9  C   UNL     1       0.790   9.081  21.073  0.00  0.00    +0.000 A 
ATOM     10  C   UNL     1       1.552   7.947  20.502  0.00  0.00    +0.000 A 
ATOM     11  O   UNL     1       1.818   6.962  21.189  0.00  0.00    +0.000 OA
ATOM     12  C   UNL     1       1.958   8.032  19.076  0.00  0.00    +0.000 A 
ATOM     13  C   UNL     1       1.792   9.223  18.479  0.00  0.00    +0.000 A 
ATOM     14  N   UNL     1       1.259  10.370  19.062  0.00  0.00    +0.000 N 
ATOM     15  C   UNL     1       0.658  10.268  20.327  0.00  0.00    +0.000 A 
ENDROOT
BRANCH  12  16
ATOM     16  C   UNL     1       2.528   6.883  18.298  0.00  0.00    +0.000 C 
ATOM     17  O   UNL     1       1.833   5.932  17.952  0.00  0.00    +0.000 OA
ATOM     18  N   UNL     1       3.869   6.988  18.008  0.00  0.00    +0.000 N 
ATOM     19  H   UNL     1       4.343   7.848  18.286  0.00  0.00    +0.000 HD
BRANCH  18  20
ATOM     20  C   UNL     1       4.589   6.043  17.162  0.00  0.00    +0.000 C 
ATOM     21  C   UNL     1       5.754   6.723  16.431  0.00  0.00    +0.000 C 
ATOM     22  C   UNL     1       6.877   7.120  17.388  0.00  0.00    +0.000 C 
ATOM     23  C   UNL     1       7.393   5.916  18.171  0.00  0.00    +0.000 C 
ATOM     24  C   UNL     1       6.272   5.177  18.894  0.00  0.00    +0.000 C 
ATOM     25  C   UNL     1       5.096   4.840  17.974  0.00  0.00    +0.000 C 
ENDBRANCH  18  20
ENDBRANCH  12  16
TORSDOF 2
ENDMDL
MODEL 3
REMARK VINA RESULT:      -6.9      2.733      3.314
REMARK  Name = 
REMARK  3 active torsions:
REMARK  status: ('A' for Active; 'I' for Inactive)
REMARK    1  A    between atoms: C_1  and  C_2
REMARK    2  A    between atoms: C_12  and  C_13
REMARK    3  A    between atoms: N_15  and  C_16
REMARK                            x       y       z     vdW  Elec       q    Type
REMARK                         _______ _______ _______ _____ _____    ______ ____
ROOT
ATOM      1  C   UNL     1      -2.741  10.532  15.432  0.00  0.00    +0.000 C 
ATOM      2  C   UNL     1      -3.084  10.177  16.888  0.00  0.00    +0.000 C 
ATOM      3  C   UNL     1      -4.374  10.930  17.275  0.00  0.00    +0.000 C 
ATOM      4  O   UNL     1      -4.464  11.595  18.527  0.00  0.00    +0.000 OA
ATOM      5  C   UNL     1      -3.287  11.902  19.137  0.00  0.00    +0.000 A 
ATOM      6  C   UNL     1      -3.399  12.794  20.213  0.00  0.00    +0.000 A 
ATOM      7  C   UNL     1      -2.289  13.117  20.989  0.00  0.00    +0.000 A 
ATOM      8  C   UNL     1      -1.062  12.538  20.695  0.00  0.00    +0.000 A 
ATOM      9  C   UNL     1      -0.958  11.649  19.618  0.00  0.00    +0.000 A 
ATOM     10  C   UNL     1       0.349  11.006  19.351  0.00  0.00    +0.000 A 
ATOM     11  O   UNL     1       1.364  11.384  19.936  0.00  0.00    +0.000 OA
ATOM     12  C   UNL     1       0.385   9.884  18.380  0.00  0.00    +0.000 A 
ATOM     13  C   UNL     1      -0.729   9.683  17.659  0.00  0.00    +0.000 A 
ATOM     14  N   UNL     1      -1.913  10.411  17.753  0.00  0.00    +0.000 N 
ATOM     15  C   UNL     1      -2.063  11.324  18.808  0.00  0.00    +0.000 A 
ENDROOT
BRANCH  12  16
ATOM     16  C   UNL     1       1.573   8.991  18.175  0.00  0.00    +0.000 C 
ATOM     17  O   UNL     1       2.451   9.263  17.361  0.00  0.00    +0.000 OA
ATOM     18  N   UNL     1       1.596   7.865  18.966  0.00  0.00    +0.000 N 
ATOM     19  H   UNL     1       0.851   7.763  19.657  0.00  0.00    +0.000 HD
BRANCH  18  20
ATOM     20  C   UNL     1       2.715   6.932  19.011  0.00  0.00    +0.000 C 
ATOM     21  C   UNL     1       2.729   6.141  20.326  0.00  0.00    +0.000 C 
ATOM     22  C   UNL     1       1.566   5.154  20.414  0.00  0.00    +0.000 C 
ATOM     23  C   UNL     1       1.565   4.188  19.233  0.00  0.00    +0.000 C 
ATOM     24  C   UNL     1       1.584   4.918  17.893  0.00  0.00    +0.000 C 
ATOM     25  C   UNL     1       2.691   5.973  17.811  0.00  0.00    +0.000 C 
ENDBRANCH  18  20
ENDBRANCH  12  16
TORSDOF 2
ENDMDL
MODEL 4
REMARK VINA RESULT:      -6.7      2.102      4.028
REMARK  Name = 
REMARK  3 active torsions:
REMARK  status: ('A' for Active; 'I' for Inactive)
REMARK    1  A    between atoms: C_1  and  C_2
REMARK    2  A    between atoms: C_12  and  C_13
REMARK    3  A    between atoms: N_15  and  C_16
REMARK                            x       y       z     vdW  Elec       q    Type
REMARK                         _______ _______ _______ _____ _____    ______ ____
ROOT
ATOM      1  C   UNL     1      -0.897   8.512  22.167  0.00  0.00    +0.000 C 
ATOM      2  C   UNL     1       0.393   9.347  22.090  0.00  0.00    +0.000 C 
ATOM      3  C   UNL     1       0.035  10.815  22.406  0.00  0.00    +0.000 C 
ATOM      4  O   UNL     1       0.561  11.865  21.608  0.00  0.00    +0.000 OA
ATOM      5  C   UNL     1       1.000  11.523  20.367  0.00  0.00    +0.000 A 
ATOM      6  C   UNL     1       1.247  12.607  19.513  0.00  0.00    +0.000 A 
ATOM      7  C   UNL     1       1.795  12.407  18.248  0.00  0.00    +0.000 A 
ATOM      8  C   UNL     1       2.106  11.118  17.838  0.00  0.00    +0.000 A 
ATOM      9  C   UNL     1       1.856  10.040  18.697  0.00  0.00    +0.000 A 
ATOM     10  C   UNL     1       2.239   8.678  18.258  0.00  0.00    +0.000 A 
ATOM     11  O   UNL     1       2.591   8.470  17.098  0.00  0.00    +0.000 OA
ATOM     12  C   UNL     1       2.206   7.590  19.268  0.00  0.00    +0.000 A 
ATOM     13  C   UNL     1       1.624   7.882  20.442  0.00  0.00    +0.000 A 
ATOM     14  N   UNL     1       1.072   9.108  20.804  0.00  0.00    +0.000 N 
ATOM     15  C   UNL     1       1.285  10.218  19.972  0.00  0.00    +0.000 A 
ENDROOT
BRANCH  12  16
ATOM     16  C   UNL     1       2.777   6.221  19.042  0.00  0.00    +0.000 C 
ATOM     17  O   UNL     1       2.121   5.206  19.254  0.00  0.00    +0.000 OA
ATOM     18  N   UNL     1       4.073   6.203  18.580  0.00  0.00    +0.000 N 
ATOM     19  H   UNL     1       4.510   7.103  18.374  0.00  0.00    +0.000 HD
BRANCH  18  20
ATOM     20  C   UNL     1       4.773   4.987  18.183  0.00  0.00    +0.000 C 
ATOM     21  C   UNL     1       4.703   4.773  16.665  0.00  0.00    +0.000 C 
ATOM     22  C   UNL     1       5.529   5.806  15.902  0.00  0.00    +0.000 C 
ATOM     23  C   UNL     1       6.986   5.800  16.355  0.00  0.00    +0.000 C 
ATOM     24  C   UNL     1       7.119   5.976  17.865  0.00  0.00    +0.000 C 
ATOM     25  C   UNL     1       6.236   5.005  18.654  0.00  0.00    +0.000 C 
ENDBRANCH  18  20
ENDBRANCH  12  16
TORSDOF 2
ENDMDL
MODEL 5
REMARK VINA RESULT:      -6.7      1.312      2.987
REMARK  Name = 
REMARK  3 active torsions:
REMARK  status: ('A' for Active; 'I' for Inactive)
REMARK    1  A    between atoms: C_1  and  C_2
REMARK    2  A    between atoms: C_12  and  C_13
REMARK    3  A    between atoms: N_15  and  C_16
REMARK                            x       y       z     vdW  Elec       q    Type
REMARK                         _______ _______ _______ _____ _____    ______ ____
ROOT
ATOM      1  C   UNL     1      -0.840   8.345  22.232  0.00  0.00    +0.000 C 
ATOM      2  C   UNL     1       0.353   9.315  22.182  0.00  0.00    +0.000 C 
ATOM      3  C   UNL     1      -0.126  10.693  22.684  0.00  0.00    +0.000 C 
ATOM      4  O   UNL     1       0.241  11.874  21.985  0.00  0.00    +0.000 OA
ATOM      5  C   UNL     1       0.629  11.718  20.691  0.00  0.00    +0.000 A 
ATOM      6  C   UNL     1       0.711  12.908  19.955  0.00  0.00    +0.000 A 
ATOM      7  C   UNL     1       1.191  12.905  18.648  0.00  0.00    +0.000 A 
ATOM      8  C   UNL     1       1.600  11.709  18.076  0.00  0.00    +0.000 A 
ATOM      9  C   UNL     1       1.515  10.524  18.817  0.00  0.00    +0.000 A 
ATOM     10  C   UNL     1       2.000   9.266  18.205  0.00  0.00    +0.000 A 
ATOM     11  O   UNL     1       2.294   9.223  17.011  0.00  0.00    +0.000 OA
ATOM     12  C   UNL     1       2.142   8.077  19.082  0.00  0.00    +0.000 A 
ATOM     13  C   UNL     1       1.612   8.176  20.312  0.00  0.00    +0.000 A 
ATOM     14  N   UNL     1       0.967   9.290  20.842  0.00  0.00    +0.000 N 
ATOM     15  C   UNL     1       1.014  10.500  20.133  0.00  0.00    +0.000 A 
ENDROOT
BRANCH  12  16
ATOM     16  C   UNL     1       2.829   6.809  18.670  0.00  0.00    +0.000 C 
ATOM     17  O   UNL     1       3.898   6.821  18.067  0.00  0.00    +0.000 OA
ATOM     18  N   UNL     1       2.171   5.652  19.023  0.00  0.00    +0.000 N 
ATOM     19  H   UNL     1       1.320   5.747  19.578  0.00  0.00    +0.000 HD
BRANCH  18  20
ATOM     20  C   UNL     1       2.722   4.317  18.824  0.00  0.00    +0.000 C 
ATOM     21  C   UNL     1       3.406   3.800  20.098  0.00  0.00    +0.000 C 
ATOM     22  C   UNL     1       2.399   3.501  21.207  0.00  0.00    +0.000 C 
ATOM     23  C   UNL     1       1.344   2.500  20.747  0.00  0.00    +0.000 C 
ATOM     24  C   UNL     1       0.651   2.943  19.463  0.00  0.00    +0.000 C 
ATOM     25  C   UNL     1       1.641   3.329  18.360  0.00  0.00    +0.000 C 
ENDBRANCH  18  20
ENDBRANCH  12  16
TORSDOF 2
ENDMDL
MODEL 6
REMARK VINA RESULT:      -6.5      1.999      7.758
REMARK  Name = 
REMARK  3 active torsions:
REMARK  status: ('A' for Active; 'I' for Inactive)
REMARK    1  A    between atoms: C_1  and  C_2
REMARK    2  A    between atoms: C_12  and  C_13
REMARK    3  A    between atoms: N_15  and  C_16
REMARK                            x       y       z     vdW  Elec       q    Type
REMARK                         _______ _______ _______ _____ _____    ______ ____
ROOT
ATOM      1  C   UNL     1       3.113   2.821  21.114  0.00  0.00    +0.000 C 
ATOM      2  C   UNL     1       2.588   3.037  19.685  0.00  0.00    +0.000 C 
ATOM      3  C   UNL     1       3.267   2.004  18.762  0.00  0.00    +0.000 C 
ATOM      4  O   UNL     1       3.784   2.405  17.501  0.00  0.00    +0.000 OA
ATOM      5  C   UNL     1       4.042   3.731  17.344  0.00  0.00    +0.000 A 
ATOM      6  C   UNL     1       4.803   4.051  16.211  0.00  0.00    +0.000 A 
ATOM      7  C   UNL     1       5.055   5.379  15.875  0.00  0.00    +0.000 A 
ATOM      8  C   UNL     1       4.537   6.392  16.669  0.00  0.00    +0.000 A 
ATOM      9  C   UNL     1       3.778   6.065  17.800  0.00  0.00    +0.000 A 
ATOM     10  C   UNL     1       3.194   7.161  18.606  0.00  0.00    +0.000 A 
ATOM     11  O   UNL     1       3.522   8.330  18.404  0.00  0.00    +0.000 OA
ATOM     12  C   UNL     1       2.191   6.803  19.640  0.00  0.00    +0.000 A 
ATOM     13  C   UNL     1       2.053   5.495  19.910  0.00  0.00    +0.000 A 
ATOM     14  N   UNL     1       2.743   4.451  19.300  0.00  0.00    +0.000 N 
ATOM     15  C   UNL     1       3.527   4.729  18.169  0.00  0.00    +0.000 A 
ENDROOT
BRANCH  12  16
ATOM     16  C   UNL     1       1.350   7.806  20.373  0.00  0.00    +0.000 C 
ATOM     17  O   UNL     1       0.772   7.522  21.418  0.00  0.00    +0.000 OA
ATOM     18  N   UNL     1       1.286   9.049  19.785  0.00  0.00    +0.000 N 
ATOM     19  H   UNL     1       1.854   9.202  18.951  0.00  0.00    +0.000 HD
BRANCH  18  20
ATOM     20  C   UNL     1       0.625  10.197  20.393  0.00  0.00    +0.000 C 
ATOM     21  C   UNL     1       1.332  11.509  20.024  0.00  0.00    +0.000 C 
ATOM     22  C   UNL     1       1.153  11.860  18.548  0.00  0.00    +0.000 C 
ATOM     23  C   UNL     1      -0.323  11.947  18.171  0.00  0.00    +0.000 C 
ATOM     24  C   UNL     1      -1.088  10.682  18.545  0.00  0.00    +0.000 C 
ATOM     25  C   UNL     1      -0.859  10.260  19.999  0.00  0.00    +0.000 C 
ENDBRANCH  18  20
ENDBRANCH  12  16
TORSDOF 2
ENDMDL
MODEL 7
REMARK VINA RESULT:      -6.4      2.249      7.683
REMARK  Name = 
REMARK  3 active torsions:
REMARK  status: ('A' for Active; 'I' for Inactive)
REMARK    1  A    between atoms: C_1  and  C_2
REMARK    2  A    between atoms: C_12  and  C_13
REMARK    3  A    between atoms: N_15  and  C_16
REMARK                            x       y       z     vdW  Elec       q    Type
REMARK                         _______ _______ _______ _____ _____    ______ ____
ROOT
ATOM      1  C   UNL     1       2.251   3.624  20.757  0.00  0.00    +0.000 C 
ATOM      2  C   UNL     1       2.122   3.511  19.229  0.00  0.00    +0.000 C 
ATOM      3  C   UNL     1       2.684   2.140  18.799  0.00  0.00    +0.000 C 
ATOM      4  O   UNL     1       3.547   2.044  17.675  0.00  0.00    +0.000 OA
ATOM      5  C   UNL     1       4.175   3.189  17.291  0.00  0.00    +0.000 A 
ATOM      6  C   UNL     1       5.219   3.006  16.373  0.00  0.00    +0.000 A 
ATOM      7  C   UNL     1       5.880   4.100  15.820  0.00  0.00    +0.000 A 
ATOM      8  C   UNL     1       5.491   5.383  16.179  0.00  0.00    +0.000 A 
ATOM      9  C   UNL     1       4.448   5.557  17.098  0.00  0.00    +0.000 A 
ATOM     10  C   UNL     1       4.017   6.934  17.431  0.00  0.00    +0.000 A 
ATOM     11  O   UNL     1       4.679   7.904  17.062  0.00  0.00    +0.000 OA
ATOM     12  C   UNL     1       2.757   7.100  18.198  0.00  0.00    +0.000 A 
ATOM     13  C   UNL     1       2.222   5.983  18.717  0.00  0.00    +0.000 A 
ATOM     14  N   UNL     1       2.726   4.691  18.583  0.00  0.00    +0.000 N 
ATOM     15  C   UNL     1       3.779   4.465  17.683  0.00  0.00    +0.000 A 
ENDROOT
BRANCH  12  16
ATOM     16  C   UNL     1       2.075   8.419  18.413  0.00  0.00    +0.000 C 
ATOM     17  O   UNL     1       1.969   9.244  17.511  0.00  0.00    +0.000 OA
ATOM     18  N   UNL     1       1.584   8.617  19.684  0.00  0.00    +0.000 N 
ATOM     19  H   UNL     1       1.667   7.843  20.344  0.00  0.00    +0.000 HD
BRANCH  18  20
ATOM     20  C   UNL     1       0.786   9.774  20.070  0.00  0.00    +0.000 C 
ATOM     21  C   UNL     1      -0.658   9.372  20.400  0.00  0.00    +0.000 C 
ATOM     22  C   UNL     1      -0.745   8.557  21.689  0.00  0.00    +0.000 C 
ATOM     23  C   UNL     1      -0.140   9.313  22.868  0.00  0.00    +0.000 C 
ATOM     24  C   UNL     1       1.288   9.769  22.587  0.00  0.00    +0.000 C 
ATOM     25  C   UNL     1       1.418  10.518  21.257  0.00  0.00    +0.000 C 
ENDBRANCH  18  20
ENDBRANCH  12  16
TORSDOF 2
ENDMDL
MODEL 8
REMARK VINA RESULT:      -6.3      4.947      7.027
REMARK  Name = 
REMARK  3 active torsions:
REMARK  status: ('A' for Active; 'I' for Inactive)
REMARK    1  A    between atoms: C_1  and  C_2
REMARK    2  A    between atoms: C_12  and  C_13
REMARK    3  A    between atoms: N_15  and  C_16
REMARK                            x       y       z     vdW  Elec       q    Type
REMARK                         _______ _______ _______ _____ _____    ______ ____
ROOT
ATOM      1  C   UNL     1      -0.812  17.059  18.332  0.00  0.00    +0.000 C 
ATOM      2  C   UNL     1       0.325  16.788  19.332  0.00  0.00    +0.000 C 
ATOM      3  C   UNL     1       1.256  18.019  19.346  0.00  0.00    +0.000 C 
ATOM      4  O   UNL     1       2.665  17.847  19.314  0.00  0.00    +0.000 OA
ATOM      5  C   UNL     1       3.122  16.653  18.849  0.00  0.00    +0.000 A 
ATOM      6  C   UNL     1       4.495  16.619  18.568  0.00  0.00    +0.000 A 
ATOM      7  C   UNL     1       5.113  15.432  18.180  0.00  0.00    +0.000 A 
ATOM      8  C   UNL     1       4.357  14.272  18.082  0.00  0.00    +0.000 A 
ATOM      9  C   UNL     1       2.986  14.315  18.363  0.00  0.00    +0.000 A 
ATOM     10  C   UNL     1       2.207  13.056  18.298  0.00  0.00    +0.000 A 
ATOM     11  O   UNL     1       2.706  12.036  17.825  0.00  0.00    +0.000 OA
ATOM     12  C   UNL     1       0.826  13.066  18.843  0.00  0.00    +0.000 A 
ATOM     13  C   UNL     1       0.315  14.269  19.152  0.00  0.00    +0.000 A 
ATOM     14  N   UNL     1       0.964  15.495  19.030  0.00  0.00    +0.000 N 
ATOM     15  C   UNL     1       2.337  15.507  18.738  0.00  0.00    +0.000 A 
ENDROOT
BRANCH  12  16
ATOM     16  C   UNL     1       0.002  11.831  19.057  0.00  0.00    +0.000 C 
ATOM     17  O   UNL     1       0.095  11.164  20.082  0.00  0.00    +0.000 OA
ATOM     18  N   UNL     1      -0.855  11.521  18.025  0.00  0.00    +0.000 N 
ATOM     19  H   UNL     1      -0.904  12.175  17.243  0.00  0.00    +0.000 HD
BRANCH  18  20
ATOM     20  C   UNL     1      -1.826  10.435  18.081  0.00  0.00    +0.000 C 
ATOM     21  C   UNL     1      -3.195  10.935  18.564  0.00  0.00    +0.000 C 
ATOM     22  C   UNL     1      -3.873  11.835  17.533  0.00  0.00    +0.000 C 
ATOM     23  C   UNL     1      -4.029  11.125  16.191  0.00  0.00    +0.000 C 
ATOM     24  C   UNL     1      -2.704  10.575  15.674  0.00  0.00    +0.000 C 
ATOM     25  C   UNL     1      -1.963   9.737  16.719  0.00  0.00    +0.000 C 
ENDBRANCH  18  20
ENDBRANCH  12  16
TORSDOF 2
ENDMDL
MODEL 9
REMARK VINA RESULT:      -6.3      5.003      7.656
REMARK  Name = 
REMARK  3 active torsions:
REMARK  status: ('A' for Active; 'I' for Inactive)
REMARK    1  A    between atoms: C_1  and  C_2
REMARK    2  A    between atoms: C_12  and  C_13
REMARK    3  A    between atoms: N_15  and  C_16
REMARK                            x       y       z     vdW  Elec       q    Type
REMARK                         _______ _______ _______ _____ _____    ______ ____
ROOT
ATOM      1  C   UNL     1      -3.988  12.737  21.889  0.00  0.00    +0.000 C 
ATOM      2  C   UNL     1      -3.865  13.108  20.402  0.00  0.00    +0.000 C 
ATOM      3  C   UNL     1      -5.186  12.730  19.701  0.00  0.00    +0.000 C 
ATOM      4  O   UNL     1      -5.163  12.061  18.448  0.00  0.00    +0.000 OA
ATOM      5  C   UNL     1      -4.012  11.411  18.128  0.00  0.00    +0.000 A 
ATOM      6  C   UNL     1      -4.115  10.539  17.035  0.00  0.00    +0.000 A 
ATOM      7  C   UNL     1      -2.990   9.886  16.537  0.00  0.00    +0.000 A 
ATOM      8  C   UNL     1      -1.755  10.111  17.128  0.00  0.00    +0.000 A 
ATOM      9  C   UNL     1      -1.660  10.983  18.220  0.00  0.00    +0.000 A 
ATOM     10  C   UNL     1      -0.326  11.246  18.806  0.00  0.00    +0.000 A 
ATOM     11  O   UNL     1       0.649  10.575  18.471  0.00  0.00    +0.000 OA
ATOM     12  C   UNL     1      -0.205  12.356  19.785  0.00  0.00    +0.000 A 
ATOM     13  C   UNL     1      -1.354  12.891  20.225  0.00  0.00    +0.000 A 
ATOM     14  N   UNL     1      -2.639  12.519  19.835  0.00  0.00    +0.000 N 
ATOM     15  C   UNL     1      -2.787  11.639  18.752  0.00  0.00    +0.000 A 
ENDROOT
BRANCH  12  16
ATOM     16  C   UNL     1       1.104  12.889  20.289  0.00  0.00    +0.000 C 
ATOM     17  O   UNL     1       1.670  12.397  21.260  0.00  0.00    +0.000 OA
ATOM     18  N   UNL     1       1.607  13.955  19.577  0.00  0.00    +0.000 N 
ATOM     19  H   UNL     1       1.092  14.249  18.747  0.00  0.00    +0.000 HD
BRANCH  18  20
ATOM     20  C   UNL     1       2.918  14.544  19.824  0.00  0.00    +0.000 C 
ATOM     21  C   UNL     1       3.837  14.392  18.604  0.00  0.00    +0.000 C 
ATOM     22  C   UNL     1       3.381  15.259  17.432  0.00  0.00    +0.000 C 
ATOM     23  C   UNL     1       3.292  16.730  17.829  0.00  0.00    +0.000 C 
ATOM     24  C   UNL     1       2.416  16.941  19.060  0.00  0.00    +0.000 C 
ATOM     25  C   UNL     1       2.800  16.023  20.224  0.00  0.00    +0.000 C 
ENDBRANCH  18  20
ENDBRANCH  12  16
TORSDOF 2
ENDMDL
