MODEL 1
REMARK VINA RESULT:      -9.0      0.000      0.000
REMARK  Name = 
REMARK  5 active torsions:
REMARK  status: ('A' for Active; 'I' for Inactive)
REMARK    1  A    between atoms: C_2  and  C_14
REMARK    2  A    between atoms: N_3  and  N_4
REMARK    3  A    between atoms: N_4  and  S_5
REMARK    4  A    between atoms: S_5  and  C_8
REMARK    5  A    between atoms: C_18  and  C_19
REMARK                            x       y       z     vdW  Elec       q    Type
REMARK                         _______ _______ _______ _____ _____    ______ ____
ROOT
ATOM      1  O   UNL     1       5.785   3.735  19.279  0.00  0.00    +0.000 OA
ATOM      2  C   UNL     1       4.745   4.121  18.756  0.00  0.00    +0.000 C 
ATOM      3  N   UNL     1       4.521   4.135  17.391  0.00  0.00    +0.000 N 
ATOM      4  H   UNL     1       3.593   4.250  16.988  0.00  0.00    +0.000 HD
ENDROOT
BRANCH   2   5
ATOM      5  C   UNL     1       3.577   4.560  19.579  0.00  0.00    +0.000 A 
ATOM      6  C   UNL     1       2.807   3.626  20.269  0.00  0.00    +0.000 A 
ATOM      7  C   UNL     1       1.682   4.054  20.968  0.00  0.00    +0.000 A 
ATOM      8  C   UNL     1       1.308   5.405  20.938  0.00  0.00    +0.000 A 
ATOM      9  C   UNL     1       2.066   6.374  20.256  0.00  0.00    +0.000 A 
ATOM     10  C   UNL     1       3.242   5.922  19.641  0.00  0.00    +0.000 A 
BRANCH   9  11
ATOM     11  C   UNL     1       1.649   7.807  20.199  0.00  0.00    +0.000 A 
ATOM     12  C   UNL     1       1.069   8.401  21.342  0.00  0.00    +0.000 A 
ATOM     13  C   UNL     1       0.618   9.726  21.350  0.00  0.00    +0.000 A 
ATOM     14  C   UNL     1       0.764  10.516  20.219  0.00  0.00    +0.000 A 
ATOM     15  C   UNL     1       1.344   9.976  19.078  0.00  0.00    +0.000 A 
ATOM     16  C   UNL     1       1.762   8.636  19.053  0.00  0.00    +0.000 A 
ATOM     17 CL   UNL     1       2.339   8.086  17.509  0.00  0.00    +0.000 Cl
ENDBRANCH   9  11
ENDBRANCH   2   5
BRANCH   3  18
ATOM     18  N   UNL     1       5.571   3.715  16.491  0.00  0.00    +0.000 NA
ATOM     19  H   UNL     1       5.405   2.899  15.893  0.00  0.00    +0.000 HD
BRANCH  18  20
ATOM     20  S   UNL     1       6.694   4.887  16.005  0.00  0.00    +0.000 S 
ATOM     21  O   UNL     1       6.090   6.180  16.227  0.00  0.00    +0.000 OA
ATOM     22  O   UNL     1       7.973   4.553  16.594  0.00  0.00    +0.000 OA
BRANCH  20  23
ATOM     23  C   UNL     1       6.775   4.595  14.262  0.00  0.00    +0.000 A 
ATOM     24  C   UNL     1       5.955   3.624  13.677  0.00  0.00    +0.000 A 
ATOM     25  C   UNL     1       6.081   3.357  12.315  0.00  0.00    +0.000 A 
ATOM     26  C   UNL     1       7.006   4.066  11.545  0.00  0.00    +0.000 A 
ATOM     27  C   UNL     1       7.788   5.066  12.127  0.00  0.00    +0.000 A 
ATOM     28  C   UNL     1       7.669   5.340  13.488  0.00  0.00    +0.000 A 
ENDBRANCH  20  23
ENDBRANCH  18  20
ENDBRANCH   3  18
TORSDOF 5
ENDMDL
MODEL 2
REMARK VINA RESULT:      -8.5      4.417      8.660
REMARK  Name = 
REMARK  5 active torsions:
REMARK  status: ('A' for Active; 'I' for Inactive)
REMARK    1  A    between atoms: C_2  and  C_14
REMARK    2  A    between atoms: N_3  and  N_4
REMARK    3  A    between atoms: N_4  and  S_5
REMARK    4  A    between atoms: S_5  and  C_8
REMARK    5  A    between atoms: C_18  and  C_19
REMARK                            x       y       z     vdW  Elec       q    Type
REMARK                         _______ _______ _______ _____ _____    ______ ____
ROOT
ATOM      1  O   UNL     1       1.873   8.748  19.328  0.00  0.00    +0.000 OA
ATOM      2  C   UNL     1       2.013   7.850  20.150  0.00  0.00    +0.000 C 
ATOM      3  N   UNL     1       1.823   8.009  21.512  0.00  0.00    +0.000 N 
ATOM      4  H   UNL     1       1.731   7.220  22.149  0.00  0.00    +0.000 HD
ENDROOT
BRANCH   2   5
ATOM      5  C   UNL     1       2.346   6.455  19.731  0.00  0.00    +0.000 A 
ATOM      6  C   UNL     1       1.669   5.370  20.284  0.00  0.00    +0.000 A 
ATOM      7  C   UNL     1       2.050   4.078  19.930  0.00  0.00    +0.000 A 
ATOM      8  C   UNL     1       3.131   3.877  19.060  0.00  0.00    +0.000 A 
ATOM      9  C   UNL     1       3.832   4.950  18.481  0.00  0.00    +0.000 A 
ATOM     10  C   UNL     1       3.363   6.235  18.787  0.00  0.00    +0.000 A 
BRANCH   9  11
ATOM     11  C   UNL     1       5.003   4.735  17.580  0.00  0.00    +0.000 A 
ATOM     12  C   UNL     1       4.791   4.190  16.294  0.00  0.00    +0.000 A 
ATOM     13  C   UNL     1       5.843   3.922  15.411  0.00  0.00    +0.000 A 
ATOM     14  C   UNL     1       7.148   4.226  15.773  0.00  0.00    +0.000 A 
ATOM     15  C   UNL     1       7.399   4.779  17.023  0.00  0.00    +0.000 A 
ATOM     16  C   UNL     1       6.351   5.011  17.926  0.00  0.00    +0.000 A 
ATOM     17 CL   UNL     1       6.854   5.578  19.490  0.00  0.00    +0.000 Cl
ENDBRANCH   9  11
ENDBRANCH   2   5
BRANCH   3  18
ATOM     18  N   UNL     1       1.479   9.311  22.038  0.00  0.00    +0.000 NA
ATOM     19  H   UNL     1       2.125  10.090  21.875  0.00  0.00    +0.000 HD
BRANCH  18  20
ATOM     20  S   UNL     1      -0.163   9.633  22.302  0.00  0.00    +0.000 S 
ATOM     21  O   UNL     1      -0.887   8.409  22.054  0.00  0.00    +0.000 OA
ATOM     22  O   UNL     1      -0.286  10.326  23.566  0.00  0.00    +0.000 OA
BRANCH  20  23
ATOM     23  C   UNL     1      -0.513  10.769  20.991  0.00  0.00    +0.000 A 
ATOM     24  C   UNL     1      -0.975  10.295  19.760  0.00  0.00    +0.000 A 
ATOM     25  C   UNL     1      -1.178  11.197  18.716  0.00  0.00    +0.000 A 
ATOM     26  C   UNL     1      -0.937  12.558  18.910  0.00  0.00    +0.000 A 
ATOM     27  C   UNL     1      -0.520  13.030  20.157  0.00  0.00    +0.000 A 
ATOM     28  C   UNL     1      -0.314  12.136  21.205  0.00  0.00    +0.000 A 
ENDBRANCH  20  23
ENDBRANCH  18  20
ENDBRANCH   3  18
TORSDOF 5
ENDMDL
MODEL 3
REMARK VINA RESULT:      -8.4      4.557      9.379
REMARK  Name = 
REMARK  5 active torsions:
REMARK  status: ('A' for Active; 'I' for Inactive)
REMARK    1  A    between atoms: C_2  and  C_14
REMARK    2  A    between atoms: N_3  and  N_4
REMARK    3  A    between atoms: N_4  and  S_5
REMARK    4  A    between atoms: S_5  and  C_8
REMARK    5  A    between atoms: C_18  and  C_19
REMARK                            x       y       z     vdW  Elec       q    Type
REMARK                         _______ _______ _______ _____ _____    ______ ____
ROOT
ATOM      1  O   UNL     1       1.660   8.628  18.876  0.00  0.00    +0.000 OA
ATOM      2  C   UNL     1       1.901   7.881  19.817  0.00  0.00    +0.000 C 
ATOM      3  N   UNL     1       1.640   8.191  21.141  0.00  0.00    +0.000 N 
ATOM      4  H   UNL     1       1.642   7.490  21.879  0.00  0.00    +0.000 HD
ENDROOT
BRANCH   2   5
ATOM      5  C   UNL     1       2.452   6.509  19.601  0.00  0.00    +0.000 A 
ATOM      6  C   UNL     1       2.094   5.461  20.447  0.00  0.00    +0.000 A 
ATOM      7  C   UNL     1       2.678   4.210  20.268  0.00  0.00    +0.000 A 
ATOM      8  C   UNL     1       3.649   4.024  19.273  0.00  0.00    +0.000 A 
ATOM      9  C   UNL     1       4.029   5.058  18.398  0.00  0.00    +0.000 A 
ATOM     10  C   UNL     1       3.353   6.278  18.549  0.00  0.00    +0.000 A 
BRANCH   9  11
ATOM     11  C   UNL     1       5.085   4.868  17.360  0.00  0.00    +0.000 A 
ATOM     12  C   UNL     1       4.702   4.514  16.047  0.00  0.00    +0.000 A 
ATOM     13  C   UNL     1       5.637   4.279  15.032  0.00  0.00    +0.000 A 
ATOM     14  C   UNL     1       6.993   4.426  15.290  0.00  0.00    +0.000 A 
ATOM     15  C   UNL     1       7.411   4.789  16.564  0.00  0.00    +0.000 A 
ATOM     16  C   UNL     1       6.479   4.986  17.594  0.00  0.00    +0.000 A 
ATOM     17 CL   UNL     1       7.178   5.301  19.153  0.00  0.00    +0.000 Cl
ENDBRANCH   9  11
ENDBRANCH   2   5
BRANCH   3  18
ATOM     18  N   UNL     1       1.088   9.484  21.476  0.00  0.00    +0.000 NA
ATOM     19  H   UNL     1       1.125  10.228  20.772  0.00  0.00    +0.000 HD
BRANCH  18  20
ATOM     20  S   UNL     1      -0.109   9.531  22.674  0.00  0.00    +0.000 S 
ATOM     21  O   UNL     1      -1.002   8.423  22.434  0.00  0.00    +0.000 OA
ATOM     22  O   UNL     1       0.546   9.696  23.954  0.00  0.00    +0.000 OA
BRANCH  20  23
ATOM     23  C   UNL     1      -0.953  11.033  22.268  0.00  0.00    +0.000 A 
ATOM     24  C   UNL     1      -1.830  11.612  23.190  0.00  0.00    +0.000 A 
ATOM     25  C   UNL     1      -2.540  12.756  22.828  0.00  0.00    +0.000 A 
ATOM     26  C   UNL     1      -2.361  13.321  21.564  0.00  0.00    +0.000 A 
ATOM     27  C   UNL     1      -1.448  12.763  20.665  0.00  0.00    +0.000 A 
ATOM     28  C   UNL     1      -0.734  11.620  21.019  0.00  0.00    +0.000 A 
ENDBRANCH  20  23
ENDBRANCH  18  20
ENDBRANCH   3  18
TORSDOF 5
ENDMDL
MODEL 4
REMARK VINA RESULT:      -8.4      1.080      1.313
REMARK  Name = 
REMARK  5 active torsions:
REMARK  status: ('A' for Active; 'I' for Inactive)
REMARK    1  A    between atoms: C_2  and  C_14
REMARK    2  A    between atoms: N_3  and  N_4
REMARK    3  A    between atoms: N_4  and  S_5
REMARK    4  A    between atoms: S_5  and  C_8
REMARK    5  A    between atoms: C_18  and  C_19
REMARK                            x       y       z     vdW  Elec       q    Type
REMARK                         _______ _______ _______ _____ _____    ______ ____
ROOT
ATOM      1  O   UNL     1       6.688   4.500  18.647  0.00  0.00    +0.000 OA
ATOM      2  C   UNL     1       5.544   4.333  18.237  0.00  0.00    +0.000 C 
ATOM      3  N   UNL     1       5.232   3.935  16.949  0.00  0.00    +0.000 N 
ATOM      4  H   UNL     1       4.309   3.595  16.688  0.00  0.00    +0.000 HD
ENDROOT
BRANCH   2   5
ATOM      5  C   UNL     1       4.363   4.488  19.140  0.00  0.00    +0.000 A 
ATOM      6  C   UNL     1       3.817   3.381  19.785  0.00  0.00    +0.000 A 
ATOM      7  C   UNL     1       2.672   3.542  20.562  0.00  0.00    +0.000 A 
ATOM      8  C   UNL     1       2.057   4.798  20.655  0.00  0.00    +0.000 A 
ATOM      9  C   UNL     1       2.586   5.937  20.021  0.00  0.00    +0.000 A 
ATOM     10  C   UNL     1       3.789   5.756  19.323  0.00  0.00    +0.000 A 
BRANCH   9  11
ATOM     11  C   UNL     1       1.912   7.267  20.094  0.00  0.00    +0.000 A 
ATOM     12  C   UNL     1       1.174   7.601  21.252  0.00  0.00    +0.000 A 
ATOM     13  C   UNL     1       0.482   8.812  21.376  0.00  0.00    +0.000 A 
ATOM     14  C   UNL     1       0.536   9.750  20.354  0.00  0.00    +0.000 A 
ATOM     15  C   UNL     1       1.264   9.468  19.205  0.00  0.00    +0.000 A 
ATOM     16  C   UNL     1       1.926   8.239  19.060  0.00  0.00    +0.000 A 
ATOM     17 CL   UNL     1       2.673   7.996  17.511  0.00  0.00    +0.000 Cl
ENDBRANCH   9  11
ENDBRANCH   2   5
BRANCH   3  18
ATOM     18  N   UNL     1       6.292   3.734  15.987  0.00  0.00    +0.000 NA
ATOM     19  H   UNL     1       6.623   2.779  15.816  0.00  0.00    +0.000 HD
BRANCH  18  20
ATOM     20  S   UNL     1       6.477   4.906  14.778  0.00  0.00    +0.000 S 
ATOM     21  O   UNL     1       5.442   5.894  14.975  0.00  0.00    +0.000 OA
ATOM     22  O   UNL     1       7.871   5.289  14.734  0.00  0.00    +0.000 OA
BRANCH  20  23
ATOM     23  C   UNL     1       6.095   3.974  13.324  0.00  0.00    +0.000 A 
ATOM     24  C   UNL     1       4.767   3.837  12.910  0.00  0.00    +0.000 A 
ATOM     25  C   UNL     1       4.477   3.040  11.803  0.00  0.00    +0.000 A 
ATOM     26  C   UNL     1       5.508   2.403  11.110  0.00  0.00    +0.000 A 
ATOM     27  C   UNL     1       6.837   2.582  11.501  0.00  0.00    +0.000 A 
ATOM     28  C   UNL     1       7.135   3.376  12.606  0.00  0.00    +0.000 A 
ENDBRANCH  20  23
ENDBRANCH  18  20
ENDBRANCH   3  18
TORSDOF 5
ENDMDL
MODEL 5
REMARK VINA RESULT:      -8.3      2.486      3.252
REMARK  Name = 
REMARK  5 active torsions:
REMARK  status: ('A' for Active; 'I' for Inactive)
REMARK    1  A    between atoms: C_2  and  C_14
REMARK    2  A    between atoms: N_3  and  N_4
REMARK    3  A    between atoms: N_4  and  S_5
REMARK    4  A    between atoms: S_5  and  C_8
REMARK    5  A    between atoms: C_18  and  C_19
REMARK                            x       y       z     vdW  Elec       q    Type
REMARK                         _______ _______ _______ _____ _____    ______ ____
ROOT
ATOM      1  O   UNL     1       3.647   3.511  16.705  0.00  0.00    +0.000 OA
ATOM      2  C   UNL     1       3.745   4.614  17.231  0.00  0.00    +0.000 C 
ATOM      3  N   UNL     1       4.420   5.683  16.670  0.00  0.00    +0.000 N 
ATOM      4  H   UNL     1       4.312   6.638  17.007  0.00  0.00    +0.000 HD
ENDROOT
BRANCH   2   5
ATOM      5  C   UNL     1       3.069   4.921  18.528  0.00  0.00    +0.000 A 
ATOM      6  C   UNL     1       2.705   3.893  19.396  0.00  0.00    +0.000 A 
ATOM      7  C   UNL     1       2.012   4.201  20.563  0.00  0.00    +0.000 A 
ATOM      8  C   UNL     1       1.648   5.528  20.836  0.00  0.00    +0.000 A 
ATOM      9  C   UNL     1       2.005   6.589  19.984  0.00  0.00    +0.000 A 
ATOM     10  C   UNL     1       2.782   6.253  18.866  0.00  0.00    +0.000 A 
BRANCH   9  11
ATOM     11  C   UNL     1       1.591   7.997  20.259  0.00  0.00    +0.000 A 
ATOM     12  C   UNL     1       1.303   8.383  21.587  0.00  0.00    +0.000 A 
ATOM     13  C   UNL     1       0.870   9.672  21.916  0.00  0.00    +0.000 A 
ATOM     14  C   UNL     1       0.744  10.636  20.924  0.00  0.00    +0.000 A 
ATOM     15  C   UNL     1       1.032  10.302  19.607  0.00  0.00    +0.000 A 
ATOM     16  C   UNL     1       1.428   9.000  19.268  0.00  0.00    +0.000 A 
ATOM     17 CL   UNL     1       1.617   8.720  17.564  0.00  0.00    +0.000 Cl
ENDBRANCH   9  11
ENDBRANCH   2   5
BRANCH   3  18
ATOM     18  N   UNL     1       5.100   5.515  15.406  0.00  0.00    +0.000 NA
ATOM     19  H   UNL     1       4.764   6.045  14.595  0.00  0.00    +0.000 HD
BRANCH  18  20
ATOM     20  S   UNL     1       6.715   5.005  15.453  0.00  0.00    +0.000 S 
ATOM     21  O   UNL     1       6.710   3.578  15.670  0.00  0.00    +0.000 OA
ATOM     22  O   UNL     1       7.401   5.583  14.318  0.00  0.00    +0.000 OA
BRANCH  20  23
ATOM     23  C   UNL     1       7.289   5.796  16.929  0.00  0.00    +0.000 A 
ATOM     24  C   UNL     1       7.474   7.182  16.952  0.00  0.00    +0.000 A 
ATOM     25  C   UNL     1       7.994   7.781  18.099  0.00  0.00    +0.000 A 
ATOM     26  C   UNL     1       8.309   7.001  19.214  0.00  0.00    +0.000 A 
ATOM     27  C   UNL     1       8.077   5.624  19.200  0.00  0.00    +0.000 A 
ATOM     28  C   UNL     1       7.558   5.018  18.058  0.00  0.00    +0.000 A 
ENDBRANCH  20  23
ENDBRANCH  18  20
ENDBRANCH   3  18
TORSDOF 5
ENDMDL
MODEL 6
REMARK VINA RESULT:      -8.3      1.132      1.779
REMARK  Name = 
REMARK  5 active torsions:
REMARK  status: ('A' for Active; 'I' for Inactive)
REMARK    1  A    between atoms: C_2  and  C_14
REMARK    2  A    between atoms: N_3  and  N_4
REMARK    3  A    between atoms: N_4  and  S_5
REMARK    4  A    between atoms: S_5  and  C_8
REMARK    5  A    between atoms: C_18  and  C_19
REMARK                            x       y       z     vdW  Elec       q    Type
REMARK                         _______ _______ _______ _____ _____    ______ ____
ROOT
ATOM      1  O   UNL     1       4.787   2.876  19.027  0.00  0.00    +0.000 OA
ATOM      2  C   UNL     1       4.323   3.957  18.682  0.00  0.00    +0.000 C 
ATOM      3  N   UNL     1       4.626   4.586  17.487  0.00  0.00    +0.000 N 
ATOM      4  H   UNL     1       4.078   5.362  17.121  0.00  0.00    +0.000 HD
ENDROOT
BRANCH   2   5
ATOM      5  C   UNL     1       3.314   4.674  19.520  0.00  0.00    +0.000 A 
ATOM      6  C   UNL     1       2.597   3.992  20.501  0.00  0.00    +0.000 A 
ATOM      7  C   UNL     1       1.611   4.667  21.216  0.00  0.00    +0.000 A 
ATOM      8  C   UNL     1       1.318   6.006  20.918  0.00  0.00    +0.000 A 
ATOM      9  C   UNL     1       2.026   6.724  19.938  0.00  0.00    +0.000 A 
ATOM     10  C   UNL     1       3.072   6.040  19.302  0.00  0.00    +0.000 A 
BRANCH   9  11
ATOM     11  C   UNL     1       1.692   8.140  19.599  0.00  0.00    +0.000 A 
ATOM     12  C   UNL     1       1.966   8.619  18.298  0.00  0.00    +0.000 A 
ATOM     13  C   UNL     1       1.718   9.943  17.921  0.00  0.00    +0.000 A 
ATOM     14  C   UNL     1       1.150  10.829  18.826  0.00  0.00    +0.000 A 
ATOM     15  C   UNL     1       0.849  10.393  20.111  0.00  0.00    +0.000 A 
ATOM     16  C   UNL     1       1.133   9.077  20.506  0.00  0.00    +0.000 A 
ATOM     17 CL   UNL     1       0.820   8.740  22.181  0.00  0.00    +0.000 Cl
ENDBRANCH   9  11
ENDBRANCH   2   5
BRANCH   3  18
ATOM     18  N   UNL     1       5.577   3.980  16.583  0.00  0.00    +0.000 NA
ATOM     19  H   UNL     1       5.266   3.196  16.001  0.00  0.00    +0.000 HD
BRANCH  18  20
ATOM     20  S   UNL     1       6.875   4.937  16.065  0.00  0.00    +0.000 S 
ATOM     21  O   UNL     1       6.491   6.317  16.243  0.00  0.00    +0.000 OA
ATOM     22  O   UNL     1       8.083   4.418  16.669  0.00  0.00    +0.000 OA
BRANCH  20  23
ATOM     23  C   UNL     1       6.905   4.580  14.332  0.00  0.00    +0.000 A 
ATOM     24  C   UNL     1       7.802   5.252  13.496  0.00  0.00    +0.000 A 
ATOM     25  C   UNL     1       7.764   5.011  12.123  0.00  0.00    +0.000 A 
ATOM     26  C   UNL     1       6.850   4.095  11.598  0.00  0.00    +0.000 A 
ATOM     27  C   UNL     1       5.990   3.393  12.446  0.00  0.00    +0.000 A 
ATOM     28  C   UNL     1       6.021   3.628  13.818  0.00  0.00    +0.000 A 
ENDBRANCH  20  23
ENDBRANCH  18  20
ENDBRANCH   3  18
TORSDOF 5
ENDMDL
MODEL 7
REMARK VINA RESULT:      -8.1      1.309      1.678
REMARK  Name = 
REMARK  5 active torsions:
REMARK  status: ('A' for Active; 'I' for Inactive)
REMARK    1  A    between atoms: C_2  and  C_14
REMARK    2  A    between atoms: N_3  and  N_4
REMARK    3  A    between atoms: N_4  and  S_5
REMARK    4  A    between atoms: S_5  and  C_8
REMARK    5  A    between atoms: C_18  and  C_19
REMARK                            x       y       z     vdW  Elec       q    Type
REMARK                         _______ _______ _______ _____ _____    ______ ____
ROOT
ATOM      1  O   UNL     1       3.505   4.319  16.858  0.00  0.00    +0.000 OA
ATOM      2  C   UNL     1       3.676   5.332  17.526  0.00  0.00    +0.000 C 
ATOM      3  N   UNL     1       4.502   6.378  17.152  0.00  0.00    +0.000 N 
ATOM      4  H   UNL     1       4.468   7.291  17.602  0.00  0.00    +0.000 HD
ENDROOT
BRANCH   2   5
ATOM      5  C   UNL     1       2.938   5.554  18.806  0.00  0.00    +0.000 A 
ATOM      6  C   UNL     1       2.606   4.478  19.627  0.00  0.00    +0.000 A 
ATOM      7  C   UNL     1       1.854   4.706  20.777  0.00  0.00    +0.000 A 
ATOM      8  C   UNL     1       1.401   5.999  21.077  0.00  0.00    +0.000 A 
ATOM      9  C   UNL     1       1.723   7.107  20.272  0.00  0.00    +0.000 A 
ATOM     10  C   UNL     1       2.558   6.855  19.174  0.00  0.00    +0.000 A 
BRANCH   9  11
ATOM     11  C   UNL     1       1.214   8.477  20.575  0.00  0.00    +0.000 A 
ATOM     12  C   UNL     1       0.837   8.794  21.900  0.00  0.00    +0.000 A 
ATOM     13  C   UNL     1       0.314  10.044  22.251  0.00  0.00    +0.000 A 
ATOM     14  C   UNL     1       0.183  11.037  21.290  0.00  0.00    +0.000 A 
ATOM     15  C   UNL     1       0.558  10.772  19.978  0.00  0.00    +0.000 A 
ATOM     16  C   UNL     1       1.045   9.508  19.614  0.00  0.00    +0.000 A 
ATOM     17 CL   UNL     1       1.337   9.306  17.914  0.00  0.00    +0.000 Cl
ENDBRANCH   9  11
ENDBRANCH   2   5
BRANCH   3  18
ATOM     18  N   UNL     1       5.256   6.287  15.923  0.00  0.00    +0.000 NA
ATOM     19  H   UNL     1       5.099   6.996  15.200  0.00  0.00    +0.000 HD
BRANCH  18  20
ATOM     20  S   UNL     1       6.741   5.473  15.981  0.00  0.00    +0.000 S 
ATOM     21  O   UNL     1       7.771   6.469  16.161  0.00  0.00    +0.000 OA
ATOM     22  O   UNL     1       6.609   4.365  16.902  0.00  0.00    +0.000 OA
BRANCH  20  23
ATOM     23  C   UNL     1       6.856   4.835  14.335  0.00  0.00    +0.000 A 
ATOM     24  C   UNL     1       7.777   5.381  13.436  0.00  0.00    +0.000 A 
ATOM     25  C   UNL     1       7.806   4.915  12.122  0.00  0.00    +0.000 A 
ATOM     26  C   UNL     1       6.933   3.902  11.720  0.00  0.00    +0.000 A 
ATOM     27  C   UNL     1       6.048   3.329  12.635  0.00  0.00    +0.000 A 
ATOM     28  C   UNL     1       6.012   3.789  13.950  0.00  0.00    +0.000 A 
ENDBRANCH  20  23
ENDBRANCH  18  20
ENDBRANCH   3  18
TORSDOF 5
ENDMDL
MODEL 8
REMARK VINA RESULT:      -8.1      4.052      6.135
REMARK  Name = 
REMARK  5 active torsions:
REMARK  status: ('A' for Active; 'I' for Inactive)
REMARK    1  A    between atoms: C_2  and  C_14
REMARK    2  A    between atoms: N_3  and  N_4
REMARK    3  A    between atoms: N_4  and  S_5
REMARK    4  A    between atoms: S_5  and  C_8
REMARK    5  A    between atoms: C_18  and  C_19
REMARK                            x       y       z     vdW  Elec       q    Type
REMARK                         _______ _______ _______ _____ _____    ______ ____
ROOT
ATOM      1  O   UNL     1       2.983   8.772  16.918  0.00  0.00    +0.000 OA
ATOM      2  C   UNL     1       2.494   8.245  17.911  0.00  0.00    +0.000 C 
ATOM      3  N   UNL     1       2.916   7.035  18.435  0.00  0.00    +0.000 N 
ATOM      4  H   UNL     1       2.654   6.719  19.367  0.00  0.00    +0.000 HD
ENDROOT
BRANCH   2   5
ATOM      5  C   UNL     1       1.414   8.915  18.696  0.00  0.00    +0.000 A 
ATOM      6  C   UNL     1       1.478   8.964  20.087  0.00  0.00    +0.000 A 
ATOM      7  C   UNL     1       0.423   9.531  20.798  0.00  0.00    +0.000 A 
ATOM      8  C   UNL     1      -0.708  10.005  20.118  0.00  0.00    +0.000 A 
ATOM      9  C   UNL     1      -0.802   9.975  18.715  0.00  0.00    +0.000 A 
ATOM     10  C   UNL     1       0.317   9.483  18.028  0.00  0.00    +0.000 A 
BRANCH   9  11
ATOM     11  C   UNL     1      -2.021  10.451  17.994  0.00  0.00    +0.000 A 
ATOM     12  C   UNL     1      -2.320   9.915  16.722  0.00  0.00    +0.000 A 
ATOM     13  C   UNL     1      -3.421  10.341  15.970  0.00  0.00    +0.000 A 
ATOM     14  C   UNL     1      -4.285  11.297  16.484  0.00  0.00    +0.000 A 
ATOM     15  C   UNL     1      -4.036  11.839  17.740  0.00  0.00    +0.000 A 
ATOM     16  C   UNL     1      -2.911  11.443  18.479  0.00  0.00    +0.000 A 
ATOM     17 CL   UNL     1      -2.677  12.315  19.964  0.00  0.00    +0.000 Cl
ENDBRANCH   9  11
ENDBRANCH   2   5
BRANCH   3  18
ATOM     18  N   UNL     1       3.969   6.299  17.773  0.00  0.00    +0.000 NA
ATOM     19  H   UNL     1       4.560   6.793  17.097  0.00  0.00    +0.000 HD
BRANCH  18  20
ATOM     20  S   UNL     1       4.575   4.930  18.564  0.00  0.00    +0.000 S 
ATOM     21  O   UNL     1       5.196   4.093  17.564  0.00  0.00    +0.000 OA
ATOM     22  O   UNL     1       5.316   5.375  19.725  0.00  0.00    +0.000 OA
BRANCH  20  23
ATOM     23  C   UNL     1       3.084   4.147  19.106  0.00  0.00    +0.000 A 
ATOM     24  C   UNL     1       2.313   3.410  18.202  0.00  0.00    +0.000 A 
ATOM     25  C   UNL     1       1.105   2.859  18.627  0.00  0.00    +0.000 A 
ATOM     26  C   UNL     1       0.683   3.032  19.946  0.00  0.00    +0.000 A 
ATOM     27  C   UNL     1       1.480   3.731  20.856  0.00  0.00    +0.000 A 
ATOM     28  C   UNL     1       2.689   4.284  20.439  0.00  0.00    +0.000 A 
ENDBRANCH  20  23
ENDBRANCH  18  20
ENDBRANCH   3  18
TORSDOF 5
ENDMDL
MODEL 9
REMARK VINA RESULT:      -8.1      5.176      9.235
REMARK  Name = 
REMARK  5 active torsions:
REMARK  status: ('A' for Active; 'I' for Inactive)
REMARK    1  A    between atoms: C_2  and  C_14
REMARK    2  A    between atoms: N_3  and  N_4
REMARK    3  A    between atoms: N_4  and  S_5
REMARK    4  A    between atoms: S_5  and  C_8
REMARK    5  A    between atoms: C_18  and  C_19
REMARK                            x       y       z     vdW  Elec       q    Type
REMARK                         _______ _______ _______ _____ _____    ______ ____
ROOT
ATOM      1  O   UNL     1       2.571  10.308  17.461  0.00  0.00    +0.000 OA
ATOM      2  C   UNL     1       1.856   9.479  18.013  0.00  0.00    +0.000 C 
ATOM      3  N   UNL     1       0.511   9.669  18.279  0.00  0.00    +0.000 N 
ATOM      4  H   UNL     1      -0.111   8.905  18.536  0.00  0.00    +0.000 HD
ENDROOT
BRANCH   2   5
ATOM      5  C   UNL     1       2.378   8.133  18.397  0.00  0.00    +0.000 A 
ATOM      6  C   UNL     1       2.019   7.557  19.614  0.00  0.00    +0.000 A 
ATOM      7  C   UNL     1       2.578   6.334  19.980  0.00  0.00    +0.000 A 
ATOM      8  C   UNL     1       3.524   5.717  19.148  0.00  0.00    +0.000 A 
ATOM      9  C   UNL     1       3.903   6.269  17.912  0.00  0.00    +0.000 A 
ATOM     10  C   UNL     1       3.252   7.452  17.535  0.00  0.00    +0.000 A 
BRANCH   9  11
ATOM     11  C   UNL     1       4.933   5.627  17.042  0.00  0.00    +0.000 A 
ATOM     12  C   UNL     1       4.645   4.382  16.439  0.00  0.00    +0.000 A 
ATOM     13  C   UNL     1       5.576   3.702  15.646  0.00  0.00    +0.000 A 
ATOM     14  C   UNL     1       6.820   4.264  15.397  0.00  0.00    +0.000 A 
ATOM     15  C   UNL     1       7.138   5.495  15.958  0.00  0.00    +0.000 A 
ATOM     16  C   UNL     1       6.223   6.162  16.787  0.00  0.00    +0.000 A 
ATOM     17 CL   UNL     1       6.830   7.619  17.511  0.00  0.00    +0.000 Cl
ENDBRANCH   9  11
ENDBRANCH   2   5
BRANCH   3  18
ATOM     18  N   UNL     1      -0.114  10.927  17.937  0.00  0.00    +0.000 NA
ATOM     19  H   UNL     1      -0.325  11.115  16.952  0.00  0.00    +0.000 HD
BRANCH  18  20
ATOM     20  S   UNL     1      -1.018  11.699  19.143  0.00  0.00    +0.000 S 
ATOM     21  O   UNL     1      -1.001  10.845  20.307  0.00  0.00    +0.000 OA
ATOM     22  O   UNL     1      -0.574  13.074  19.224  0.00  0.00    +0.000 OA
BRANCH  20  23
ATOM     23  C   UNL     1      -2.642  11.665  18.442  0.00  0.00    +0.000 A 
ATOM     24  C   UNL     1      -3.739  12.088  19.198  0.00  0.00    +0.000 A 
ATOM     25  C   UNL     1      -5.020  11.988  18.656  0.00  0.00    +0.000 A 
ATOM     26  C   UNL     1      -5.196  11.485  17.366  0.00  0.00    +0.000 A 
ATOM     27  C   UNL     1      -4.091  11.108  16.598  0.00  0.00    +0.000 A 
ATOM     28  C   UNL     1      -2.808  11.205  17.133  0.00  0.00    +0.000 A 
ENDBRANCH  20  23
ENDBRANCH  18  20
ENDBRANCH   3  18
TORSDOF 5
ENDMDL
