MODEL 1
REMARK VINA RESULT:      -7.6      0.000      0.000
REMARK  Name = 
REMARK  9 active torsions:
REMARK  status: ('A' for Active; 'I' for Inactive)
REMARK    1  A    between atoms: C_1  and  C_2
REMARK    2  A    between atoms: C_2  and  C_3
REMARK    3  A    between atoms: C_8  and  O_9
REMARK    4  A    between atoms: O_9  and  C_10
REMARK    5  A    between atoms: C_10  and  C_11
REMARK    6  A    between atoms: C_11  and  O_12
REMARK    7  A    between atoms: C_11  and  C_13
REMARK    8  A    between atoms: C_13  and  N_14
REMARK    9  A    between atoms: N_14  and  C_15
REMARK                            x       y       z     vdW  Elec       q    Type
REMARK                         _______ _______ _______ _____ _____    ______ ____
ROOT
ATOM      1  C   UNL     1       2.210   3.635  21.011  0.00  0.00    +0.000 C 
ENDROOT
BRANCH   1   2
ATOM      2  O   UNL     1       1.483   2.819  21.945  0.00  0.00    +0.000 OA
ATOM      3  H   UNL     1       2.056   2.662  22.716  0.00  0.00    +0.000 HD
ENDBRANCH   1   2
BRANCH   1   4
ATOM      4  C   UNL     1       1.589   5.050  20.900  0.00  0.00    +0.000 C 
BRANCH   4   5
ATOM      5  O   UNL     1       2.534   5.959  20.334  0.00  0.00    +0.000 OA
BRANCH   5  11
ATOM      6  C   UNL     1       1.456   8.245  20.283  0.00  0.00    +0.000 A 
ATOM      7  C   UNL     1       1.229   9.368  19.447  0.00  0.00    +0.000 A 
ATOM      8  C   UNL     1       1.676   9.414  18.125  0.00  0.00    +0.000 A 
ATOM      9  C   UNL     1       2.365   8.330  17.610  0.00  0.00    +0.000 A 
ATOM     10  C   UNL     1       2.600   7.214  18.416  0.00  0.00    +0.000 A 
ATOM     11  C   UNL     1       2.160   7.146  19.757  0.00  0.00    +0.000 A 
BRANCH   6  13
ATOM     12  C   UNL     1       0.495   9.823  21.975  0.00  0.00    +0.000 C 
ATOM     13  C   UNL     1       0.952   8.399  21.697  0.00  0.00    +0.000 C 
ENDBRANCH   6  13
ENDBRANCH   5  11
ENDBRANCH   4   5
ENDBRANCH   1   4
BRANCH   1  14
ATOM     14  C   UNL     1       2.242   2.873  19.655  0.00  0.00    +0.000 C 
BRANCH  14  15
ATOM     15  N   UNL     1       3.540   2.268  19.346  0.00  0.00    +0.000 NA
ATOM     16  H   UNL     1       3.375   1.367  18.892  0.00  0.00    +0.000 HD
BRANCH  15  17
ATOM     17  C   UNL     1       4.418   3.079  18.461  0.00  0.00    +0.000 C 
ATOM     18  C   UNL     1       3.634   3.848  17.387  0.00  0.00    +0.000 C 
ATOM     19  C   UNL     1       4.415   4.953  16.655  0.00  0.00    +0.000 C 
ATOM     20  C   UNL     1       5.614   5.527  17.362  0.00  0.00    +0.000 A 
ATOM     21  C   UNL     1       6.361   6.538  16.731  0.00  0.00    +0.000 A 
ATOM     22  C   UNL     1       7.491   7.084  17.342  0.00  0.00    +0.000 A 
ATOM     23  C   UNL     1       7.885   6.628  18.596  0.00  0.00    +0.000 A 
ATOM     24  C   UNL     1       7.147   5.633  19.234  0.00  0.00    +0.000 A 
ATOM     25  C   UNL     1       6.015   5.071  18.622  0.00  0.00    +0.000 A 
ATOM     26  C   UNL     1       5.192   4.057  19.368  0.00  0.00    +0.000 C 
ENDBRANCH  15  17
ENDBRANCH  14  15
ENDBRANCH   1  14
TORSDOF 8
ENDMDL
MODEL 2
REMARK VINA RESULT:      -7.3      1.614      5.825
REMARK  Name = 
REMARK  9 active torsions:
REMARK  status: ('A' for Active; 'I' for Inactive)
REMARK    1  A    between atoms: C_1  and  C_2
REMARK    2  A    between atoms: C_2  and  C_3
REMARK    3  A    between atoms: C_8  and  O_9
REMARK    4  A    between atoms: O_9  and  C_10
REMARK    5  A    between atoms: C_10  and  C_11
REMARK    6  A    between atoms: C_11  and  O_12
REMARK    7  A    between atoms: C_11  and  C_13
REMARK    8  A    between atoms: C_13  and  N_14
REMARK    9  A    between atoms: N_14  and  C_15
REMARK                            x       y       z     vdW  Elec       q    Type
REMARK                         _______ _______ _______ _____ _____    ______ ____
ROOT
ATOM      1  C   UNL     1       2.994   2.687  20.405  0.00  0.00    +0.000 C 
ENDROOT
BRANCH   1   2
ATOM      2  O   UNL     1       2.947   2.496  21.830  0.00  0.00    +0.000 OA
ATOM      3  H   UNL     1       3.860   2.505  22.165  0.00  0.00    +0.000 HD
ENDBRANCH   1   2
BRANCH   1   4
ATOM      4  C   UNL     1       4.455   2.783  19.900  0.00  0.00    +0.000 C 
BRANCH   4   5
ATOM      5  O   UNL     1       4.486   3.351  18.589  0.00  0.00    +0.000 OA
BRANCH   5  11
ATOM      6  C   UNL     1       6.059   4.385  16.902  0.00  0.00    +0.000 A 
ATOM      7  C   UNL     1       7.086   5.354  16.760  0.00  0.00    +0.000 A 
ATOM      8  C   UNL     1       7.547   6.111  17.838  0.00  0.00    +0.000 A 
ATOM      9  C   UNL     1       6.987   5.914  19.089  0.00  0.00    +0.000 A 
ATOM     10  C   UNL     1       5.976   4.965  19.250  0.00  0.00    +0.000 A 
ATOM     11  C   UNL     1       5.490   4.189  18.174  0.00  0.00    +0.000 A 
BRANCH   6  13
ATOM     12  C   UNL     1       5.710   4.664  14.436  0.00  0.00    +0.000 C 
ATOM     13  C   UNL     1       5.650   3.707  15.617  0.00  0.00    +0.000 C 
ENDBRANCH   6  13
ENDBRANCH   5  11
ENDBRANCH   4   5
ENDBRANCH   1   4
BRANCH   1  14
ATOM     14  C   UNL     1       2.150   3.951  20.077  0.00  0.00    +0.000 C 
BRANCH  14  15
ATOM     15  N   UNL     1       2.411   5.086  20.968  0.00  0.00    +0.000 NA
ATOM     16  H   UNL     1       3.263   4.888  21.498  0.00  0.00    +0.000 HD
BRANCH  15  17
ATOM     17  C   UNL     1       2.583   6.396  20.285  0.00  0.00    +0.000 C 
ATOM     18  C   UNL     1       2.558   6.278  18.754  0.00  0.00    +0.000 C 
ATOM     19  C   UNL     1       2.395   7.600  17.986  0.00  0.00    +0.000 C 
ATOM     20  C   UNL     1       1.770   8.751  18.729  0.00  0.00    +0.000 A 
ATOM     21  C   UNL     1       1.603   9.982  18.069  0.00  0.00    +0.000 A 
ATOM     22  C   UNL     1       1.046  11.080  18.727  0.00  0.00    +0.000 A 
ATOM     23  C   UNL     1       0.645  10.959  20.053  0.00  0.00    +0.000 A 
ATOM     24  C   UNL     1       0.797   9.741  20.714  0.00  0.00    +0.000 A 
ATOM     25  C   UNL     1       1.366   8.634  20.063  0.00  0.00    +0.000 A 
ATOM     26  C   UNL     1       1.444   7.312  20.775  0.00  0.00    +0.000 C 
ENDBRANCH  15  17
ENDBRANCH  14  15
ENDBRANCH   1  14
TORSDOF 8
ENDMDL
MODEL 3
REMARK VINA RESULT:      -7.3      1.666      5.412
REMARK  Name = 
REMARK  9 active torsions:
REMARK  status: ('A' for Active; 'I' for Inactive)
REMARK    1  A    between atoms: C_1  and  C_2
REMARK    2  A    between atoms: C_2  and  C_3
REMARK    3  A    between atoms: C_8  and  O_9
REMARK    4  A    between atoms: O_9  and  C_10
REMARK    5  A    between atoms: C_10  and  C_11
REMARK    6  A    between atoms: C_11  and  O_12
REMARK    7  A    between atoms: C_11  and  C_13
REMARK    8  A    between atoms: C_13  and  N_14
REMARK    9  A    between atoms: N_14  and  C_15
REMARK                            x       y       z     vdW  Elec       q    Type
REMARK                         _______ _______ _______ _____ _____    ______ ____
ROOT
ATOM      1  C   UNL     1       4.579   2.573  19.300  0.00  0.00    +0.000 C 
ENDROOT
BRANCH   1   2
ATOM      2  O   UNL     1       5.179   1.590  20.161  0.00  0.00    +0.000 OA
ATOM      3  H   UNL     1       6.105   1.849  20.312  0.00  0.00    +0.000 HD
ENDBRANCH   1   2
BRANCH   1   4
ATOM      4  C   UNL     1       5.255   3.956  19.469  0.00  0.00    +0.000 C 
BRANCH   4   5
ATOM      5  O   UNL     1       6.204   4.172  18.423  0.00  0.00    +0.000 OA
BRANCH   5  11
ATOM      6  C   UNL     1       6.283   6.299  17.060  0.00  0.00    +0.000 A 
ATOM      7  C   UNL     1       6.926   7.561  16.971  0.00  0.00    +0.000 A 
ATOM      8  C   UNL     1       7.920   7.953  17.870  0.00  0.00    +0.000 A 
ATOM      9  C   UNL     1       8.293   7.086  18.882  0.00  0.00    +0.000 A 
ATOM     10  C   UNL     1       7.673   5.839  18.987  0.00  0.00    +0.000 A 
ATOM     11  C   UNL     1       6.663   5.421  18.092  0.00  0.00    +0.000 A 
BRANCH   6  13
ATOM     12  C   UNL     1       5.540   4.931  15.095  0.00  0.00    +0.000 C 
ATOM     13  C   UNL     1       5.194   6.073  16.039  0.00  0.00    +0.000 C 
ENDBRANCH   6  13
ENDBRANCH   5  11
ENDBRANCH   4   5
ENDBRANCH   1   4
BRANCH   1  14
ATOM     14  C   UNL     1       3.055   2.596  19.614  0.00  0.00    +0.000 C 
BRANCH  14  15
ATOM     15  N   UNL     1       2.247   3.243  18.576  0.00  0.00    +0.000 NA
ATOM     16  H   UNL     1       1.475   2.617  18.333  0.00  0.00    +0.000 HD
BRANCH  15  17
ATOM     17  C   UNL     1       1.672   4.561  18.957  0.00  0.00    +0.000 C 
ATOM     18  C   UNL     1       1.795   4.853  20.459  0.00  0.00    +0.000 C 
ATOM     19  C   UNL     1       1.535   6.310  20.878  0.00  0.00    +0.000 C 
ATOM     20  C   UNL     1       1.708   7.368  19.821  0.00  0.00    +0.000 A 
ATOM     21  C   UNL     1       1.478   8.715  20.156  0.00  0.00    +0.000 A 
ATOM     22  C   UNL     1       1.608   9.725  19.201  0.00  0.00    +0.000 A 
ATOM     23  C   UNL     1       1.975   9.400  17.900  0.00  0.00    +0.000 A 
ATOM     24  C   UNL     1       2.214   8.071  17.559  0.00  0.00    +0.000 A 
ATOM     25  C   UNL     1       2.075   7.047  18.510  0.00  0.00    +0.000 A 
ATOM     26  C   UNL     1       2.418   5.632  18.135  0.00  0.00    +0.000 C 
ENDBRANCH  15  17
ENDBRANCH  14  15
ENDBRANCH   1  14
TORSDOF 8
ENDMDL
MODEL 4
REMARK VINA RESULT:      -7.1      1.768      6.061
REMARK  Name = 
REMARK  9 active torsions:
REMARK  status: ('A' for Active; 'I' for Inactive)
REMARK    1  A    between atoms: C_1  and  C_2
REMARK    2  A    between atoms: C_2  and  C_3
REMARK    3  A    between atoms: C_8  and  O_9
REMARK    4  A    between atoms: O_9  and  C_10
REMARK    5  A    between atoms: C_10  and  C_11
REMARK    6  A    between atoms: C_11  and  O_12
REMARK    7  A    between atoms: C_11  and  C_13
REMARK    8  A    between atoms: C_13  and  N_14
REMARK    9  A    between atoms: N_14  and  C_15
REMARK                            x       y       z     vdW  Elec       q    Type
REMARK                         _______ _______ _______ _____ _____    ______ ____
ROOT
ATOM      1  C   UNL     1       2.425   3.123  18.793  0.00  0.00    +0.000 C 
ENDROOT
BRANCH   1   2
ATOM      2  O   UNL     1       3.234   2.354  19.699  0.00  0.00    +0.000 OA
ATOM      3  H   UNL     1       3.351   2.874  20.512  0.00  0.00    +0.000 HD
ENDBRANCH   1   2
BRANCH   1   4
ATOM      4  C   UNL     1       3.195   3.449  17.489  0.00  0.00    +0.000 C 
BRANCH   4   5
ATOM      5  O   UNL     1       4.520   3.886  17.796  0.00  0.00    +0.000 OA
BRANCH   5  11
ATOM      6  C   UNL     1       6.738   4.728  16.925  0.00  0.00    +0.000 A 
ATOM      7  C   UNL     1       7.455   4.992  15.729  0.00  0.00    +0.000 A 
ATOM      8  C   UNL     1       6.897   4.786  14.466  0.00  0.00    +0.000 A 
ATOM      9  C   UNL     1       5.601   4.310  14.373  0.00  0.00    +0.000 A 
ATOM     10  C   UNL     1       4.877   4.044  15.537  0.00  0.00    +0.000 A 
ATOM     11  C   UNL     1       5.422   4.241  16.826  0.00  0.00    +0.000 A 
BRANCH   6  13
ATOM     12  C   UNL     1       7.687   6.436  18.495  0.00  0.00    +0.000 C 
ATOM     13  C   UNL     1       7.523   4.954  18.194  0.00  0.00    +0.000 C 
ENDBRANCH   6  13
ENDBRANCH   5  11
ENDBRANCH   4   5
ENDBRANCH   1   4
BRANCH   1  14
ATOM     14  C   UNL     1       1.952   4.393  19.556  0.00  0.00    +0.000 C 
BRANCH  14  15
ATOM     15  N   UNL     1       3.046   5.268  19.985  0.00  0.00    +0.000 NA
ATOM     16  H   UNL     1       3.907   4.954  19.530  0.00  0.00    +0.000 HD
BRANCH  15  17
ATOM     17  C   UNL     1       2.858   6.711  19.675  0.00  0.00    +0.000 C 
ATOM     18  C   UNL     1       2.560   6.967  18.190  0.00  0.00    +0.000 C 
ATOM     19  C   UNL     1       2.029   8.369  17.849  0.00  0.00    +0.000 C 
ATOM     20  C   UNL     1       1.371   9.142  18.962  0.00  0.00    +0.000 A 
ATOM     21  C   UNL     1       0.873  10.431  18.698  0.00  0.00    +0.000 A 
ATOM     22  C   UNL     1       0.274  11.189  19.706  0.00  0.00    +0.000 A 
ATOM     23  C   UNL     1       0.161  10.664  20.989  0.00  0.00    +0.000 A 
ATOM     24  C   UNL     1       0.643   9.385  21.259  0.00  0.00    +0.000 A 
ATOM     25  C   UNL     1       1.257   8.619  20.254  0.00  0.00    +0.000 A 
ATOM     26  C   UNL     1       1.694   7.212  20.554  0.00  0.00    +0.000 C 
ENDBRANCH  15  17
ENDBRANCH  14  15
ENDBRANCH   1  14
TORSDOF 8
ENDMDL
MODEL 5
REMARK VINA RESULT:      -7.1      1.231      1.559
REMARK  Name = 
REMARK  9 active torsions:
REMARK  status: ('A' for Active; 'I' for Inactive)
REMARK    1  A    between atoms: C_1  and  C_2
REMARK    2  A    between atoms: C_2  and  C_3
REMARK    3  A    between atoms: C_8  and  O_9
REMARK    4  A    between atoms: O_9  and  C_10
REMARK    5  A    between atoms: C_10  and  C_11
REMARK    6  A    between atoms: C_11  and  O_12
REMARK    7  A    between atoms: C_11  and  C_13
REMARK    8  A    between atoms: C_13  and  N_14
REMARK    9  A    between atoms: N_14  and  C_15
REMARK                            x       y       z     vdW  Elec       q    Type
REMARK                         _______ _______ _______ _____ _____    ______ ____
ROOT
ATOM      1  C   UNL     1       1.513   3.592  21.196  0.00  0.00    +0.000 C 
ENDROOT
BRANCH   1   2
ATOM      2  O   UNL     1       0.330   3.850  20.422  0.00  0.00    +0.000 OA
ATOM      3  H   UNL     1       0.549   3.717  19.484  0.00  0.00    +0.000 HD
ENDBRANCH   1   2
BRANCH   1   4
ATOM      4  C   UNL     1       2.463   4.815  21.198  0.00  0.00    +0.000 C 
BRANCH   4   5
ATOM      5  O   UNL     1       1.706   6.026  21.140  0.00  0.00    +0.000 OA
BRANCH   5  11
ATOM      6  C   UNL     1       1.526   8.313  20.081  0.00  0.00    +0.000 A 
ATOM      7  C   UNL     1       1.848   9.044  18.908  0.00  0.00    +0.000 A 
ATOM      8  C   UNL     1       2.493   8.455  17.819  0.00  0.00    +0.000 A 
ATOM      9  C   UNL     1       2.831   7.114  17.881  0.00  0.00    +0.000 A 
ATOM     10  C   UNL     1       2.522   6.377  19.026  0.00  0.00    +0.000 A 
ATOM     11  C   UNL     1       1.873   6.951  20.141  0.00  0.00    +0.000 A 
BRANCH   6  13
ATOM     12  C   UNL     1      -0.469   8.561  21.578  0.00  0.00    +0.000 C 
ATOM     13  C   UNL     1       0.883   9.130  21.176  0.00  0.00    +0.000 C 
ENDBRANCH   6  13
ENDBRANCH   5  11
ENDBRANCH   4   5
ENDBRANCH   1   4
BRANCH   1  14
ATOM     14  C   UNL     1       2.174   2.307  20.619  0.00  0.00    +0.000 C 
BRANCH  14  15
ATOM     15  N   UNL     1       3.630   2.399  20.483  0.00  0.00    +0.000 NA
ATOM     16  H   UNL     1       4.044   1.546  20.866  0.00  0.00    +0.000 HD
BRANCH  15  17
ATOM     17  C   UNL     1       4.124   2.568  19.090  0.00  0.00    +0.000 C 
ATOM     18  C   UNL     1       2.991   2.813  18.083  0.00  0.00    +0.000 C 
ATOM     19  C   UNL     1       3.428   3.323  16.699  0.00  0.00    +0.000 C 
ATOM     20  C   UNL     1       4.763   4.015  16.615  0.00  0.00    +0.000 A 
ATOM     21  C   UNL     1       5.207   4.497  15.369  0.00  0.00    +0.000 A 
ATOM     22  C   UNL     1       6.446   5.126  15.244  0.00  0.00    +0.000 A 
ATOM     23  C   UNL     1       7.255   5.287  16.364  0.00  0.00    +0.000 A 
ATOM     24  C   UNL     1       6.821   4.823  17.604  0.00  0.00    +0.000 A 
ATOM     25  C   UNL     1       5.580   4.178  17.738  0.00  0.00    +0.000 A 
ATOM     26  C   UNL     1       5.103   3.760  19.101  0.00  0.00    +0.000 C 
ENDBRANCH  15  17
ENDBRANCH  14  15
ENDBRANCH   1  14
TORSDOF 8
ENDMDL
MODEL 6
REMARK VINA RESULT:      -7.0      1.059      1.876
REMARK  Name = 
REMARK  9 active torsions:
REMARK  status: ('A' for Active; 'I' for Inactive)
REMARK    1  A    between atoms: C_1  and  C_2
REMARK    2  A    between atoms: C_2  and  C_3
REMARK    3  A    between atoms: C_8  and  O_9
REMARK    4  A    between atoms: O_9  and  C_10
REMARK    5  A    between atoms: C_10  and  C_11
REMARK    6  A    between atoms: C_11  and  O_12
REMARK    7  A    between atoms: C_11  and  C_13
REMARK    8  A    between atoms: C_13  and  N_14
REMARK    9  A    between atoms: N_14  and  C_15
REMARK                            x       y       z     vdW  Elec       q    Type
REMARK                         _______ _______ _______ _____ _____    ______ ____
ROOT
ATOM      1  C   UNL     1       1.855   3.083  20.838  0.00  0.00    +0.000 C 
ENDROOT
BRANCH   1   2
ATOM      2  O   UNL     1       1.483   2.510  22.103  0.00  0.00    +0.000 OA
ATOM      3  H   UNL     1       2.267   2.069  22.475  0.00  0.00    +0.000 HD
ENDBRANCH   1   2
BRANCH   1   4
ATOM      4  C   UNL     1       1.147   4.441  20.606  0.00  0.00    +0.000 C 
BRANCH   4   5
ATOM      5  O   UNL     1       2.072   5.515  20.784  0.00  0.00    +0.000 OA
BRANCH   5  11
ATOM      6  C   UNL     1       1.580   7.922  20.193  0.00  0.00    +0.000 A 
ATOM      7  C   UNL     1       1.750   8.892  19.171  0.00  0.00    +0.000 A 
ATOM      8  C   UNL     1       2.388   8.597  17.965  0.00  0.00    +0.000 A 
ATOM      9  C   UNL     1       2.873   7.318  17.755  0.00  0.00    +0.000 A 
ATOM     10  C   UNL     1       2.716   6.349  18.747  0.00  0.00    +0.000 A 
ATOM     11  C   UNL     1       2.077   6.624  19.977  0.00  0.00    +0.000 A 
BRANCH   6  13
ATOM     12  C   UNL     1       0.837   9.958  21.453  0.00  0.00    +0.000 C 
ATOM     13  C   UNL     1       0.921   8.438  21.449  0.00  0.00    +0.000 C 
ENDBRANCH   6  13
ENDBRANCH   5  11
ENDBRANCH   4   5
ENDBRANCH   1   4
BRANCH   1  14
ATOM     14  C   UNL     1       1.532   2.030  19.739  0.00  0.00    +0.000 C 
BRANCH  14  15
ATOM     15  N   UNL     1       2.612   1.836  18.768  0.00  0.00    +0.000 NA
ATOM     16  H   UNL     1       2.199   1.532  17.883  0.00  0.00    +0.000 HD
BRANCH  15  17
ATOM     17  C   UNL     1       3.443   3.042  18.502  0.00  0.00    +0.000 C 
ATOM     18  C   UNL     1       4.589   3.210  19.509  0.00  0.00    +0.000 C 
ATOM     19  C   UNL     1       5.678   4.223  19.117  0.00  0.00    +0.000 C 
ATOM     20  C   UNL     1       5.821   4.542  17.652  0.00  0.00    +0.000 A 
ATOM     21  C   UNL     1       6.802   5.465  17.245  0.00  0.00    +0.000 A 
ATOM     22  C   UNL     1       6.955   5.803  15.899  0.00  0.00    +0.000 A 
ATOM     23  C   UNL     1       6.132   5.217  14.943  0.00  0.00    +0.000 A 
ATOM     24  C   UNL     1       5.164   4.294  15.334  0.00  0.00    +0.000 A 
ATOM     25  C   UNL     1       4.995   3.956  16.687  0.00  0.00    +0.000 A 
ATOM     26  C   UNL     1       3.998   2.898  17.070  0.00  0.00    +0.000 C 
ENDBRANCH  15  17
ENDBRANCH  14  15
ENDBRANCH   1  14
TORSDOF 8
ENDMDL
MODEL 7
REMARK VINA RESULT:      -7.0      5.000      7.324
REMARK  Name = 
REMARK  9 active torsions:
REMARK  status: ('A' for Active; 'I' for Inactive)
REMARK    1  A    between atoms: C_1  and  C_2
REMARK    2  A    between atoms: C_2  and  C_3
REMARK    3  A    between atoms: C_8  and  O_9
REMARK    4  A    between atoms: O_9  and  C_10
REMARK    5  A    between atoms: C_10  and  C_11
REMARK    6  A    between atoms: C_11  and  O_12
REMARK    7  A    between atoms: C_11  and  C_13
REMARK    8  A    between atoms: C_13  and  N_14
REMARK    9  A    between atoms: N_14  and  C_15
REMARK                            x       y       z     vdW  Elec       q    Type
REMARK                         _______ _______ _______ _____ _____    ______ ____
ROOT
ATOM      1  C   UNL     1       7.648   6.972  17.708  0.00  0.00    +0.000 C 
ENDROOT
BRANCH   1   2
ATOM      2  O   UNL     1       7.722   6.647  16.309  0.00  0.00    +0.000 OA
ATOM      3  H   UNL     1       6.816   6.642  15.954  0.00  0.00    +0.000 HD
ENDBRANCH   1   2
BRANCH   1   4
ATOM      4  C   UNL     1       6.339   6.438  18.341  0.00  0.00    +0.000 C 
BRANCH   4   5
ATOM      5  O   UNL     1       5.314   6.346  17.349  0.00  0.00    +0.000 OA
BRANCH   5  11
ATOM      6  C   UNL     1       2.956   5.933  18.159  0.00  0.00    +0.000 A 
ATOM      7  C   UNL     1       1.923   4.960  18.182  0.00  0.00    +0.000 A 
ATOM      8  C   UNL     1       2.081   3.696  17.611  0.00  0.00    +0.000 A 
ATOM      9  C   UNL     1       3.282   3.377  17.001  0.00  0.00    +0.000 A 
ATOM     10  C   UNL     1       4.310   4.320  16.967  0.00  0.00    +0.000 A 
ATOM     11  C   UNL     1       4.174   5.607  17.535  0.00  0.00    +0.000 A 
BRANCH   6  13
ATOM     12  C   UNL     1       2.339   8.320  17.708  0.00  0.00    +0.000 C 
ATOM     13  C   UNL     1       2.584   7.261  18.773  0.00  0.00    +0.000 C 
ENDBRANCH   6  13
ENDBRANCH   5  11
ENDBRANCH   4   5
ENDBRANCH   1   4
BRANCH   1  14
ATOM     14  C   UNL     1       7.803   8.515  17.836  0.00  0.00    +0.000 C 
BRANCH  14  15
ATOM     15  N   UNL     1       8.935   8.929  18.669  0.00  0.00    +0.000 NA
ATOM     16  H   UNL     1       9.798   8.618  18.216  0.00  0.00    +0.000 HD
BRANCH  15  17
ATOM     17  C   UNL     1       9.038  10.394  18.908  0.00  0.00    +0.000 C 
ATOM     18  C   UNL     1       9.351  10.738  20.371  0.00  0.00    +0.000 C 
ATOM     19  C   UNL     1       9.800  12.186  20.634  0.00  0.00    +0.000 C 
ATOM     20  C   UNL     1      10.383  12.944  19.471  0.00  0.00    +0.000 A 
ATOM     21  C   UNL     1      10.805  14.272  19.662  0.00  0.00    +0.000 A 
ATOM     22  C   UNL     1      11.334  15.017  18.606  0.00  0.00    +0.000 A 
ATOM     23  C   UNL     1      11.452  14.439  17.346  0.00  0.00    +0.000 A 
ATOM     24  C   UNL     1      11.046  13.121  17.148  0.00  0.00    +0.000 A 
ATOM     25  C   UNL     1      10.503  12.368  18.202  0.00  0.00    +0.000 A 
ATOM     26  C   UNL     1      10.149  10.924  17.978  0.00  0.00    +0.000 C 
ENDBRANCH  15  17
ENDBRANCH  14  15
ENDBRANCH   1  14
TORSDOF 8
ENDMDL
MODEL 8
REMARK VINA RESULT:      -6.9      4.255      7.498
REMARK  Name = 
REMARK  9 active torsions:
REMARK  status: ('A' for Active; 'I' for Inactive)
REMARK    1  A    between atoms: C_1  and  C_2
REMARK    2  A    between atoms: C_2  and  C_3
REMARK    3  A    between atoms: C_8  and  O_9
REMARK    4  A    between atoms: O_9  and  C_10
REMARK    5  A    between atoms: C_10  and  C_11
REMARK    6  A    between atoms: C_11  and  O_12
REMARK    7  A    between atoms: C_11  and  C_13
REMARK    8  A    between atoms: C_13  and  N_14
REMARK    9  A    between atoms: N_14  and  C_15
REMARK                            x       y       z     vdW  Elec       q    Type
REMARK                         _______ _______ _______ _____ _____    ______ ____
ROOT
ATOM      1  C   UNL     1       8.022   7.665  17.749  0.00  0.00    +0.000 C 
ENDROOT
BRANCH   1   2
ATOM      2  O   UNL     1       8.318   7.019  18.999  0.00  0.00    +0.000 OA
ATOM      3  H   UNL     1       8.518   6.085  18.814  0.00  0.00    +0.000 HD
ENDBRANCH   1   2
BRANCH   1   4
ATOM      4  C   UNL     1       7.805   9.187  17.941  0.00  0.00    +0.000 C 
BRANCH   4   5
ATOM      5  O   UNL     1       9.026   9.891  17.709  0.00  0.00    +0.000 OA
BRANCH   5  11
ATOM      6  C   UNL     1      10.659  11.617  18.571  0.00  0.00    +0.000 A 
ATOM      7  C   UNL     1      11.051  12.315  19.742  0.00  0.00    +0.000 A 
ATOM      8  C   UNL     1      10.437  12.100  20.977  0.00  0.00    +0.000 A 
ATOM      9  C   UNL     1       9.411  11.175  21.066  0.00  0.00    +0.000 A 
ATOM     10  C   UNL     1       9.011  10.476  19.926  0.00  0.00    +0.000 A 
ATOM     11  C   UNL     1       9.614  10.679  18.665  0.00  0.00    +0.000 A 
BRANCH   6  13
ATOM     12  C   UNL     1      11.094  13.465  16.935  0.00  0.00    +0.000 C 
ATOM     13  C   UNL     1      11.396  12.024  17.318  0.00  0.00    +0.000 C 
ENDBRANCH   6  13
ENDBRANCH   5  11
ENDBRANCH   4   5
ENDBRANCH   1   4
BRANCH   1  14
ATOM     14  C   UNL     1       6.788   6.945  17.134  0.00  0.00    +0.000 C 
BRANCH  14  15
ATOM     15  N   UNL     1       5.531   7.218  17.838  0.00  0.00    +0.000 NA
ATOM     16  H   UNL     1       5.194   8.139  17.548  0.00  0.00    +0.000 HD
BRANCH  15  17
ATOM     17  C   UNL     1       4.446   6.230  17.595  0.00  0.00    +0.000 C 
ATOM     18  C   UNL     1       4.942   4.962  16.885  0.00  0.00    +0.000 C 
ATOM     19  C   UNL     1       3.972   3.769  16.896  0.00  0.00    +0.000 C 
ATOM     20  C   UNL     1       2.928   3.745  17.981  0.00  0.00    +0.000 A 
ATOM     21  C   UNL     1       2.016   2.675  18.030  0.00  0.00    +0.000 A 
ATOM     22  C   UNL     1       1.021   2.624  19.008  0.00  0.00    +0.000 A 
ATOM     23  C   UNL     1       0.929   3.641  19.952  0.00  0.00    +0.000 A 
ATOM     24  C   UNL     1       1.833   4.701  19.919  0.00  0.00    +0.000 A 
ATOM     25  C   UNL     1       2.831   4.766  18.932  0.00  0.00    +0.000 A 
ATOM     26  C   UNL     1       3.842   5.878  18.969  0.00  0.00    +0.000 C 
ENDBRANCH  15  17
ENDBRANCH  14  15
ENDBRANCH   1  14
TORSDOF 8
ENDMDL
MODEL 9
REMARK VINA RESULT:      -6.9      1.781      6.742
REMARK  Name = 
REMARK  9 active torsions:
REMARK  status: ('A' for Active; 'I' for Inactive)
REMARK    1  A    between atoms: C_1  and  C_2
REMARK    2  A    between atoms: C_2  and  C_3
REMARK    3  A    between atoms: C_8  and  O_9
REMARK    4  A    between atoms: O_9  and  C_10
REMARK    5  A    between atoms: C_10  and  C_11
REMARK    6  A    between atoms: C_11  and  O_12
REMARK    7  A    between atoms: C_11  and  C_13
REMARK    8  A    between atoms: C_13  and  N_14
REMARK    9  A    between atoms: N_14  and  C_15
REMARK                            x       y       z     vdW  Elec       q    Type
REMARK                         _______ _______ _______ _____ _____    ______ ____
ROOT
ATOM      1  C   UNL     1       1.778   4.096  19.025  0.00  0.00    +0.000 C 
ENDROOT
BRANCH   1   2
ATOM      2  O   UNL     1       2.166   2.915  19.746  0.00  0.00    +0.000 OA
ATOM      3  H   UNL     1       2.394   3.179  20.655  0.00  0.00    +0.000 HD
ENDBRANCH   1   2
BRANCH   1   4
ATOM      4  C   UNL     1       2.771   4.406  17.877  0.00  0.00    +0.000 C 
BRANCH   4   5
ATOM      5  O   UNL     1       4.025   3.768  18.126  0.00  0.00    +0.000 OA
BRANCH   5  11
ATOM      6  C   UNL     1       5.976   4.643  16.778  0.00  0.00    +0.000 A 
ATOM      7  C   UNL     1       7.191   5.368  16.888  0.00  0.00    +0.000 A 
ATOM      8  C   UNL     1       7.662   5.847  18.112  0.00  0.00    +0.000 A 
ATOM      9  C   UNL     1       6.922   5.612  19.257  0.00  0.00    +0.000 A 
ATOM     10  C   UNL     1       5.724   4.901  19.171  0.00  0.00    +0.000 A 
ATOM     11  C   UNL     1       5.225   4.408  17.944  0.00  0.00    +0.000 A 
BRANCH   6  13
ATOM     12  C   UNL     1       6.720   4.560  14.386  0.00  0.00    +0.000 C 
ATOM     13  C   UNL     1       5.599   4.256  15.369  0.00  0.00    +0.000 C 
ENDBRANCH   6  13
ENDBRANCH   5  11
ENDBRANCH   4   5
ENDBRANCH   1   4
BRANCH   1  14
ATOM     14  C   UNL     1       1.659   5.254  20.058  0.00  0.00    +0.000 C 
BRANCH  14  15
ATOM     15  N   UNL     1       2.713   6.266  19.938  0.00  0.00    +0.000 NA
ATOM     16  H   UNL     1       3.118   6.198  19.001  0.00  0.00    +0.000 HD
BRANCH  15  17
ATOM     17  C   UNL     1       2.264   7.669  20.147  0.00  0.00    +0.000 C 
ATOM     18  C   UNL     1       1.733   8.322  18.864  0.00  0.00    +0.000 C 
ATOM     19  C   UNL     1       0.952   9.633  19.057  0.00  0.00    +0.000 C 
ATOM     20  C   UNL     1       0.339   9.871  20.412  0.00  0.00    +0.000 A 
ATOM     21  C   UNL     1      -0.383  11.058  20.638  0.00  0.00    +0.000 A 
ATOM     22  C   UNL     1      -0.950  11.327  21.885  0.00  0.00    +0.000 A 
ATOM     23  C   UNL     1      -0.806  10.409  22.920  0.00  0.00    +0.000 A 
ATOM     24  C   UNL     1      -0.101   9.227  22.705  0.00  0.00    +0.000 A 
ATOM     25  C   UNL     1       0.482   8.953  21.457  0.00  0.00    +0.000 A 
ATOM     26  C   UNL     1       1.167   7.633  21.230  0.00  0.00    +0.000 C 
ENDBRANCH  15  17
ENDBRANCH  14  15
ENDBRANCH   1  14
TORSDOF 8
ENDMDL
