MODEL 1
REMARK VINA RESULT:      -8.4      0.000      0.000
REMARK  Name = 
REMARK  10 active torsions:
REMARK  status: ('A' for Active; 'I' for Inactive)
REMARK    1  A    between atoms: C_1  and  C_2
REMARK    2  A    between atoms: C_2  and  C_4
REMARK    3  A    between atoms: N_6  and  C_7
REMARK    4  A    between atoms: C_7  and  C_8
REMARK    5  A    between atoms: C_13  and  C_14
REMARK    6  A    between atoms: C_17  and  C_18
REMARK    7  A    between atoms: C_18  and  C_19
REMARK    8  A    between atoms: C_23  and  O_24
REMARK    9  A    between atoms: O_24  and  C_25
REMARK   10  A    between atoms: C_25  and  C_26
REMARK                            x       y       z     vdW  Elec       q    Type
REMARK                         _______ _______ _______ _____ _____    ______ ____
ROOT
ATOM      1  C   UNL     1       1.143   9.038  20.331  0.00  0.00    +0.000 A 
ATOM      2  C   UNL     1       1.964   7.892  20.250  0.00  0.00    +0.000 A 
ATOM      3  N   UNL     1       2.427   7.445  19.057  0.00  0.00    +0.000 N 
ATOM      4  C   UNL     1       2.120   8.102  17.922  0.00  0.00    +0.000 A 
ATOM      5  C   UNL     1       1.358   9.268  17.964  0.00  0.00    +0.000 A 
ATOM      6  C   UNL     1       0.842   9.775  19.170  0.00  0.00    +0.000 A 
ENDROOT
BRANCH   1   8
ATOM      7  C   UNL     1      -0.637   9.009  22.220  0.00  0.00    +0.000 C 
ATOM      8  C   UNL     1       0.735   9.359  21.720  0.00  0.00    +0.000 C 
ATOM      9  O   UNL     1       1.598   9.833  22.457  0.00  0.00    +0.000 OA
ENDBRANCH   1   8
BRANCH   3  10
ATOM     10  C   UNL     1       3.312   6.247  19.004  0.00  0.00    +0.000 C 
BRANCH  10  11
ATOM     11  C   UNL     1       2.493   4.972  18.995  0.00  0.00    +0.000 A 
ATOM     12  C   UNL     1       1.528   4.760  19.994  0.00  0.00    +0.000 A 
ATOM     13  C   UNL     1       0.789   3.585  20.055  0.00  0.00    +0.000 A 
ATOM     14  C   UNL     1       0.995   2.592  19.094  0.00  0.00    +0.000 A 
ATOM     15  C   UNL     1       1.917   2.794  18.078  0.00  0.00    +0.000 A 
ATOM     16  C   UNL     1       2.655   3.981  17.995  0.00  0.00    +0.000 A 
ATOM     17  C   UNL     1       3.596   4.157  16.832  0.00  0.00    +0.000 C 
ENDBRANCH  10  11
ENDBRANCH   3  10
BRANCH   6  18
ATOM     18  C   UNL     1       0.075  11.103  19.108  0.00  0.00    +0.000 C 
BRANCH  18  19
ATOM     19  C   UNL     1       0.963  12.346  19.157  0.00  0.00    +0.000 C 
ATOM     20  C   UNL     1       2.297  12.231  18.421  0.00  0.00    +0.000 C 
ATOM     21  C   UNL     1       2.878  13.525  18.871  0.00  0.00    +0.000 A 
ATOM     22  C   UNL     1       3.116  14.612  18.055  0.00  0.00    +0.000 A 
ATOM     23  C   UNL     1       3.279  15.855  18.653  0.00  0.00    +0.000 A 
ATOM     24  C   UNL     1       3.410  15.944  20.055  0.00  0.00    +0.000 A 
ATOM     25  C   UNL     1       3.090  14.854  20.876  0.00  0.00    +0.000 A 
ATOM     26  C   UNL     1       2.684  13.702  20.233  0.00  0.00    +0.000 A 
ATOM     27  C   UNL     1       1.479  12.869  20.518  0.00  0.00    +0.000 C 
ATOM     28  O   UNL     1       0.910  12.787  21.589  0.00  0.00    +0.000 OA
BRANCH  23  29
ATOM     29  O   UNL     1       3.191  17.048  17.990  0.00  0.00    +0.000 OA
BRANCH  29  30
ATOM     30  C   UNL     1       2.031  17.301  17.175  0.00  0.00    +0.000 C 
BRANCH  30  31
ATOM     31  C   UNL     1       0.693  17.535  17.891  0.00  0.00    +0.000 C 
ATOM     32  F   UNL     1       0.142  16.417  18.407  0.00  0.00    +0.000 F 
ATOM     33  F   UNL     1       0.829  18.428  18.899  0.00  0.00    +0.000 F 
ATOM     34  F   UNL     1      -0.221  18.062  17.032  0.00  0.00    +0.000 F 
ENDBRANCH  30  31
ENDBRANCH  29  30
ENDBRANCH  23  29
ENDBRANCH  18  19
ENDBRANCH   6  18
TORSDOF 8
ENDMDL
MODEL 2
REMARK VINA RESULT:      -8.3      2.793      3.244
REMARK  Name = 
REMARK  10 active torsions:
REMARK  status: ('A' for Active; 'I' for Inactive)
REMARK    1  A    between atoms: C_1  and  C_2
REMARK    2  A    between atoms: C_2  and  C_4
REMARK    3  A    between atoms: N_6  and  C_7
REMARK    4  A    between atoms: C_7  and  C_8
REMARK    5  A    between atoms: C_13  and  C_14
REMARK    6  A    between atoms: C_17  and  C_18
REMARK    7  A    between atoms: C_18  and  C_19
REMARK    8  A    between atoms: C_23  and  O_24
REMARK    9  A    between atoms: O_24  and  C_25
REMARK   10  A    between atoms: C_25  and  C_26
REMARK                            x       y       z     vdW  Elec       q    Type
REMARK                         _______ _______ _______ _____ _____    ______ ____
ROOT
ATOM      1  C   UNL     1       1.208   8.828  20.501  0.00  0.00    +0.000 A 
ATOM      2  C   UNL     1       2.038   7.687  20.432  0.00  0.00    +0.000 A 
ATOM      3  N   UNL     1       2.500   7.227  19.244  0.00  0.00    +0.000 N 
ATOM      4  C   UNL     1       2.184   7.866  18.101  0.00  0.00    +0.000 A 
ATOM      5  C   UNL     1       1.413   9.026  18.130  0.00  0.00    +0.000 A 
ATOM      6  C   UNL     1       0.897   9.546  19.332  0.00  0.00    +0.000 A 
ENDROOT
BRANCH   1   8
ATOM      7  C   UNL     1      -0.595   8.898  22.367  0.00  0.00    +0.000 C 
ATOM      8  C   UNL     1       0.803   9.164  21.888  0.00  0.00    +0.000 C 
ATOM      9  O   UNL     1       1.685   9.578  22.638  0.00  0.00    +0.000 OA
ENDBRANCH   1   8
BRANCH   3  10
ATOM     10  C   UNL     1       3.394   6.036  19.204  0.00  0.00    +0.000 C 
BRANCH  10  11
ATOM     11  C   UNL     1       2.589   4.763  19.036  0.00  0.00    +0.000 A 
ATOM     12  C   UNL     1       1.543   4.480  19.931  0.00  0.00    +0.000 A 
ATOM     13  C   UNL     1       0.811   3.302  19.847  0.00  0.00    +0.000 A 
ATOM     14  C   UNL     1       1.106   2.379  18.841  0.00  0.00    +0.000 A 
ATOM     15  C   UNL     1       2.110   2.653  17.923  0.00  0.00    +0.000 A 
ATOM     16  C   UNL     1       2.843   3.844  17.987  0.00  0.00    +0.000 A 
ATOM     17  C   UNL     1       3.878   4.103  16.924  0.00  0.00    +0.000 C 
ENDBRANCH  10  11
ENDBRANCH   3  10
BRANCH   6  18
ATOM     18  C   UNL     1       0.120  10.867  19.254  0.00  0.00    +0.000 C 
BRANCH  18  19
ATOM     19  C   UNL     1       0.998  12.106  19.085  0.00  0.00    +0.000 C 
ATOM     20  C   UNL     1       1.781  12.530  20.326  0.00  0.00    +0.000 C 
ATOM     21  C   UNL     1       2.314  13.813  19.790  0.00  0.00    +0.000 A 
ATOM     22  C   UNL     1       3.641  14.061  19.505  0.00  0.00    +0.000 A 
ATOM     23  C   UNL     1       3.941  15.122  18.659  0.00  0.00    +0.000 A 
ATOM     24  C   UNL     1       2.926  16.030  18.290  0.00  0.00    +0.000 A 
ATOM     25  C   UNL     1       1.575  15.726  18.516  0.00  0.00    +0.000 A 
ATOM     26  C   UNL     1       1.314  14.526  19.144  0.00  0.00    +0.000 A 
ATOM     27  C   UNL     1       0.351  13.464  18.729  0.00  0.00    +0.000 C 
ATOM     28  O   UNL     1      -0.652  13.637  18.063  0.00  0.00    +0.000 OA
BRANCH  23  29
ATOM     29  O   UNL     1       5.143  15.290  18.029  0.00  0.00    +0.000 OA
BRANCH  29  30
ATOM     30  C   UNL     1       6.351  15.149  18.798  0.00  0.00    +0.000 C 
BRANCH  30  31
ATOM     31  C   UNL     1       7.516  14.378  18.161  0.00  0.00    +0.000 C 
ATOM     32  F   UNL     1       8.220  13.625  19.031  0.00  0.00    +0.000 F 
ATOM     33  F   UNL     1       7.079  13.562  17.173  0.00  0.00    +0.000 F 
ATOM     34  F   UNL     1       8.399  15.239  17.585  0.00  0.00    +0.000 F 
ENDBRANCH  30  31
ENDBRANCH  29  30
ENDBRANCH  23  29
ENDBRANCH  18  19
ENDBRANCH   6  18
TORSDOF 8
ENDMDL
MODEL 3
REMARK VINA RESULT:      -8.0      3.695      5.146
REMARK  Name = 
REMARK  10 active torsions:
REMARK  status: ('A' for Active; 'I' for Inactive)
REMARK    1  A    between atoms: C_1  and  C_2
REMARK    2  A    between atoms: C_2  and  C_4
REMARK    3  A    between atoms: N_6  and  C_7
REMARK    4  A    between atoms: C_7  and  C_8
REMARK    5  A    between atoms: C_13  and  C_14
REMARK    6  A    between atoms: C_17  and  C_18
REMARK    7  A    between atoms: C_18  and  C_19
REMARK    8  A    between atoms: C_23  and  O_24
REMARK    9  A    between atoms: O_24  and  C_25
REMARK   10  A    between atoms: C_25  and  C_26
REMARK                            x       y       z     vdW  Elec       q    Type
REMARK                         _______ _______ _______ _____ _____    ______ ____
ROOT
ATOM      1  C   UNL     1       1.274   8.830  20.352  0.00  0.00    +0.000 A 
ATOM      2  C   UNL     1       1.981   7.617  20.499  0.00  0.00    +0.000 A 
ATOM      3  N   UNL     1       2.572   7.017  19.438  0.00  0.00    +0.000 N 
ATOM      4  C   UNL     1       2.507   7.583  18.217  0.00  0.00    +0.000 A 
ATOM      5  C   UNL     1       1.865   8.807  18.039  0.00  0.00    +0.000 A 
ATOM      6  C   UNL     1       1.225   9.472  19.101  0.00  0.00    +0.000 A 
ENDROOT
BRANCH   1   8
ATOM      7  C   UNL     1      -0.716   8.978  22.012  0.00  0.00    +0.000 C 
ATOM      8  C   UNL     1       0.694   9.318  21.627  0.00  0.00    +0.000 C 
ATOM      9  O   UNL     1       1.450   9.928  22.383  0.00  0.00    +0.000 OA
ENDBRANCH   1   8
BRANCH   3  10
ATOM     10  C   UNL     1       3.333   5.750  19.626  0.00  0.00    +0.000 C 
BRANCH  10  11
ATOM     11  C   UNL     1       2.465   4.548  19.310  0.00  0.00    +0.000 A 
ATOM     12  C   UNL     1       1.392   4.224  20.158  0.00  0.00    +0.000 A 
ATOM     13  C   UNL     1       0.601   3.104  19.935  0.00  0.00    +0.000 A 
ATOM     14  C   UNL     1       0.864   2.284  18.836  0.00  0.00    +0.000 A 
ATOM     15  C   UNL     1       1.895   2.603  17.965  0.00  0.00    +0.000 A 
ATOM     16  C   UNL     1       2.688   3.738  18.169  0.00  0.00    +0.000 A 
ATOM     17  C   UNL     1       3.753   4.057  17.151  0.00  0.00    +0.000 C 
ENDBRANCH  10  11
ENDBRANCH   3  10
BRANCH   6  18
ATOM     18  C   UNL     1       0.612  10.848  18.806  0.00  0.00    +0.000 C 
BRANCH  18  19
ATOM     19  C   UNL     1      -0.230  11.420  19.946  0.00  0.00    +0.000 C 
ATOM     20  C   UNL     1      -1.570  12.026  19.533  0.00  0.00    +0.000 C 
ATOM     21  C   UNL     1      -1.940  12.598  20.856  0.00  0.00    +0.000 A 
ATOM     22  C   UNL     1      -2.976  12.153  21.650  0.00  0.00    +0.000 A 
ATOM     23  C   UNL     1      -2.963  12.496  22.997  0.00  0.00    +0.000 A 
ATOM     24  C   UNL     1      -2.031  13.446  23.466  0.00  0.00    +0.000 A 
ATOM     25  C   UNL     1      -0.939  13.830  22.676  0.00  0.00    +0.000 A 
ATOM     26  C   UNL     1      -0.859  13.259  21.422  0.00  0.00    +0.000 A 
ATOM     27  C   UNL     1       0.318  12.594  20.791  0.00  0.00    +0.000 C 
ATOM     28  O   UNL     1       1.484  12.814  21.055  0.00  0.00    +0.000 OA
BRANCH  23  29
ATOM     29  O   UNL     1      -3.712  11.876  23.958  0.00  0.00    +0.000 OA
BRANCH  29  30
ATOM     30  C   UNL     1      -4.708  12.643  24.658  0.00  0.00    +0.000 C 
BRANCH  30  31
ATOM     31  C   UNL     1      -6.074  12.826  23.981  0.00  0.00    +0.000 C 
ATOM     32  F   UNL     1      -6.914  11.784  24.144  0.00  0.00    +0.000 F 
ATOM     33  F   UNL     1      -6.702  13.934  24.441  0.00  0.00    +0.000 F 
ATOM     34  F   UNL     1      -5.921  13.001  22.640  0.00  0.00    +0.000 F 
ENDBRANCH  30  31
ENDBRANCH  29  30
ENDBRANCH  23  29
ENDBRANCH  18  19
ENDBRANCH   6  18
TORSDOF 8
ENDMDL
MODEL 4
REMARK VINA RESULT:      -8.0      2.465      2.949
REMARK  Name = 
REMARK  10 active torsions:
REMARK  status: ('A' for Active; 'I' for Inactive)
REMARK    1  A    between atoms: C_1  and  C_2
REMARK    2  A    between atoms: C_2  and  C_4
REMARK    3  A    between atoms: N_6  and  C_7
REMARK    4  A    between atoms: C_7  and  C_8
REMARK    5  A    between atoms: C_13  and  C_14
REMARK    6  A    between atoms: C_17  and  C_18
REMARK    7  A    between atoms: C_18  and  C_19
REMARK    8  A    between atoms: C_23  and  O_24
REMARK    9  A    between atoms: O_24  and  C_25
REMARK   10  A    between atoms: C_25  and  C_26
REMARK                            x       y       z     vdW  Elec       q    Type
REMARK                         _______ _______ _______ _____ _____    ______ ____
ROOT
ATOM      1  C   UNL     1       1.207   8.887  20.515  0.00  0.00    +0.000 A 
ATOM      2  C   UNL     1       2.025   7.742  20.400  0.00  0.00    +0.000 A 
ATOM      3  N   UNL     1       2.468   7.316  19.192  0.00  0.00    +0.000 N 
ATOM      4  C   UNL     1       2.144   7.994  18.074  0.00  0.00    +0.000 A 
ATOM      5  C   UNL     1       1.383   9.159  18.150  0.00  0.00    +0.000 A 
ATOM      6  C   UNL     1       0.887   9.644  19.373  0.00  0.00    +0.000 A 
ENDROOT
BRANCH   1   8
ATOM      7  C   UNL     1      -0.572   8.914  22.405  0.00  0.00    +0.000 C 
ATOM      8  C   UNL     1       0.822   9.182  21.917  0.00  0.00    +0.000 C 
ATOM      9  O   UNL     1       1.717   9.564  22.669  0.00  0.00    +0.000 OA
ENDBRANCH   1   8
BRANCH   3  10
ATOM     10  C   UNL     1       3.351   6.119  19.102  0.00  0.00    +0.000 C 
BRANCH  10  11
ATOM     11  C   UNL     1       2.529   4.848  19.026  0.00  0.00    +0.000 A 
ATOM     12  C   UNL     1       1.505   4.626  19.962  0.00  0.00    +0.000 A 
ATOM     13  C   UNL     1       0.759   3.454  19.961  0.00  0.00    +0.000 A 
ATOM     14  C   UNL     1       1.020   2.474  19.001  0.00  0.00    +0.000 A 
ATOM     15  C   UNL     1       2.002   2.685  18.045  0.00  0.00    +0.000 A 
ATOM     16  C   UNL     1       2.748   3.870  18.024  0.00  0.00    +0.000 A 
ATOM     17  C   UNL     1       3.758   4.057  16.923  0.00  0.00    +0.000 C 
ENDBRANCH  10  11
ENDBRANCH   3  10
BRANCH   6  18
ATOM     18  C   UNL     1       0.121  10.975  19.348  0.00  0.00    +0.000 C 
BRANCH  18  19
ATOM     19  C   UNL     1       0.991  12.198  19.065  0.00  0.00    +0.000 C 
ATOM     20  C   UNL     1       1.930  12.613  20.197  0.00  0.00    +0.000 C 
ATOM     21  C   UNL     1       2.412  13.884  19.593  0.00  0.00    +0.000 A 
ATOM     22  C   UNL     1       3.697  14.110  19.145  0.00  0.00    +0.000 A 
ATOM     23  C   UNL     1       3.907  15.163  18.262  0.00  0.00    +0.000 A 
ATOM     24  C   UNL     1       2.868  16.087  18.018  0.00  0.00    +0.000 A 
ATOM     25  C   UNL     1       1.552  15.807  18.412  0.00  0.00    +0.000 A 
ATOM     26  C   UNL     1       1.352  14.612  19.073  0.00  0.00    +0.000 A 
ATOM     27  C   UNL     1       0.327  13.566  18.786  0.00  0.00    +0.000 C 
ATOM     28  O   UNL     1      -0.748  13.754  18.249  0.00  0.00    +0.000 OA
BRANCH  23  29
ATOM     29  O   UNL     1       5.024  15.310  17.487  0.00  0.00    +0.000 OA
BRANCH  29  30
ATOM     30  C   UNL     1       6.292  14.885  18.017  0.00  0.00    +0.000 C 
BRANCH  30  31
ATOM     31  C   UNL     1       7.083  15.890  18.868  0.00  0.00    +0.000 C 
ATOM     32  F   UNL     1       7.381  17.039  18.228  0.00  0.00    +0.000 F 
ATOM     33  F   UNL     1       6.407  16.213  19.996  0.00  0.00    +0.000 F 
ATOM     34  F   UNL     1       8.264  15.348  19.272  0.00  0.00    +0.000 F 
ENDBRANCH  30  31
ENDBRANCH  29  30
ENDBRANCH  23  29
ENDBRANCH  18  19
ENDBRANCH   6  18
TORSDOF 8
ENDMDL
MODEL 5
REMARK VINA RESULT:      -7.9      4.655      9.333
REMARK  Name = 
REMARK  10 active torsions:
REMARK  status: ('A' for Active; 'I' for Inactive)
REMARK    1  A    between atoms: C_1  and  C_2
REMARK    2  A    between atoms: C_2  and  C_4
REMARK    3  A    between atoms: N_6  and  C_7
REMARK    4  A    between atoms: C_7  and  C_8
REMARK    5  A    between atoms: C_13  and  C_14
REMARK    6  A    between atoms: C_17  and  C_18
REMARK    7  A    between atoms: C_18  and  C_19
REMARK    8  A    between atoms: C_23  and  O_24
REMARK    9  A    between atoms: O_24  and  C_25
REMARK   10  A    between atoms: C_25  and  C_26
REMARK                            x       y       z     vdW  Elec       q    Type
REMARK                         _______ _______ _______ _____ _____    ______ ____
ROOT
ATOM      1  C   UNL     1       0.691  10.006  21.087  0.00  0.00    +0.000 A 
ATOM      2  C   UNL     1       0.364  11.226  20.455  0.00  0.00    +0.000 A 
ATOM      3  N   UNL     1       0.571  11.404  19.127  0.00  0.00    +0.000 N 
ATOM      4  C   UNL     1       1.081  10.405  18.381  0.00  0.00    +0.000 A 
ATOM      5  C   UNL     1       1.367   9.169  18.956  0.00  0.00    +0.000 A 
ATOM      6  C   UNL     1       1.183   8.927  20.330  0.00  0.00    +0.000 A 
ENDROOT
BRANCH   1   8
ATOM      7  C   UNL     1      -0.972  10.358  23.049  0.00  0.00    +0.000 C 
ATOM      8  C   UNL     1       0.398  10.014  22.541  0.00  0.00    +0.000 C 
ATOM      9  O   UNL     1       1.299   9.638  23.290  0.00  0.00    +0.000 OA
ENDBRANCH   1   8
BRANCH   3  10
ATOM     10  C   UNL     1       0.194  12.693  18.481  0.00  0.00    +0.000 C 
BRANCH  10  11
ATOM     11  C   UNL     1       1.252  13.750  18.728  0.00  0.00    +0.000 A 
ATOM     12  C   UNL     1       2.540  13.581  18.193  0.00  0.00    +0.000 A 
ATOM     13  C   UNL     1       3.555  14.499  18.434  0.00  0.00    +0.000 A 
ATOM     14  C   UNL     1       3.291  15.625  19.217  0.00  0.00    +0.000 A 
ATOM     15  C   UNL     1       2.018  15.831  19.727  0.00  0.00    +0.000 A 
ATOM     16  C   UNL     1       0.982  14.923  19.475  0.00  0.00    +0.000 A 
ATOM     17  C   UNL     1      -0.389  15.239  20.011  0.00  0.00    +0.000 C 
ENDBRANCH  10  11
ENDBRANCH   3  10
BRANCH   6  18
ATOM     18  C   UNL     1       1.462   7.507  20.841  0.00  0.00    +0.000 C 
BRANCH  18  19
ATOM     19  C   UNL     1       2.344   6.667  19.920  0.00  0.00    +0.000 C 
ATOM     20  C   UNL     1       1.954   6.684  18.442  0.00  0.00    +0.000 C 
ATOM     21  C   UNL     1       2.909   5.640  17.979  0.00  0.00    +0.000 A 
ATOM     22  C   UNL     1       3.995   5.869  17.159  0.00  0.00    +0.000 A 
ATOM     23  C   UNL     1       5.005   4.915  17.130  0.00  0.00    +0.000 A 
ATOM     24  C   UNL     1       4.805   3.666  17.756  0.00  0.00    +0.000 A 
ATOM     25  C   UNL     1       3.740   3.474  18.648  0.00  0.00    +0.000 A 
ATOM     26  C   UNL     1       2.898   4.550  18.838  0.00  0.00    +0.000 A 
ATOM     27  C   UNL     1       2.439   5.138  20.130  0.00  0.00    +0.000 C 
ATOM     28  O   UNL     1       2.351   4.545  21.188  0.00  0.00    +0.000 OA
BRANCH  23  29
ATOM     29  O   UNL     1       6.263   5.138  16.643  0.00  0.00    +0.000 OA
BRANCH  29  30
ATOM     30  C   UNL     1       7.047   6.201  17.215  0.00  0.00    +0.000 C 
BRANCH  30  31
ATOM     31  C   UNL     1       7.666   5.965  18.601  0.00  0.00    +0.000 C 
ATOM     32  F   UNL     1       8.512   6.937  18.998  0.00  0.00    +0.000 F 
ATOM     33  F   UNL     1       6.707   5.843  19.549  0.00  0.00    +0.000 F 
ATOM     34  F   UNL     1       8.371   4.801  18.616  0.00  0.00    +0.000 F 
ENDBRANCH  30  31
ENDBRANCH  29  30
ENDBRANCH  23  29
ENDBRANCH  18  19
ENDBRANCH   6  18
TORSDOF 8
ENDMDL
MODEL 6
REMARK VINA RESULT:      -7.9      5.978      9.696
REMARK  Name = 
REMARK  10 active torsions:
REMARK  status: ('A' for Active; 'I' for Inactive)
REMARK    1  A    between atoms: C_1  and  C_2
REMARK    2  A    between atoms: C_2  and  C_4
REMARK    3  A    between atoms: N_6  and  C_7
REMARK    4  A    between atoms: C_7  and  C_8
REMARK    5  A    between atoms: C_13  and  C_14
REMARK    6  A    between atoms: C_17  and  C_18
REMARK    7  A    between atoms: C_18  and  C_19
REMARK    8  A    between atoms: C_23  and  O_24
REMARK    9  A    between atoms: O_24  and  C_25
REMARK   10  A    between atoms: C_25  and  C_26
REMARK                            x       y       z     vdW  Elec       q    Type
REMARK                         _______ _______ _______ _____ _____    ______ ____
ROOT
ATOM      1  C   UNL     1      -1.757  12.010  20.117  0.00  0.00    +0.000 A 
ATOM      2  C   UNL     1      -3.035  12.195  19.547  0.00  0.00    +0.000 A 
ATOM      3  N   UNL     1      -3.470  11.411  18.531  0.00  0.00    +0.000 N 
ATOM      4  C   UNL     1      -2.687  10.423  18.055  0.00  0.00    +0.000 A 
ATOM      5  C   UNL     1      -1.441  10.173  18.625  0.00  0.00    +0.000 A 
ATOM      6  C   UNL     1      -0.933  10.959  19.675  0.00  0.00    +0.000 A 
ENDROOT
BRANCH   1   8
ATOM      7  C   UNL     1      -1.900  12.689  22.618  0.00  0.00    +0.000 C 
ATOM      8  C   UNL     1      -1.467  12.971  21.209  0.00  0.00    +0.000 C 
ATOM      9  O   UNL     1      -0.782  13.951  20.917  0.00  0.00    +0.000 OA
ENDBRANCH   1   8
BRANCH   3  10
ATOM     10  C   UNL     1      -4.833  11.613  17.964  0.00  0.00    +0.000 C 
BRANCH  10  11
ATOM     11  C   UNL     1      -5.896  11.129  18.931  0.00  0.00    +0.000 A 
ATOM     12  C   UNL     1      -6.202   9.759  18.997  0.00  0.00    +0.000 A 
ATOM     13  C   UNL     1      -7.202   9.276  19.832  0.00  0.00    +0.000 A 
ATOM     14  C   UNL     1      -7.915  10.166  20.638  0.00  0.00    +0.000 A 
ATOM     15  C   UNL     1      -7.606  11.518  20.616  0.00  0.00    +0.000 A 
ATOM     16  C   UNL     1      -6.588  12.015  19.793  0.00  0.00    +0.000 A 
ATOM     17  C   UNL     1      -6.267  13.485  19.863  0.00  0.00    +0.000 C 
ENDBRANCH  10  11
ENDBRANCH   3  10
BRANCH   6  18
ATOM     18  C   UNL     1       0.420  10.548  20.275  0.00  0.00    +0.000 C 
BRANCH  18  19
ATOM     19  C   UNL     1       0.931   9.187  19.804  0.00  0.00    +0.000 C 
ATOM     20  C   UNL     1       1.756   8.407  20.826  0.00  0.00    +0.000 C 
ATOM     21  C   UNL     1       2.181   7.299  19.926  0.00  0.00    +0.000 A 
ATOM     22  C   UNL     1       1.766   5.988  20.035  0.00  0.00    +0.000 A 
ATOM     23  C   UNL     1       1.912   5.162  18.926  0.00  0.00    +0.000 A 
ATOM     24  C   UNL     1       2.659   5.609  17.816  0.00  0.00    +0.000 A 
ATOM     25  C   UNL     1       3.006   6.961  17.682  0.00  0.00    +0.000 A 
ATOM     26  C   UNL     1       2.610   7.799  18.705  0.00  0.00    +0.000 A 
ATOM     27  C   UNL     1       1.893   9.103  18.597  0.00  0.00    +0.000 C 
ATOM     28  O   UNL     1       1.922   9.852  17.640  0.00  0.00    +0.000 OA
BRANCH  23  29
ATOM     29  O   UNL     1       1.266   3.968  18.764  0.00  0.00    +0.000 OA
BRANCH  29  30
ATOM     30  C   UNL     1       1.972   2.880  18.141  0.00  0.00    +0.000 C 
BRANCH  30  31
ATOM     31  C   UNL     1       3.123   2.233  18.926  0.00  0.00    +0.000 C 
ATOM     32  F   UNL     1       2.947   2.238  20.263  0.00  0.00    +0.000 F 
ATOM     33  F   UNL     1       3.314   0.949  18.543  0.00  0.00    +0.000 F 
ATOM     34  F   UNL     1       4.292   2.885  18.682  0.00  0.00    +0.000 F 
ENDBRANCH  30  31
ENDBRANCH  29  30
ENDBRANCH  23  29
ENDBRANCH  18  19
ENDBRANCH   6  18
TORSDOF 8
ENDMDL
MODEL 7
REMARK VINA RESULT:      -7.9      6.177     10.127
REMARK  Name = 
REMARK  10 active torsions:
REMARK  status: ('A' for Active; 'I' for Inactive)
REMARK    1  A    between atoms: C_1  and  C_2
REMARK    2  A    between atoms: C_2  and  C_4
REMARK    3  A    between atoms: N_6  and  C_7
REMARK    4  A    between atoms: C_7  and  C_8
REMARK    5  A    between atoms: C_13  and  C_14
REMARK    6  A    between atoms: C_17  and  C_18
REMARK    7  A    between atoms: C_18  and  C_19
REMARK    8  A    between atoms: C_23  and  O_24
REMARK    9  A    between atoms: O_24  and  C_25
REMARK   10  A    between atoms: C_25  and  C_26
REMARK                            x       y       z     vdW  Elec       q    Type
REMARK                         _______ _______ _______ _____ _____    ______ ____
ROOT
ATOM      1  C   UNL     1      -2.508  11.980  19.565  0.00  0.00    +0.000 A 
ATOM      2  C   UNL     1      -3.875  11.858  19.231  0.00  0.00    +0.000 A 
ATOM      3  N   UNL     1      -4.284  11.021  18.247  0.00  0.00    +0.000 N 
ATOM      4  C   UNL     1      -3.386  10.274  17.576  0.00  0.00    +0.000 A 
ATOM      5  C   UNL     1      -2.035  10.324  17.911  0.00  0.00    +0.000 A 
ATOM      6  C   UNL     1      -1.549  11.181  18.916  0.00  0.00    +0.000 A 
ENDROOT
BRANCH   1   8
ATOM      7  C   UNL     1      -2.183  12.497  22.087  0.00  0.00    +0.000 C 
ATOM      8  C   UNL     1      -2.266  12.952  20.659  0.00  0.00    +0.000 C 
ATOM      9  O   UNL     1      -2.046  14.116  20.329  0.00  0.00    +0.000 OA
ENDBRANCH   1   8
BRANCH   3  10
ATOM     10  C   UNL     1      -5.735  10.894  17.933  0.00  0.00    +0.000 C 
BRANCH  10  11
ATOM     11  C   UNL     1      -6.416  12.248  17.970  0.00  0.00    +0.000 A 
ATOM     12  C   UNL     1      -6.278  13.124  16.880  0.00  0.00    +0.000 A 
ATOM     13  C   UNL     1      -6.843  14.394  16.890  0.00  0.00    +0.000 A 
ATOM     14  C   UNL     1      -7.577  14.810  18.003  0.00  0.00    +0.000 A 
ATOM     15  C   UNL     1      -7.756  13.950  19.076  0.00  0.00    +0.000 A 
ATOM     16  C   UNL     1      -7.208  12.662  19.070  0.00  0.00    +0.000 A 
ATOM     17  C   UNL     1      -7.491  11.760  20.242  0.00  0.00    +0.000 C 
ENDBRANCH  10  11
ENDBRANCH   3  10
BRANCH   6  18
ATOM     18  C   UNL     1      -0.053  11.102  19.249  0.00  0.00    +0.000 C 
BRANCH  18  19
ATOM     19  C   UNL     1       0.496   9.680  19.356  0.00  0.00    +0.000 C 
ATOM     20  C   UNL     1       1.111   9.313  20.705  0.00  0.00    +0.000 C 
ATOM     21  C   UNL     1       1.655   7.983  20.313  0.00  0.00    +0.000 A 
ATOM     22  C   UNL     1       1.193   6.771  20.780  0.00  0.00    +0.000 A 
ATOM     23  C   UNL     1       1.507   5.628  20.054  0.00  0.00    +0.000 A 
ATOM     24  C   UNL     1       2.446   5.704  19.004  0.00  0.00    +0.000 A 
ATOM     25  C   UNL     1       2.847   6.945  18.488  0.00  0.00    +0.000 A 
ATOM     26  C   UNL     1       2.303   8.061  19.089  0.00  0.00    +0.000 A 
ATOM     27  C   UNL     1       1.650   9.231  18.430  0.00  0.00    +0.000 C 
ATOM     28  O   UNL     1       1.865   9.618  17.298  0.00  0.00    +0.000 OA
BRANCH  23  29
ATOM     29  O   UNL     1       0.867   4.427  20.191  0.00  0.00    +0.000 OA
BRANCH  29  30
ATOM     30  C   UNL     1       1.657   3.225  20.233  0.00  0.00    +0.000 C 
BRANCH  30  31
ATOM     31  C   UNL     1       2.255   2.812  21.586  0.00  0.00    +0.000 C 
ATOM     32  F   UNL     1       2.587   3.850  22.381  0.00  0.00    +0.000 F 
ATOM     33  F   UNL     1       1.400   2.022  22.278  0.00  0.00    +0.000 F 
ATOM     34  F   UNL     1       3.389   2.081  21.402  0.00  0.00    +0.000 F 
ENDBRANCH  30  31
ENDBRANCH  29  30
ENDBRANCH  23  29
ENDBRANCH  18  19
ENDBRANCH   6  18
TORSDOF 8
ENDMDL
MODEL 8
REMARK VINA RESULT:      -7.9      5.991      9.612
REMARK  Name = 
REMARK  10 active torsions:
REMARK  status: ('A' for Active; 'I' for Inactive)
REMARK    1  A    between atoms: C_1  and  C_2
REMARK    2  A    between atoms: C_2  and  C_4
REMARK    3  A    between atoms: N_6  and  C_7
REMARK    4  A    between atoms: C_7  and  C_8
REMARK    5  A    between atoms: C_13  and  C_14
REMARK    6  A    between atoms: C_17  and  C_18
REMARK    7  A    between atoms: C_18  and  C_19
REMARK    8  A    between atoms: C_23  and  O_24
REMARK    9  A    between atoms: O_24  and  C_25
REMARK   10  A    between atoms: C_25  and  C_26
REMARK                            x       y       z     vdW  Elec       q    Type
REMARK                         _______ _______ _______ _____ _____    ______ ____
ROOT
ATOM      1  C   UNL     1       1.443   8.486  20.096  0.00  0.00    +0.000 A 
ATOM      2  C   UNL     1       0.792   9.658  19.654  0.00  0.00    +0.000 A 
ATOM      3  N   UNL     1       0.972  10.128  18.396  0.00  0.00    +0.000 N 
ATOM      4  C   UNL     1       1.771   9.469  17.535  0.00  0.00    +0.000 A 
ATOM      5  C   UNL     1       2.389   8.280  17.913  0.00  0.00    +0.000 A 
ATOM      6  C   UNL     1       2.248   7.748  19.208  0.00  0.00    +0.000 A 
ENDROOT
BRANCH   1   8
ATOM      7  C   UNL     1       1.442   9.095  22.619  0.00  0.00    +0.000 C 
ATOM      8  C   UNL     1       1.123   8.143  21.503  0.00  0.00    +0.000 C 
ATOM      9  O   UNL     1       0.507   7.095  21.693  0.00  0.00    +0.000 OA
ENDBRANCH   1   8
BRANCH   3  10
ATOM     10  C   UNL     1       0.252  11.354  17.948  0.00  0.00    +0.000 C 
BRANCH  10  11
ATOM     11  C   UNL     1      -1.246  11.124  17.933  0.00  0.00    +0.000 A 
ATOM     12  C   UNL     1      -1.787  10.128  17.103  0.00  0.00    +0.000 A 
ATOM     13  C   UNL     1      -3.158   9.915  17.019  0.00  0.00    +0.000 A 
ATOM     14  C   UNL     1      -4.023  10.698  17.787  0.00  0.00    +0.000 A 
ATOM     15  C   UNL     1      -3.510  11.663  18.641  0.00  0.00    +0.000 A 
ATOM     16  C   UNL     1      -2.130  11.875  18.748  0.00  0.00    +0.000 A 
ATOM     17  C   UNL     1      -1.640  12.898  19.738  0.00  0.00    +0.000 C 
ENDBRANCH  10  11
ENDBRANCH   3  10
BRANCH   6  18
ATOM     18  C   UNL     1       2.916   6.396  19.494  0.00  0.00    +0.000 C 
BRANCH  18  19
ATOM     19  C   UNL     1       3.922   5.952  18.433  0.00  0.00    +0.000 C 
ATOM     20  C   UNL     1       3.444   4.842  17.498  0.00  0.00    +0.000 C 
ATOM     21  C   UNL     1       4.737   4.611  16.796  0.00  0.00    +0.000 A 
ATOM     22  C   UNL     1       4.982   4.908  15.472  0.00  0.00    +0.000 A 
ATOM     23  C   UNL     1       6.305   5.016  15.060  0.00  0.00    +0.000 A 
ATOM     24  C   UNL     1       7.342   4.619  15.930  0.00  0.00    +0.000 A 
ATOM     25  C   UNL     1       7.090   4.396  17.292  0.00  0.00    +0.000 A 
ATOM     26  C   UNL     1       5.783   4.551  17.706  0.00  0.00    +0.000 A 
ATOM     27  C   UNL     1       5.276   5.343  18.864  0.00  0.00    +0.000 C 
ATOM     28  O   UNL     1       5.905   5.612  19.870  0.00  0.00    +0.000 OA
BRANCH  23  29
ATOM     29  O   UNL     1       6.705   5.614  13.897  0.00  0.00    +0.000 OA
BRANCH  29  30
ATOM     30  C   UNL     1       7.369   4.814  12.902  0.00  0.00    +0.000 C 
BRANCH  30  31
ATOM     31  C   UNL     1       6.593   3.631  12.304  0.00  0.00    +0.000 C 
ATOM     32  F   UNL     1       5.436   3.978  11.704  0.00  0.00    +0.000 F 
ATOM     33  F   UNL     1       7.343   2.966  11.393  0.00  0.00    +0.000 F 
ATOM     34  F   UNL     1       6.277   2.729  13.273  0.00  0.00    +0.000 F 
ENDBRANCH  30  31
ENDBRANCH  29  30
ENDBRANCH  23  29
ENDBRANCH  18  19
ENDBRANCH   6  18
TORSDOF 8
ENDMDL
MODEL 9
REMARK VINA RESULT:      -7.9      2.121      2.657
REMARK  Name = 
REMARK  10 active torsions:
REMARK  status: ('A' for Active; 'I' for Inactive)
REMARK    1  A    between atoms: C_1  and  C_2
REMARK    2  A    between atoms: C_2  and  C_4
REMARK    3  A    between atoms: N_6  and  C_7
REMARK    4  A    between atoms: C_7  and  C_8
REMARK    5  A    between atoms: C_13  and  C_14
REMARK    6  A    between atoms: C_17  and  C_18
REMARK    7  A    between atoms: C_18  and  C_19
REMARK    8  A    between atoms: C_23  and  O_24
REMARK    9  A    between atoms: O_24  and  C_25
REMARK   10  A    between atoms: C_25  and  C_26
REMARK                            x       y       z     vdW  Elec       q    Type
REMARK                         _______ _______ _______ _____ _____    ______ ____
ROOT
ATOM      1  C   UNL     1       1.158   8.808  20.457  0.00  0.00    +0.000 A 
ATOM      2  C   UNL     1       2.029   7.703  20.343  0.00  0.00    +0.000 A 
ATOM      3  N   UNL     1       2.477   7.286  19.134  0.00  0.00    +0.000 N 
ATOM      4  C   UNL     1       2.107   7.934  18.013  0.00  0.00    +0.000 A 
ATOM      5  C   UNL     1       1.292   9.062  18.086  0.00  0.00    +0.000 A 
ATOM      6  C   UNL     1       0.788   9.537  19.311  0.00  0.00    +0.000 A 
ENDROOT
BRANCH   1   8
ATOM      7  C   UNL     1      -0.630   8.880  22.337  0.00  0.00    +0.000 C 
ATOM      8  C   UNL     1       0.776   9.100  21.860  0.00  0.00    +0.000 C 
ATOM      9  O   UNL     1       1.681   9.438  22.622  0.00  0.00    +0.000 OA
ENDBRANCH   1   8
BRANCH   3  10
ATOM     10  C   UNL     1       3.416   6.132  19.046  0.00  0.00    +0.000 C 
BRANCH  10  11
ATOM     11  C   UNL     1       2.656   4.828  18.903  0.00  0.00    +0.000 A 
ATOM     12  C   UNL     1       1.609   4.534  19.794  0.00  0.00    +0.000 A 
ATOM     13  C   UNL     1       0.917   3.330  19.732  0.00  0.00    +0.000 A 
ATOM     14  C   UNL     1       1.257   2.392  18.756  0.00  0.00    +0.000 A 
ATOM     15  C   UNL     1       2.262   2.674  17.843  0.00  0.00    +0.000 A 
ATOM     16  C   UNL     1       2.955   3.891  17.883  0.00  0.00    +0.000 A 
ATOM     17  C   UNL     1       3.994   4.155  16.826  0.00  0.00    +0.000 C 
ENDBRANCH  10  11
ENDBRANCH   3  10
BRANCH   6  18
ATOM     18  C   UNL     1      -0.042  10.828  19.281  0.00  0.00    +0.000 C 
BRANCH  18  19
ATOM     19  C   UNL     1       0.760  12.100  19.552  0.00  0.00    +0.000 C 
ATOM     20  C   UNL     1       0.879  12.501  21.021  0.00  0.00    +0.000 C 
ATOM     21  C   UNL     1       1.537  13.819  20.808  0.00  0.00    +0.000 A 
ATOM     22  C   UNL     1       2.836  14.121  21.161  0.00  0.00    +0.000 A 
ATOM     23  C   UNL     1       3.438  15.221  20.562  0.00  0.00    +0.000 A 
ATOM     24  C   UNL     1       2.658  16.110  19.791  0.00  0.00    +0.000 A 
ATOM     25  C   UNL     1       1.367  15.755  19.375  0.00  0.00    +0.000 A 
ATOM     26  C   UNL     1       0.906  14.524  19.794  0.00  0.00    +0.000 A 
ATOM     27  C   UNL     1       0.283  13.449  18.967  0.00  0.00    +0.000 C 
ATOM     28  O   UNL     1      -0.318  13.614  17.923  0.00  0.00    +0.000 OA
BRANCH  23  29
ATOM     29  O   UNL     1       4.785  15.452  20.548  0.00  0.00    +0.000 OA
BRANCH  29  30
ATOM     30  C   UNL     1       5.586  14.810  19.539  0.00  0.00    +0.000 C 
BRANCH  30  31
ATOM     31  C   UNL     1       5.733  15.522  18.186  0.00  0.00    +0.000 C 
ATOM     32  F   UNL     1       5.723  16.868  18.268  0.00  0.00    +0.000 F 
ATOM     33  F   UNL     1       6.881  15.158  17.566  0.00  0.00    +0.000 F 
ATOM     34  F   UNL     1       4.718  15.172  17.350  0.00  0.00    +0.000 F 
ENDBRANCH  30  31
ENDBRANCH  29  30
ENDBRANCH  23  29
ENDBRANCH  18  19
ENDBRANCH   6  18
TORSDOF 8
ENDMDL
