MODEL 1
REMARK VINA RESULT:      -7.5      0.000      0.000
REMARK  Name = 
REMARK  13 active torsions:
REMARK  status: ('A' for Active; 'I' for Inactive)
REMARK    1  A    between atoms: C_2  and  C_3
REMARK    2  A    between atoms: C_3  and  O_4
REMARK    3  A    between atoms: O_4  and  C_5
REMARK    4  A    between atoms: C_5  and  C_7
REMARK    5  A    between atoms: C_7  and  C_8
REMARK    6  A    between atoms: C_9  and  C_10
REMARK    7  A    between atoms: C_10  and  O_12
REMARK    8  A    between atoms: O_12  and  C_13
REMARK    9  A    between atoms: C_13  and  C_14
REMARK   10  A    between atoms: C_15  and  N_16
REMARK   11  A    between atoms: C_21  and  C_22
REMARK   12  A    between atoms: C_26  and  N_27
REMARK   13  A    between atoms: N_27  and  C_28
REMARK                            x       y       z     vdW  Elec       q    Type
REMARK                         _______ _______ _______ _____ _____    ______ ____
ROOT
ATOM      1  C   UNL     1       4.472   5.664  18.499  0.00  0.00    +0.000 C 
ATOM      2  C   UNL     1       5.026   4.266  18.604  0.00  0.00    +0.000 C 
ATOM      3  C   UNL     1       4.379   3.293  19.277  0.00  0.00    +0.000 C 
ATOM      4  O   UNL     1       3.166   3.528  19.925  0.00  0.00    +0.000 OA
ATOM      5  C   UNL     1       2.704   4.814  20.060  0.00  0.00    +0.000 A 
ATOM      6  C   UNL     1       1.575   5.018  20.847  0.00  0.00    +0.000 A 
ATOM      7  C   UNL     1       1.054   6.306  21.015  0.00  0.00    +0.000 A 
ATOM      8  C   UNL     1       1.643   7.420  20.397  0.00  0.00    +0.000 A 
ATOM      9  C   UNL     1       2.787   7.179  19.609  0.00  0.00    +0.000 A 
ATOM     10  C   UNL     1       3.307   5.891  19.428  0.00  0.00    +0.000 A 
ENDROOT
BRANCH   8  11
ATOM     11  C   UNL     1       1.088   8.792  20.512  0.00  0.00    +0.000 A 
ATOM     12  C   UNL     1       0.667   9.312  21.743  0.00  0.00    +0.000 A 
ATOM     13  C   UNL     1       0.107  10.585  21.828  0.00  0.00    +0.000 A 
ATOM     14  C   UNL     1      -0.062  11.352  20.675  0.00  0.00    +0.000 A 
ATOM     15  C   UNL     1       0.324  10.875  19.417  0.00  0.00    +0.000 A 
ATOM     16  C   UNL     1       0.932   9.614  19.371  0.00  0.00    +0.000 A 
BRANCH  15  17
ATOM     17  N   UNL     1       0.215  11.734  18.327  0.00  0.00    +0.000 N 
ATOM     18  C   UNL     1       0.083  13.172  18.450  0.00  0.00    +0.000 C 
ATOM     19  H   UNL     1       0.812  11.454  17.552  0.00  0.00    +0.000 HD
ENDBRANCH  15  17
ENDBRANCH   8  11
BRANCH   3  20
ATOM     20  N   UNL     1       4.793   1.985  19.391  0.00  0.00    +0.000 N 
ATOM     21  H   UNL     1       4.131   1.333  18.965  0.00  0.00    +0.000 HD
ATOM     22  H   UNL     1       4.987   1.750  20.360  0.00  0.00    +0.000 HD
ENDBRANCH   3  20
BRANCH   2  23
ATOM     23  C   UNL     1       6.330   4.105  17.914  0.00  0.00    +0.000 C 
ATOM     24  O   UNL     1       7.372   4.547  18.381  0.00  0.00    +0.000 OA
BRANCH  23  25
ATOM     25  O   UNL     1       6.192   3.569  16.674  0.00  0.00    +0.000 OA
BRANCH  25  26
ATOM     26  C   UNL     1       7.031   4.162  15.671  0.00  0.00    +0.000 C 
ATOM     27  C   UNL     1       6.390   4.012  14.302  0.00  0.00    +0.000 C 
ENDBRANCH  25  26
ENDBRANCH  23  25
ENDBRANCH   2  23
BRANCH   1  28
ATOM     28  C   UNL     1       4.093   6.022  17.055  0.00  0.00    +0.000 C 
BRANCH  28  29
ATOM     29  C   UNL     1       5.068   6.961  16.389  0.00  0.00    +0.000 C 
ATOM     30  O   UNL     1       5.133   7.124  15.177  0.00  0.00    +0.000 OA
BRANCH  29  31
ATOM     31  O   UNL     1       5.901   7.515  17.308  0.00  0.00    +0.000 OA
BRANCH  31  32
ATOM     32  C   UNL     1       7.284   7.457  16.951  0.00  0.00    +0.000 C 
BRANCH  32  34
ATOM     33  C   UNL     1       8.538   9.560  18.357  0.00  0.00    +0.000 C 
ATOM     34  C   UNL     1       7.959   8.589  17.708  0.00  0.00    +0.000 C 
ENDBRANCH  32  34
ENDBRANCH  31  32
ENDBRANCH  29  31
ENDBRANCH  28  29
ENDBRANCH   1  28
TORSDOF 11
ENDMDL
MODEL 2
REMARK VINA RESULT:      -6.9      3.764      8.739
REMARK  Name = 
REMARK  13 active torsions:
REMARK  status: ('A' for Active; 'I' for Inactive)
REMARK    1  A    between atoms: C_2  and  C_3
REMARK    2  A    between atoms: C_3  and  O_4
REMARK    3  A    between atoms: O_4  and  C_5
REMARK    4  A    between atoms: C_5  and  C_7
REMARK    5  A    between atoms: C_7  and  C_8
REMARK    6  A    between atoms: C_9  and  C_10
REMARK    7  A    between atoms: C_10  and  O_12
REMARK    8  A    between atoms: O_12  and  C_13
REMARK    9  A    between atoms: C_13  and  C_14
REMARK   10  A    between atoms: C_15  and  N_16
REMARK   11  A    between atoms: C_21  and  C_22
REMARK   12  A    between atoms: C_26  and  N_27
REMARK   13  A    between atoms: N_27  and  C_28
REMARK                            x       y       z     vdW  Elec       q    Type
REMARK                         _______ _______ _______ _____ _____    ______ ____
ROOT
ATOM      1  C   UNL     1       0.803  10.211  19.897  0.00  0.00    +0.000 C 
ATOM      2  C   UNL     1       1.155  11.583  19.384  0.00  0.00    +0.000 C 
ATOM      3  C   UNL     1       1.939  11.757  18.299  0.00  0.00    +0.000 C 
ATOM      4  O   UNL     1       2.478  10.677  17.600  0.00  0.00    +0.000 OA
ATOM      5  C   UNL     1       2.385   9.411  18.125  0.00  0.00    +0.000 A 
ATOM      6  C   UNL     1       3.071   8.389  17.476  0.00  0.00    +0.000 A 
ATOM      7  C   UNL     1       3.006   7.077  17.960  0.00  0.00    +0.000 A 
ATOM      8  C   UNL     1       2.252   6.754  19.098  0.00  0.00    +0.000 A 
ATOM      9  C   UNL     1       1.571   7.813  19.733  0.00  0.00    +0.000 A 
ATOM     10  C   UNL     1       1.623   9.126  19.247  0.00  0.00    +0.000 A 
ENDROOT
BRANCH   8  11
ATOM     11  C   UNL     1       2.120   5.367  19.610  0.00  0.00    +0.000 A 
ATOM     12  C   UNL     1       1.775   5.107  20.943  0.00  0.00    +0.000 A 
ATOM     13  C   UNL     1       1.699   3.800  21.420  0.00  0.00    +0.000 A 
ATOM     14  C   UNL     1       1.989   2.729  20.575  0.00  0.00    +0.000 A 
ATOM     15  C   UNL     1       2.357   2.931  19.240  0.00  0.00    +0.000 A 
ATOM     16  C   UNL     1       2.374   4.253  18.775  0.00  0.00    +0.000 A 
BRANCH  15  17
ATOM     17  N   UNL     1       2.538   1.812  18.431  0.00  0.00    +0.000 N 
ATOM     18  C   UNL     1       3.812   1.143  18.263  0.00  0.00    +0.000 C 
ATOM     19  H   UNL     1       1.753   1.167  18.483  0.00  0.00    +0.000 HD
ENDBRANCH  15  17
ENDBRANCH   8  11
BRANCH   3  20
ATOM     20  N   UNL     1       2.278  12.969  17.741  0.00  0.00    +0.000 N 
ATOM     21  H   UNL     1       1.647  13.235  16.984  0.00  0.00    +0.000 HD
ATOM     22  H   UNL     1       3.250  12.971  17.445  0.00  0.00    +0.000 HD
ENDBRANCH   3  20
BRANCH   2  23
ATOM     23  C   UNL     1       0.567  12.676  20.196  0.00  0.00    +0.000 C 
ATOM     24  O   UNL     1       0.170  13.720  19.693  0.00  0.00    +0.000 OA
BRANCH  23  25
ATOM     25  O   UNL     1       0.674  12.441  21.529  0.00  0.00    +0.000 OA
BRANCH  25  26
ATOM     26  C   UNL     1      -0.500  12.769  22.289  0.00  0.00    +0.000 C 
ATOM     27  C   UNL     1      -1.088  11.511  22.905  0.00  0.00    +0.000 C 
ENDBRANCH  25  26
ENDBRANCH  23  25
ENDBRANCH   2  23
BRANCH   1  28
ATOM     28  C   UNL     1      -0.697   9.915  19.757  0.00  0.00    +0.000 C 
BRANCH  28  29
ATOM     29  C   UNL     1      -1.250  10.231  18.388  0.00  0.00    +0.000 C 
ATOM     30  O   UNL     1      -0.933   9.625  17.373  0.00  0.00    +0.000 OA
BRANCH  29  31
ATOM     31  O   UNL     1      -2.063  11.318  18.441  0.00  0.00    +0.000 OA
BRANCH  31  32
ATOM     32  C   UNL     1      -3.426  11.042  18.117  0.00  0.00    +0.000 C 
BRANCH  32  34
ATOM     33  C   UNL     1      -3.546  10.922  15.298  0.00  0.00    +0.000 C 
ATOM     34  C   UNL     1      -3.491  10.978  16.600  0.00  0.00    +0.000 C 
ENDBRANCH  32  34
ENDBRANCH  31  32
ENDBRANCH  29  31
ENDBRANCH  28  29
ENDBRANCH   1  28
TORSDOF 11
ENDMDL
MODEL 3
REMARK VINA RESULT:      -6.8      3.677      8.691
REMARK  Name = 
REMARK  13 active torsions:
REMARK  status: ('A' for Active; 'I' for Inactive)
REMARK    1  A    between atoms: C_2  and  C_3
REMARK    2  A    between atoms: C_3  and  O_4
REMARK    3  A    between atoms: O_4  and  C_5
REMARK    4  A    between atoms: C_5  and  C_7
REMARK    5  A    between atoms: C_7  and  C_8
REMARK    6  A    between atoms: C_9  and  C_10
REMARK    7  A    between atoms: C_10  and  O_12
REMARK    8  A    between atoms: O_12  and  C_13
REMARK    9  A    between atoms: C_13  and  C_14
REMARK   10  A    between atoms: C_15  and  N_16
REMARK   11  A    between atoms: C_21  and  C_22
REMARK   12  A    between atoms: C_26  and  N_27
REMARK   13  A    between atoms: N_27  and  C_28
REMARK                            x       y       z     vdW  Elec       q    Type
REMARK                         _______ _______ _______ _____ _____    ______ ____
ROOT
ATOM      1  C   UNL     1       1.227  10.020  20.211  0.00  0.00    +0.000 C 
ATOM      2  C   UNL     1       1.410  11.355  19.537  0.00  0.00    +0.000 C 
ATOM      3  C   UNL     1       1.846  11.456  18.264  0.00  0.00    +0.000 C 
ATOM      4  O   UNL     1       2.163  10.330  17.503  0.00  0.00    +0.000 OA
ATOM      5  C   UNL     1       2.230   9.098  18.107  0.00  0.00    +0.000 A 
ATOM      6  C   UNL     1       2.703   8.031  17.349  0.00  0.00    +0.000 A 
ATOM      7  C   UNL     1       2.786   6.750  17.908  0.00  0.00    +0.000 A 
ATOM      8  C   UNL     1       2.395   6.503  19.232  0.00  0.00    +0.000 A 
ATOM      9  C   UNL     1       1.923   7.606  19.974  0.00  0.00    +0.000 A 
ATOM     10  C   UNL     1       1.827   8.888  19.417  0.00  0.00    +0.000 A 
ENDROOT
BRANCH   8  11
ATOM     11  C   UNL     1       2.422   5.150  19.841  0.00  0.00    +0.000 A 
ATOM     12  C   UNL     1       1.412   4.717  20.710  0.00  0.00    +0.000 A 
ATOM     13  C   UNL     1       1.473   3.460  21.310  0.00  0.00    +0.000 A 
ATOM     14  C   UNL     1       2.562   2.623  21.067  0.00  0.00    +0.000 A 
ATOM     15  C   UNL     1       3.608   3.012  20.223  0.00  0.00    +0.000 A 
ATOM     16  C   UNL     1       3.493   4.258  19.594  0.00  0.00    +0.000 A 
BRANCH  15  17
ATOM     17  N   UNL     1       4.613   2.086  19.951  0.00  0.00    +0.000 N 
ATOM     18  C   UNL     1       5.277   1.303  20.974  0.00  0.00    +0.000 C 
ATOM     19  H   UNL     1       4.433   1.559  19.100  0.00  0.00    +0.000 HD
ENDBRANCH  15  17
ENDBRANCH   8  11
BRANCH   3  20
ATOM     20  N   UNL     1       2.004  12.629  17.561  0.00  0.00    +0.000 N 
ATOM     21  H   UNL     1       2.916  13.058  17.728  0.00  0.00    +0.000 HD
ATOM     22  H   UNL     1       1.241  13.271  17.753  0.00  0.00    +0.000 HD
ENDBRANCH   3  20
BRANCH   2  23
ATOM     23  C   UNL     1       1.079  12.501  20.418  0.00  0.00    +0.000 C 
ATOM     24  O   UNL     1       0.116  13.228  20.207  0.00  0.00    +0.000 OA
BRANCH  23  25
ATOM     25  O   UNL     1       2.037  12.724  21.354  0.00  0.00    +0.000 OA
BRANCH  25  26
ATOM     26  C   UNL     1       2.491  14.085  21.431  0.00  0.00    +0.000 C 
ATOM     27  C   UNL     1       3.570  14.333  20.391  0.00  0.00    +0.000 C 
ENDBRANCH  25  26
ENDBRANCH  23  25
ENDBRANCH   2  23
BRANCH   1  28
ATOM     28  C   UNL     1      -0.248   9.737  20.528  0.00  0.00    +0.000 C 
BRANCH  28  29
ATOM     29  C   UNL     1      -0.506   9.433  21.984  0.00  0.00    +0.000 C 
ATOM     30  O   UNL     1      -0.759   8.313  22.408  0.00  0.00    +0.000 OA
BRANCH  29  31
ATOM     31  O   UNL     1      -0.505  10.577  22.718  0.00  0.00    +0.000 OA
BRANCH  31  32
ATOM     32  C   UNL     1      -1.752  11.273  22.712  0.00  0.00    +0.000 C 
BRANCH  32  34
ATOM     33  C   UNL     1      -1.174  13.908  23.550  0.00  0.00    +0.000 C 
ATOM     34  C   UNL     1      -1.440  12.692  23.163  0.00  0.00    +0.000 C 
ENDBRANCH  32  34
ENDBRANCH  31  32
ENDBRANCH  29  31
ENDBRANCH  28  29
ENDBRANCH   1  28
TORSDOF 11
ENDMDL
MODEL 4
REMARK VINA RESULT:      -6.7      3.622      8.825
REMARK  Name = 
REMARK  13 active torsions:
REMARK  status: ('A' for Active; 'I' for Inactive)
REMARK    1  A    between atoms: C_2  and  C_3
REMARK    2  A    between atoms: C_3  and  O_4
REMARK    3  A    between atoms: O_4  and  C_5
REMARK    4  A    between atoms: C_5  and  C_7
REMARK    5  A    between atoms: C_7  and  C_8
REMARK    6  A    between atoms: C_9  and  C_10
REMARK    7  A    between atoms: C_10  and  O_12
REMARK    8  A    between atoms: O_12  and  C_13
REMARK    9  A    between atoms: C_13  and  C_14
REMARK   10  A    between atoms: C_15  and  N_16
REMARK   11  A    between atoms: C_21  and  C_22
REMARK   12  A    between atoms: C_26  and  N_27
REMARK   13  A    between atoms: N_27  and  C_28
REMARK                            x       y       z     vdW  Elec       q    Type
REMARK                         _______ _______ _______ _____ _____    ______ ____
ROOT
ATOM      1  C   UNL     1       1.326  10.033  20.134  0.00  0.00    +0.000 C 
ATOM      2  C   UNL     1       1.525  11.362  19.451  0.00  0.00    +0.000 C 
ATOM      3  C   UNL     1       1.978  11.450  18.184  0.00  0.00    +0.000 C 
ATOM      4  O   UNL     1       2.301  10.316  17.437  0.00  0.00    +0.000 OA
ATOM      5  C   UNL     1       2.354   9.089  18.052  0.00  0.00    +0.000 A 
ATOM      6  C   UNL     1       2.833   8.014  17.310  0.00  0.00    +0.000 A 
ATOM      7  C   UNL     1       2.902   6.737  17.881  0.00  0.00    +0.000 A 
ATOM      8  C   UNL     1       2.492   6.503  19.201  0.00  0.00    +0.000 A 
ATOM      9  C   UNL     1       2.015   7.615  19.926  0.00  0.00    +0.000 A 
ATOM     10  C   UNL     1       1.932   8.892  19.358  0.00  0.00    +0.000 A 
ENDROOT
BRANCH   8  11
ATOM     11  C   UNL     1       2.504   5.155  19.822  0.00  0.00    +0.000 A 
ATOM     12  C   UNL     1       1.474   4.729  20.671  0.00  0.00    +0.000 A 
ATOM     13  C   UNL     1       1.521   3.478  21.282  0.00  0.00    +0.000 A 
ATOM     14  C   UNL     1       2.615   2.638  21.071  0.00  0.00    +0.000 A 
ATOM     15  C   UNL     1       3.680   3.020  20.248  0.00  0.00    +0.000 A 
ATOM     16  C   UNL     1       3.580   4.261  19.606  0.00  0.00    +0.000 A 
BRANCH  15  17
ATOM     17  N   UNL     1       4.690   2.091  20.007  0.00  0.00    +0.000 N 
ATOM     18  C   UNL     1       5.234   1.217  21.027  0.00  0.00    +0.000 C 
ATOM     19  H   UNL     1       4.588   1.635  19.104  0.00  0.00    +0.000 HD
ENDBRANCH  15  17
ENDBRANCH   8  11
BRANCH   3  20
ATOM     20  N   UNL     1       2.152  12.616  17.473  0.00  0.00    +0.000 N 
ATOM     21  H   UNL     1       2.839  12.512  16.724  0.00  0.00    +0.000 HD
ATOM     22  H   UNL     1       2.382  13.386  18.095  0.00  0.00    +0.000 HD
ENDBRANCH   3  20
BRANCH   2  23
ATOM     23  C   UNL     1       1.186  12.517  20.318  0.00  0.00    +0.000 C 
ATOM     24  O   UNL     1       1.639  12.635  21.450  0.00  0.00    +0.000 OA
BRANCH  23  25
ATOM     25  O   UNL     1       0.222  13.303  19.774  0.00  0.00    +0.000 OA
BRANCH  25  26
ATOM     26  C   UNL     1       0.533  14.706  19.763  0.00  0.00    +0.000 C 
ATOM     27  C   UNL     1      -0.413  15.454  20.688  0.00  0.00    +0.000 C 
ENDBRANCH  25  26
ENDBRANCH  23  25
ENDBRANCH   2  23
BRANCH   1  28
ATOM     28  C   UNL     1      -0.155   9.759  20.433  0.00  0.00    +0.000 C 
BRANCH  28  29
ATOM     29  C   UNL     1      -0.429   9.428  21.879  0.00  0.00    +0.000 C 
ATOM     30  O   UNL     1      -0.853   8.344  22.258  0.00  0.00    +0.000 OA
BRANCH  29  31
ATOM     31  O   UNL     1      -0.224  10.517  22.665  0.00  0.00    +0.000 OA
BRANCH  31  32
ATOM     32  C   UNL     1      -1.399  10.982  23.332  0.00  0.00    +0.000 C 
BRANCH  32  34
ATOM     33  C   UNL     1      -2.663  12.755  21.534  0.00  0.00    +0.000 C 
ATOM     34  C   UNL     1      -2.080  11.936  22.364  0.00  0.00    +0.000 C 
ENDBRANCH  32  34
ENDBRANCH  31  32
ENDBRANCH  29  31
ENDBRANCH  28  29
ENDBRANCH   1  28
TORSDOF 11
ENDMDL
MODEL 5
REMARK VINA RESULT:      -6.7      4.771      7.591
REMARK  Name = 
REMARK  13 active torsions:
REMARK  status: ('A' for Active; 'I' for Inactive)
REMARK    1  A    between atoms: C_2  and  C_3
REMARK    2  A    between atoms: C_3  and  O_4
REMARK    3  A    between atoms: O_4  and  C_5
REMARK    4  A    between atoms: C_5  and  C_7
REMARK    5  A    between atoms: C_7  and  C_8
REMARK    6  A    between atoms: C_9  and  C_10
REMARK    7  A    between atoms: C_10  and  O_12
REMARK    8  A    between atoms: O_12  and  C_13
REMARK    9  A    between atoms: C_13  and  C_14
REMARK   10  A    between atoms: C_15  and  N_16
REMARK   11  A    between atoms: C_21  and  C_22
REMARK   12  A    between atoms: C_26  and  N_27
REMARK   13  A    between atoms: N_27  and  C_28
REMARK                            x       y       z     vdW  Elec       q    Type
REMARK                         _______ _______ _______ _____ _____    ______ ____
ROOT
ATOM      1  C   UNL     1       0.002  10.415  19.479  0.00  0.00    +0.000 C 
ATOM      2  C   UNL     1       1.047   9.331  19.549  0.00  0.00    +0.000 C 
ATOM      3  C   UNL     1       1.248   8.608  20.670  0.00  0.00    +0.000 C 
ATOM      4  O   UNL     1       0.509   8.831  21.832  0.00  0.00    +0.000 OA
ATOM      5  C   UNL     1      -0.305   9.934  21.920  0.00  0.00    +0.000 A 
ATOM      6  C   UNL     1      -0.900  10.203  23.148  0.00  0.00    +0.000 A 
ATOM      7  C   UNL     1      -1.746  11.309  23.295  0.00  0.00    +0.000 A 
ATOM      8  C   UNL     1      -2.022  12.167  22.221  0.00  0.00    +0.000 A 
ATOM      9  C   UNL     1      -1.402  11.867  20.990  0.00  0.00    +0.000 A 
ATOM     10  C   UNL     1      -0.563  10.756  20.834  0.00  0.00    +0.000 A 
ENDROOT
BRANCH   8  11
ATOM     11  C   UNL     1      -2.953  13.318  22.328  0.00  0.00    +0.000 A 
ATOM     12  C   UNL     1      -2.720  14.515  21.638  0.00  0.00    +0.000 A 
ATOM     13  C   UNL     1      -3.579  15.604  21.783  0.00  0.00    +0.000 A 
ATOM     14  C   UNL     1      -4.676  15.518  22.640  0.00  0.00    +0.000 A 
ATOM     15  C   UNL     1      -4.946  14.353  23.368  0.00  0.00    +0.000 A 
ATOM     16  C   UNL     1      -4.095  13.260  23.161  0.00  0.00    +0.000 A 
BRANCH  15  17
ATOM     17  N   UNL     1      -6.111  14.309  24.129  0.00  0.00    +0.000 N 
ATOM     18  C   UNL     1      -7.067  13.221  24.066  0.00  0.00    +0.000 C 
ATOM     19  H   UNL     1      -5.970  14.662  25.072  0.00  0.00    +0.000 HD
ENDBRANCH  15  17
ENDBRANCH   8  11
BRANCH   3  20
ATOM     20  N   UNL     1       2.151   7.577  20.809  0.00  0.00    +0.000 N 
ATOM     21  H   UNL     1       2.991   7.723  20.246  0.00  0.00    +0.000 HD
ATOM     22  H   UNL     1       1.711   6.683  20.611  0.00  0.00    +0.000 HD
ENDBRANCH   3  20
BRANCH   2  23
ATOM     23  C   UNL     1       1.808   9.174  18.285  0.00  0.00    +0.000 C 
ATOM     24  O   UNL     1       2.094  10.130  17.575  0.00  0.00    +0.000 OA
BRANCH  23  25
ATOM     25  O   UNL     1       1.992   7.871  17.954  0.00  0.00    +0.000 OA
BRANCH  25  26
ATOM     26  C   UNL     1       3.340   7.532  17.590  0.00  0.00    +0.000 C 
ATOM     27  C   UNL     1       3.577   6.046  17.797  0.00  0.00    +0.000 C 
ENDBRANCH  25  26
ENDBRANCH  23  25
ENDBRANCH   2  23
BRANCH   1  28
ATOM     28  C   UNL     1      -1.122  10.062  18.494  0.00  0.00    +0.000 C 
BRANCH  28  29
ATOM     29  C   UNL     1      -1.884  11.264  17.992  0.00  0.00    +0.000 C 
ATOM     30  O   UNL     1      -1.354  12.321  17.678  0.00  0.00    +0.000 OA
BRANCH  29  31
ATOM     31  O   UNL     1      -3.222  11.028  18.027  0.00  0.00    +0.000 OA
BRANCH  31  32
ATOM     32  C   UNL     1      -3.934  11.550  16.903  0.00  0.00    +0.000 C 
BRANCH  32  34
ATOM     33  C   UNL     1      -3.078  10.043  14.673  0.00  0.00    +0.000 C 
ATOM     34  C   UNL     1      -3.473  10.739  15.703  0.00  0.00    +0.000 C 
ENDBRANCH  32  34
ENDBRANCH  31  32
ENDBRANCH  29  31
ENDBRANCH  28  29
ENDBRANCH   1  28
TORSDOF 11
ENDMDL
MODEL 6
REMARK VINA RESULT:      -6.6      5.130      9.808
REMARK  Name = 
REMARK  13 active torsions:
REMARK  status: ('A' for Active; 'I' for Inactive)
REMARK    1  A    between atoms: C_2  and  C_3
REMARK    2  A    between atoms: C_3  and  O_4
REMARK    3  A    between atoms: O_4  and  C_5
REMARK    4  A    between atoms: C_5  and  C_7
REMARK    5  A    between atoms: C_7  and  C_8
REMARK    6  A    between atoms: C_9  and  C_10
REMARK    7  A    between atoms: C_10  and  O_12
REMARK    8  A    between atoms: O_12  and  C_13
REMARK    9  A    between atoms: C_13  and  C_14
REMARK   10  A    between atoms: C_15  and  N_16
REMARK   11  A    between atoms: C_21  and  C_22
REMARK   12  A    between atoms: C_26  and  N_27
REMARK   13  A    between atoms: N_27  and  C_28
REMARK                            x       y       z     vdW  Elec       q    Type
REMARK                         _______ _______ _______ _____ _____    ______ ____
ROOT
ATOM      1  C   UNL     1      -1.763  12.059  20.779  0.00  0.00    +0.000 C 
ATOM      2  C   UNL     1      -2.707  12.602  21.821  0.00  0.00    +0.000 C 
ATOM      3  C   UNL     1      -2.629  12.228  23.115  0.00  0.00    +0.000 C 
ATOM      4  O   UNL     1      -1.679  11.309  23.560  0.00  0.00    +0.000 OA
ATOM      5  C   UNL     1      -0.928  10.609  22.646  0.00  0.00    +0.000 A 
ATOM      6  C   UNL     1      -0.108   9.592  23.125  0.00  0.00    +0.000 A 
ATOM      7  C   UNL     1       0.686   8.851  22.241  0.00  0.00    +0.000 A 
ATOM      8  C   UNL     1       0.683   9.110  20.862  0.00  0.00    +0.000 A 
ATOM      9  C   UNL     1      -0.161  10.145  20.410  0.00  0.00    +0.000 A 
ATOM     10  C   UNL     1      -0.949  10.898  21.290  0.00  0.00    +0.000 A 
ENDROOT
BRANCH   8  11
ATOM     11  C   UNL     1       1.548   8.378  19.904  0.00  0.00    +0.000 A 
ATOM     12  C   UNL     1       1.838   8.897  18.635  0.00  0.00    +0.000 A 
ATOM     13  C   UNL     1       2.615   8.178  17.728  0.00  0.00    +0.000 A 
ATOM     14  C   UNL     1       3.098   6.915  18.070  0.00  0.00    +0.000 A 
ATOM     15  C   UNL     1       2.823   6.340  19.316  0.00  0.00    +0.000 A 
ATOM     16  C   UNL     1       2.084   7.109  20.225  0.00  0.00    +0.000 A 
BRANCH  15  17
ATOM     17  N   UNL     1       3.418   5.119  19.623  0.00  0.00    +0.000 N 
ATOM     18  C   UNL     1       2.773   4.090  20.413  0.00  0.00    +0.000 C 
ATOM     19  H   UNL     1       3.956   4.746  18.844  0.00  0.00    +0.000 HD
ENDBRANCH  15  17
ENDBRANCH   8  11
BRANCH   3  20
ATOM     20  N   UNL     1      -3.423  12.702  24.136  0.00  0.00    +0.000 N 
ATOM     21  H   UNL     1      -3.656  13.689  24.017  0.00  0.00    +0.000 HD
ATOM     22  H   UNL     1      -2.996  12.518  25.040  0.00  0.00    +0.000 HD
ENDBRANCH   3  20
BRANCH   2  23
ATOM     23  C   UNL     1      -3.703  13.550  21.265  0.00  0.00    +0.000 C 
ATOM     24  O   UNL     1      -3.841  14.683  21.710  0.00  0.00    +0.000 OA
BRANCH  23  25
ATOM     25  O   UNL     1      -4.515  12.965  20.349  0.00  0.00    +0.000 OA
BRANCH  25  26
ATOM     26  C   UNL     1      -5.856  12.726  20.805  0.00  0.00    +0.000 C 
ATOM     27  C   UNL     1      -6.849  13.417  19.885  0.00  0.00    +0.000 C 
ENDBRANCH  25  26
ENDBRANCH  23  25
ENDBRANCH   2  23
BRANCH   1  28
ATOM     28  C   UNL     1      -0.850  13.153  20.209  0.00  0.00    +0.000 C 
BRANCH  28  29
ATOM     29  C   UNL     1      -0.710  13.103  18.708  0.00  0.00    +0.000 C 
ATOM     30  O   UNL     1       0.249  13.561  18.100  0.00  0.00    +0.000 OA
BRANCH  29  31
ATOM     31  O   UNL     1      -1.823  12.567  18.142  0.00  0.00    +0.000 OA
BRANCH  31  32
ATOM     32  C   UNL     1      -1.554  11.536  17.191  0.00  0.00    +0.000 C 
BRANCH  32  34
ATOM     33  C   UNL     1      -3.400   9.471  17.742  0.00  0.00    +0.000 C 
ATOM     34  C   UNL     1      -2.547  10.424  17.487  0.00  0.00    +0.000 C 
ENDBRANCH  32  34
ENDBRANCH  31  32
ENDBRANCH  29  31
ENDBRANCH  28  29
ENDBRANCH   1  28
TORSDOF 11
ENDMDL
MODEL 7
REMARK VINA RESULT:      -6.6      5.890     10.646
REMARK  Name = 
REMARK  13 active torsions:
REMARK  status: ('A' for Active; 'I' for Inactive)
REMARK    1  A    between atoms: C_2  and  C_3
REMARK    2  A    between atoms: C_3  and  O_4
REMARK    3  A    between atoms: O_4  and  C_5
REMARK    4  A    between atoms: C_5  and  C_7
REMARK    5  A    between atoms: C_7  and  C_8
REMARK    6  A    between atoms: C_9  and  C_10
REMARK    7  A    between atoms: C_10  and  O_12
REMARK    8  A    between atoms: O_12  and  C_13
REMARK    9  A    between atoms: C_13  and  C_14
REMARK   10  A    between atoms: C_15  and  N_16
REMARK   11  A    between atoms: C_21  and  C_22
REMARK   12  A    between atoms: C_26  and  N_27
REMARK   13  A    between atoms: N_27  and  C_28
REMARK                            x       y       z     vdW  Elec       q    Type
REMARK                         _______ _______ _______ _____ _____    ______ ____
ROOT
ATOM      1  C   UNL     1      -3.144  12.021  19.933  0.00  0.00    +0.000 C 
ATOM      2  C   UNL     1      -3.794  13.194  20.621  0.00  0.00    +0.000 C 
ATOM      3  C   UNL     1      -3.068  14.176  21.194  0.00  0.00    +0.000 C 
ATOM      4  O   UNL     1      -1.673  14.155  21.193  0.00  0.00    +0.000 OA
ATOM      5  C   UNL     1      -1.009  13.025  20.782  0.00  0.00    +0.000 A 
ATOM      6  C   UNL     1       0.372  12.990  20.947  0.00  0.00    +0.000 A 
ATOM      7  C   UNL     1       1.103  11.867  20.539  0.00  0.00    +0.000 A 
ATOM      8  C   UNL     1       0.475  10.758  19.954  0.00  0.00    +0.000 A 
ATOM      9  C   UNL     1      -0.926  10.825  19.804  0.00  0.00    +0.000 A 
ATOM     10  C   UNL     1      -1.661  11.949  20.199  0.00  0.00    +0.000 A 
ENDROOT
BRANCH   8  11
ATOM     11  C   UNL     1       1.223   9.574  19.464  0.00  0.00    +0.000 A 
ATOM     12  C   UNL     1       1.737   9.518  18.161  0.00  0.00    +0.000 A 
ATOM     13  C   UNL     1       2.399   8.381  17.701  0.00  0.00    +0.000 A 
ATOM     14  C   UNL     1       2.538   7.270  18.531  0.00  0.00    +0.000 A 
ATOM     15  C   UNL     1       2.028   7.263  19.835  0.00  0.00    +0.000 A 
ATOM     16  C   UNL     1       1.415   8.439  20.287  0.00  0.00    +0.000 A 
BRANCH  15  17
ATOM     17  N   UNL     1       2.290   6.156  20.638  0.00  0.00    +0.000 N 
ATOM     18  C   UNL     1       2.937   4.952  20.155  0.00  0.00    +0.000 C 
ATOM     19  H   UNL     1       2.586   6.419  21.575  0.00  0.00    +0.000 HD
ENDBRANCH  15  17
ENDBRANCH   8  11
BRANCH   3  20
ATOM     20  N   UNL     1      -3.578  15.298  21.807  0.00  0.00    +0.000 N 
ATOM     21  H   UNL     1      -4.589  15.235  21.945  0.00  0.00    +0.000 HD
ATOM     22  H   UNL     1      -3.315  16.138  21.299  0.00  0.00    +0.000 HD
ENDBRANCH   3  20
BRANCH   2  23
ATOM     23  C   UNL     1      -5.276  13.129  20.602  0.00  0.00    +0.000 C 
ATOM     24  O   UNL     1      -5.957  13.971  20.029  0.00  0.00    +0.000 OA
BRANCH  23  25
ATOM     25  O   UNL     1      -5.758  12.147  21.406  0.00  0.00    +0.000 OA
BRANCH  25  26
ATOM     26  C   UNL     1      -6.417  12.617  22.593  0.00  0.00    +0.000 C 
ATOM     27  C   UNL     1      -7.872  12.180  22.587  0.00  0.00    +0.000 C 
ENDBRANCH  25  26
ENDBRANCH  23  25
ENDBRANCH   2  23
BRANCH   1  28
ATOM     28  C   UNL     1      -3.424  12.016  18.424  0.00  0.00    +0.000 C 
BRANCH  28  29
ATOM     29  C   UNL     1      -4.205  10.811  17.959  0.00  0.00    +0.000 C 
ATOM     30  O   UNL     1      -5.387  10.627  18.219  0.00  0.00    +0.000 OA
BRANCH  29  31
ATOM     31  O   UNL     1      -3.394   9.941  17.302  0.00  0.00    +0.000 OA
BRANCH  31  32
ATOM     32  C   UNL     1      -2.488  10.566  16.390  0.00  0.00    +0.000 C 
BRANCH  32  34
ATOM     33  C   UNL     1      -3.482  10.011  13.806  0.00  0.00    +0.000 C 
ATOM     34  C   UNL     1      -3.023  10.267  14.999  0.00  0.00    +0.000 C 
ENDBRANCH  32  34
ENDBRANCH  31  32
ENDBRANCH  29  31
ENDBRANCH  28  29
ENDBRANCH   1  28
TORSDOF 11
ENDMDL
MODEL 8
REMARK VINA RESULT:      -6.6      3.691      8.778
REMARK  Name = 
REMARK  13 active torsions:
REMARK  status: ('A' for Active; 'I' for Inactive)
REMARK    1  A    between atoms: C_2  and  C_3
REMARK    2  A    between atoms: C_3  and  O_4
REMARK    3  A    between atoms: O_4  and  C_5
REMARK    4  A    between atoms: C_5  and  C_7
REMARK    5  A    between atoms: C_7  and  C_8
REMARK    6  A    between atoms: C_9  and  C_10
REMARK    7  A    between atoms: C_10  and  O_12
REMARK    8  A    between atoms: O_12  and  C_13
REMARK    9  A    between atoms: C_13  and  C_14
REMARK   10  A    between atoms: C_15  and  N_16
REMARK   11  A    between atoms: C_21  and  C_22
REMARK   12  A    between atoms: C_26  and  N_27
REMARK   13  A    between atoms: N_27  and  C_28
REMARK                            x       y       z     vdW  Elec       q    Type
REMARK                         _______ _______ _______ _____ _____    ______ ____
ROOT
ATOM      1  C   UNL     1       1.205  10.075  20.046  0.00  0.00    +0.000 C 
ATOM      2  C   UNL     1       1.499  11.404  19.399  0.00  0.00    +0.000 C 
ATOM      3  C   UNL     1       2.059  11.491  18.175  0.00  0.00    +0.000 C 
ATOM      4  O   UNL     1       2.411  10.356  17.444  0.00  0.00    +0.000 OA
ATOM      5  C   UNL     1       2.377   9.121  18.046  0.00  0.00    +0.000 A 
ATOM      6  C   UNL     1       2.885   8.039  17.333  0.00  0.00    +0.000 A 
ATOM      7  C   UNL     1       2.869   6.756  17.893  0.00  0.00    +0.000 A 
ATOM      8  C   UNL     1       2.343   6.521  19.172  0.00  0.00    +0.000 A 
ATOM      9  C   UNL     1       1.839   7.639  19.868  0.00  0.00    +0.000 A 
ATOM     10  C   UNL     1       1.841   8.924  19.310  0.00  0.00    +0.000 A 
ENDROOT
BRANCH   8  11
ATOM     11  C   UNL     1       2.264   5.168  19.775  0.00  0.00    +0.000 A 
ATOM     12  C   UNL     1       2.035   4.988  21.145  0.00  0.00    +0.000 A 
ATOM     13  C   UNL     1       2.008   3.712  21.706  0.00  0.00    +0.000 A 
ATOM     14  C   UNL     1       2.233   2.593  20.904  0.00  0.00    +0.000 A 
ATOM     15  C   UNL     1       2.486   2.715  19.533  0.00  0.00    +0.000 A 
ATOM     16  C   UNL     1       2.455   4.006  18.990  0.00  0.00    +0.000 A 
BRANCH  15  17
ATOM     17  N   UNL     1       2.606   1.549  18.781  0.00  0.00    +0.000 N 
ATOM     18  C   UNL     1       3.825   1.155  18.104  0.00  0.00    +0.000 C 
ATOM     19  H   UNL     1       2.112   0.765  19.201  0.00  0.00    +0.000 HD
ENDBRANCH  15  17
ENDBRANCH   8  11
BRANCH   3  20
ATOM     20  N   UNL     1       2.326  12.658  17.495  0.00  0.00    +0.000 N 
ATOM     21  H   UNL     1       2.069  13.486  18.036  0.00  0.00    +0.000 HD
ATOM     22  H   UNL     1       1.887  12.651  16.579  0.00  0.00    +0.000 HD
ENDBRANCH   3  20
BRANCH   2  23
ATOM     23  C   UNL     1       1.122  12.560  20.249  0.00  0.00    +0.000 C 
ATOM     24  O   UNL     1       1.534  12.686  21.396  0.00  0.00    +0.000 OA
BRANCH  23  25
ATOM     25  O   UNL     1       0.174  13.339  19.667  0.00  0.00    +0.000 OA
BRANCH  25  26
ATOM     26  C   UNL     1       0.221  14.722  20.049  0.00  0.00    +0.000 C 
ATOM     27  C   UNL     1       0.754  15.561  18.900  0.00  0.00    +0.000 C 
ENDBRANCH  25  26
ENDBRANCH  23  25
ENDBRANCH   2  23
BRANCH   1  28
ATOM     28  C   UNL     1      -0.303   9.843  20.217  0.00  0.00    +0.000 C 
BRANCH  28  29
ATOM     29  C   UNL     1      -0.769   9.928  21.650  0.00  0.00    +0.000 C 
ATOM     30  O   UNL     1      -0.626   9.025  22.464  0.00  0.00    +0.000 OA
BRANCH  29  31
ATOM     31  O   UNL     1      -1.435  11.092  21.867  0.00  0.00    +0.000 OA
BRANCH  31  32
ATOM     32  C   UNL     1      -1.550  11.449  23.245  0.00  0.00    +0.000 C 
BRANCH  32  34
ATOM     33  C   UNL     1      -1.287  14.259  23.345  0.00  0.00    +0.000 C 
ATOM     34  C   UNL     1      -1.409  12.962  23.299  0.00  0.00    +0.000 C 
ENDBRANCH  32  34
ENDBRANCH  31  32
ENDBRANCH  29  31
ENDBRANCH  28  29
ENDBRANCH   1  28
TORSDOF 11
ENDMDL
MODEL 9
REMARK VINA RESULT:      -6.6      5.095      9.818
REMARK  Name = 
REMARK  13 active torsions:
REMARK  status: ('A' for Active; 'I' for Inactive)
REMARK    1  A    between atoms: C_2  and  C_3
REMARK    2  A    between atoms: C_3  and  O_4
REMARK    3  A    between atoms: O_4  and  C_5
REMARK    4  A    between atoms: C_5  and  C_7
REMARK    5  A    between atoms: C_7  and  C_8
REMARK    6  A    between atoms: C_9  and  C_10
REMARK    7  A    between atoms: C_10  and  O_12
REMARK    8  A    between atoms: O_12  and  C_13
REMARK    9  A    between atoms: C_13  and  C_14
REMARK   10  A    between atoms: C_15  and  N_16
REMARK   11  A    between atoms: C_21  and  C_22
REMARK   12  A    between atoms: C_26  and  N_27
REMARK   13  A    between atoms: N_27  and  C_28
REMARK                            x       y       z     vdW  Elec       q    Type
REMARK                         _______ _______ _______ _____ _____    ______ ____
ROOT
ATOM      1  C   UNL     1      -1.685  11.712  20.678  0.00  0.00    +0.000 C 
ATOM      2  C   UNL     1      -2.580  12.307  21.734  0.00  0.00    +0.000 C 
ATOM      3  C   UNL     1      -2.394  12.059  23.047  0.00  0.00    +0.000 C 
ATOM      4  O   UNL     1      -1.371  11.227  23.501  0.00  0.00    +0.000 OA
ATOM      5  C   UNL     1      -0.651  10.479  22.600  0.00  0.00    +0.000 A 
ATOM      6  C   UNL     1       0.250   9.547  23.106  0.00  0.00    +0.000 A 
ATOM      7  C   UNL     1       1.017   8.763  22.236  0.00  0.00    +0.000 A 
ATOM      8  C   UNL     1       0.906   8.892  20.844  0.00  0.00    +0.000 A 
ATOM      9  C   UNL     1      -0.018   9.844  20.364  0.00  0.00    +0.000 A 
ATOM     10  C   UNL     1      -0.780  10.640  21.229  0.00  0.00    +0.000 A 
ENDROOT
BRANCH   8  11
ATOM     11  C   UNL     1       1.738   8.114  19.893  0.00  0.00    +0.000 A 
ATOM     12  C   UNL     1       2.031   8.595  18.610  0.00  0.00    +0.000 A 
ATOM     13  C   UNL     1       2.776   7.833  17.712  0.00  0.00    +0.000 A 
ATOM     14  C   UNL     1       3.223   6.563  18.077  0.00  0.00    +0.000 A 
ATOM     15  C   UNL     1       2.944   6.025  19.339  0.00  0.00    +0.000 A 
ATOM     16  C   UNL     1       2.238   6.835  20.237  0.00  0.00    +0.000 A 
BRANCH  15  17
ATOM     17  N   UNL     1       3.504   4.793  19.666  0.00  0.00    +0.000 N 
ATOM     18  C   UNL     1       4.761   4.316  19.125  0.00  0.00    +0.000 C 
ATOM     19  H   UNL     1       3.380   4.561  20.649  0.00  0.00    +0.000 HD
ENDBRANCH  15  17
ENDBRANCH   8  11
BRANCH   3  20
ATOM     20  N   UNL     1      -3.138  12.589  24.077  0.00  0.00    +0.000 N 
ATOM     21  H   UNL     1      -2.756  13.476  24.411  0.00  0.00    +0.000 HD
ATOM     22  H   UNL     1      -3.246  11.914  24.829  0.00  0.00    +0.000 HD
ENDBRANCH   3  20
BRANCH   2  23
ATOM     23  C   UNL     1      -3.658  13.156  21.170  0.00  0.00    +0.000 C 
ATOM     24  O   UNL     1      -3.488  14.343  20.919  0.00  0.00    +0.000 OA
BRANCH  23  25
ATOM     25  O   UNL     1      -4.852  12.510  21.127  0.00  0.00    +0.000 OA
BRANCH  25  26
ATOM     26  C   UNL     1      -5.980  13.315  21.503  0.00  0.00    +0.000 C 
ATOM     27  C   UNL     1      -6.535  12.840  22.836  0.00  0.00    +0.000 C 
ENDBRANCH  25  26
ENDBRANCH  23  25
ENDBRANCH   2  23
BRANCH   1  28
ATOM     28  C   UNL     1      -0.869  12.788  19.947  0.00  0.00    +0.000 C 
BRANCH  28  29
ATOM     29  C   UNL     1      -1.048  12.769  18.449  0.00  0.00    +0.000 C 
ATOM     30  O   UNL     1      -0.398  13.465  17.680  0.00  0.00    +0.000 OA
BRANCH  29  31
ATOM     31  O   UNL     1      -2.075  11.950  18.101  0.00  0.00    +0.000 OA
BRANCH  31  32
ATOM     32  C   UNL     1      -1.670  10.780  17.388  0.00  0.00    +0.000 C 
BRANCH  32  34
ATOM     33  C   UNL     1      -3.337  10.644  15.112  0.00  0.00    +0.000 C 
ATOM     34  C   UNL     1      -2.567  10.707  16.162  0.00  0.00    +0.000 C 
ENDBRANCH  32  34
ENDBRANCH  31  32
ENDBRANCH  29  31
ENDBRANCH  28  29
ENDBRANCH   1  28
TORSDOF 11
ENDMDL
