MODEL 1
REMARK VINA RESULT:      -7.1      0.000      0.000
REMARK  Name = 
REMARK  3 active torsions:
REMARK  status: ('A' for Active; 'I' for Inactive)
REMARK    1  A    between atoms: C_1  and  O_2
REMARK    2  A    between atoms: O_2  and  C_3
REMARK    3  A    between atoms: C_14  and  C_16
REMARK                            x       y       z     vdW  Elec       q    Type
REMARK                         _______ _______ _______ _____ _____    ______ ____
ROOT
ATOM      1  C   UNL     1       5.585   4.539  15.774  0.00  0.00    +0.000 A 
ATOM      2  C   UNL     1       5.469   5.924  15.532  0.00  0.00    +0.000 A 
ATOM      3  C   UNL     1       4.653   6.735  16.329  0.00  0.00    +0.000 A 
ATOM      4  C   UNL     1       3.971   6.129  17.359  0.00  0.00    +0.000 A 
ATOM      5  C   UNL     1       4.080   4.739  17.627  0.00  0.00    +0.000 A 
ATOM      6  C   UNL     1       4.885   3.939  16.833  0.00  0.00    +0.000 A 
ATOM      7  C   UNL     1       3.233   4.361  18.838  0.00  0.00    +0.000 C 
ATOM      8  C   UNL     1       2.692   5.707  19.179  0.00  0.00    +0.000 A 
ATOM      9  S   UNL     1       1.714   6.322  20.388  0.00  0.00    +0.000 S 
ATOM     10  C   UNL     1       1.902   7.886  19.676  0.00  0.00    +0.000 A 
ATOM     11  N   UNL     1       1.311   9.012  20.180  0.00  0.00    +0.000 N 
ATOM     12  C   UNL     1       0.704   9.180  21.403  0.00  0.00    +0.000 C 
ATOM     13  O   UNL     1       0.590   8.309  22.259  0.00  0.00    +0.000 OA
ATOM     14  N   UNL     1       2.632   7.955  18.576  0.00  0.00    +0.000 NA
ATOM     15  C   UNL     1       3.096   6.706  18.333  0.00  0.00    +0.000 A 
ATOM     16  H   UNL     1       1.442   9.827  19.599  0.00  0.00    +0.000 HD
ENDROOT
BRANCH  12  17
ATOM     17  C   UNL     1       0.217  10.543  21.643  0.00  0.00    +0.000 A 
ATOM     18  C   UNL     1      -0.687  10.940  22.614  0.00  0.00    +0.000 A 
ATOM     19  C   UNL     1      -0.939  12.341  22.594  0.00  0.00    +0.000 A 
ATOM     20  C   UNL     1      -0.227  12.978  21.603  0.00  0.00    +0.000 A 
ATOM     21  S   UNL     1       0.736  11.887  20.708  0.00  0.00    +0.000 S 
ENDBRANCH  12  17
BRANCH   1  23
ATOM     22  C   UNL     1       6.470   3.939  13.649  0.00  0.00    +0.000 C 
ATOM     23  O   UNL     1       6.359   3.674  15.044  0.00  0.00    +0.000 OA
ENDBRANCH   1  23
TORSDOF 2
ENDMDL
MODEL 2
REMARK VINA RESULT:      -7.0      2.623      8.740
REMARK  Name = 
REMARK  3 active torsions:
REMARK  status: ('A' for Active; 'I' for Inactive)
REMARK    1  A    between atoms: C_1  and  O_2
REMARK    2  A    between atoms: O_2  and  C_3
REMARK    3  A    between atoms: C_14  and  C_16
REMARK                            x       y       z     vdW  Elec       q    Type
REMARK                         _______ _______ _______ _____ _____    ______ ____
ROOT
ATOM      1  C   UNL     1       0.467   9.174  20.785  0.00  0.00    +0.000 A 
ATOM      2  C   UNL     1       0.815   9.738  19.539  0.00  0.00    +0.000 A 
ATOM      3  C   UNL     1       1.693   9.085  18.666  0.00  0.00    +0.000 A 
ATOM      4  C   UNL     1       2.201   7.871  19.070  0.00  0.00    +0.000 A 
ATOM      5  C   UNL     1       1.857   7.282  20.315  0.00  0.00    +0.000 A 
ATOM      6  C   UNL     1       0.991   7.933  21.178  0.00  0.00    +0.000 A 
ATOM      7  C   UNL     1       2.552   5.933  20.476  0.00  0.00    +0.000 C 
ATOM      8  C   UNL     1       3.274   5.880  19.173  0.00  0.00    +0.000 A 
ATOM      9  S   UNL     1       4.254   4.765  18.403  0.00  0.00    +0.000 S 
ATOM     10  C   UNL     1       4.362   5.858  17.067  0.00  0.00    +0.000 A 
ATOM     11  N   UNL     1       5.087   5.589  15.939  0.00  0.00    +0.000 N 
ATOM     12  C   UNL     1       5.630   4.389  15.542  0.00  0.00    +0.000 C 
ATOM     13  O   UNL     1       5.550   3.337  16.168  0.00  0.00    +0.000 OA
ATOM     14  N   UNL     1       3.726   7.011  17.188  0.00  0.00    +0.000 NA
ATOM     15  C   UNL     1       3.089   6.985  18.383  0.00  0.00    +0.000 A 
ATOM     16  H   UNL     1       5.126   6.364  15.293  0.00  0.00    +0.000 HD
ENDROOT
BRANCH  12  17
ATOM     17  C   UNL     1       6.309   4.443  14.243  0.00  0.00    +0.000 A 
ATOM     18  C   UNL     1       7.368   5.264  13.895  0.00  0.00    +0.000 A 
ATOM     19  C   UNL     1       7.810   5.059  12.557  0.00  0.00    +0.000 A 
ATOM     20  C   UNL     1       7.073   4.091  11.915  0.00  0.00    +0.000 A 
ATOM     21  S   UNL     1       5.858   3.440  12.923  0.00  0.00    +0.000 S 
ENDBRANCH  12  17
BRANCH   1  23
ATOM     22  C   UNL     1      -0.144   9.445  23.068  0.00  0.00    +0.000 C 
ATOM     23  O   UNL     1      -0.384   9.745  21.697  0.00  0.00    +0.000 OA
ENDBRANCH   1  23
TORSDOF 2
ENDMDL
MODEL 3
REMARK VINA RESULT:      -6.9      2.429      8.647
REMARK  Name = 
REMARK  3 active torsions:
REMARK  status: ('A' for Active; 'I' for Inactive)
REMARK    1  A    between atoms: C_1  and  O_2
REMARK    2  A    between atoms: O_2  and  C_3
REMARK    3  A    between atoms: C_14  and  C_16
REMARK                            x       y       z     vdW  Elec       q    Type
REMARK                         _______ _______ _______ _____ _____    ______ ____
ROOT
ATOM      1  C   UNL     1       0.162   9.782  20.879  0.00  0.00    +0.000 A 
ATOM      2  C   UNL     1       0.633  10.275  19.643  0.00  0.00    +0.000 A 
ATOM      3  C   UNL     1       1.486   9.515  18.835  0.00  0.00    +0.000 A 
ATOM      4  C   UNL     1       1.846   8.267  19.292  0.00  0.00    +0.000 A 
ATOM      5  C   UNL     1       1.377   7.748  20.527  0.00  0.00    +0.000 A 
ATOM      6  C   UNL     1       0.536   8.504  21.326  0.00  0.00    +0.000 A 
ATOM      7  C   UNL     1       1.922   6.341  20.754  0.00  0.00    +0.000 C 
ATOM      8  C   UNL     1       2.704   6.182  19.496  0.00  0.00    +0.000 A 
ATOM      9  S   UNL     1       3.607   4.955  18.805  0.00  0.00    +0.000 S 
ATOM     10  C   UNL     1       3.898   5.997  17.455  0.00  0.00    +0.000 A 
ATOM     11  N   UNL     1       4.652   5.627  16.376  0.00  0.00    +0.000 N 
ATOM     12  C   UNL     1       5.091   4.369  16.035  0.00  0.00    +0.000 C 
ATOM     13  O   UNL     1       4.870   3.347  16.677  0.00  0.00    +0.000 OA
ATOM     14  N   UNL     1       3.377   7.210  17.517  0.00  0.00    +0.000 NA
ATOM     15  C   UNL     1       2.676   7.279  18.675  0.00  0.00    +0.000 A 
ATOM     16  H   UNL     1       4.804   6.378  15.718  0.00  0.00    +0.000 HD
ENDROOT
BRANCH  12  17
ATOM     17  C   UNL     1       5.842   4.322  14.776  0.00  0.00    +0.000 A 
ATOM     18  C   UNL     1       5.473   3.662  13.616  0.00  0.00    +0.000 A 
ATOM     19  C   UNL     1       6.417   3.827  12.562  0.00  0.00    +0.000 A 
ATOM     20  C   UNL     1       7.486   4.603  12.947  0.00  0.00    +0.000 A 
ATOM     21  S   UNL     1       7.347   5.124  14.567  0.00  0.00    +0.000 S 
ENDBRANCH  12  17
BRANCH   1  23
ATOM     22  C   UNL     1      -0.665  10.048  23.092  0.00  0.00    +0.000 C 
ATOM     23  O   UNL     1      -0.674  10.458  21.729  0.00  0.00    +0.000 OA
ENDBRANCH   1  23
TORSDOF 2
ENDMDL
MODEL 4
REMARK VINA RESULT:      -6.8      2.599      3.523
REMARK  Name = 
REMARK  3 active torsions:
REMARK  status: ('A' for Active; 'I' for Inactive)
REMARK    1  A    between atoms: C_1  and  O_2
REMARK    2  A    between atoms: O_2  and  C_3
REMARK    3  A    between atoms: C_14  and  C_16
REMARK                            x       y       z     vdW  Elec       q    Type
REMARK                         _______ _______ _______ _____ _____    ______ ____
ROOT
ATOM      1  C   UNL     1       3.387   4.244  18.824  0.00  0.00    +0.000 A 
ATOM      2  C   UNL     1       2.803   4.349  20.105  0.00  0.00    +0.000 A 
ATOM      3  C   UNL     1       2.226   5.547  20.544  0.00  0.00    +0.000 A 
ATOM      4  C   UNL     1       2.250   6.616  19.677  0.00  0.00    +0.000 A 
ATOM      5  C   UNL     1       2.824   6.530  18.382  0.00  0.00    +0.000 A 
ATOM      6  C   UNL     1       3.397   5.344  17.952  0.00  0.00    +0.000 A 
ATOM      7  C   UNL     1       2.681   7.858  17.646  0.00  0.00    +0.000 C 
ATOM      8  C   UNL     1       1.954   8.632  18.691  0.00  0.00    +0.000 A 
ATOM      9  S   UNL     1       1.306  10.171  18.795  0.00  0.00    +0.000 S 
ATOM     10  C   UNL     1       0.771   9.784  20.393  0.00  0.00    +0.000 A 
ATOM     11  N   UNL     1       0.090  10.666  21.187  0.00  0.00    +0.000 N 
ATOM     12  C   UNL     1      -0.494  11.858  20.827  0.00  0.00    +0.000 C 
ATOM     13  O   UNL     1      -0.489  12.333  19.696  0.00  0.00    +0.000 OA
ATOM     14  N   UNL     1       1.078   8.582  20.849  0.00  0.00    +0.000 NA
ATOM     15  C   UNL     1       1.724   7.935  19.849  0.00  0.00    +0.000 A 
ATOM     16  H   UNL     1      -0.068  10.322  22.122  0.00  0.00    +0.000 HD
ENDROOT
BRANCH  12  17
ATOM     17  C   UNL     1      -1.192  12.534  21.926  0.00  0.00    +0.000 A 
ATOM     18  C   UNL     1      -2.328  12.092  22.583  0.00  0.00    +0.000 A 
ATOM     19  C   UNL     1      -2.745  12.976  23.619  0.00  0.00    +0.000 A 
ATOM     20  C   UNL     1      -1.921  14.073  23.723  0.00  0.00    +0.000 A 
ATOM     21  S   UNL     1      -0.657  14.033  22.576  0.00  0.00    +0.000 S 
ENDBRANCH  12  17
BRANCH   1  23
ATOM     22  C   UNL     1       3.143   1.959  18.209  0.00  0.00    +0.000 C 
ATOM     23  O   UNL     1       3.971   3.112  18.317  0.00  0.00    +0.000 OA
ENDBRANCH   1  23
TORSDOF 2
ENDMDL
MODEL 5
REMARK VINA RESULT:      -6.8      0.930      1.102
REMARK  Name = 
REMARK  3 active torsions:
REMARK  status: ('A' for Active; 'I' for Inactive)
REMARK    1  A    between atoms: C_1  and  O_2
REMARK    2  A    between atoms: O_2  and  C_3
REMARK    3  A    between atoms: C_14  and  C_16
REMARK                            x       y       z     vdW  Elec       q    Type
REMARK                         _______ _______ _______ _____ _____    ______ ____
ROOT
ATOM      1  C   UNL     1       5.908   4.566  15.117  0.00  0.00    +0.000 A 
ATOM      2  C   UNL     1       5.659   5.938  14.899  0.00  0.00    +0.000 A 
ATOM      3  C   UNL     1       4.836   6.672  15.760  0.00  0.00    +0.000 A 
ATOM      4  C   UNL     1       4.282   6.005  16.829  0.00  0.00    +0.000 A 
ATOM      5  C   UNL     1       4.526   4.628  17.072  0.00  0.00    +0.000 A 
ATOM      6  C   UNL     1       5.338   3.903  16.215  0.00  0.00    +0.000 A 
ATOM      7  C   UNL     1       3.802   4.173  18.335  0.00  0.00    +0.000 C 
ATOM      8  C   UNL     1       3.175   5.466  18.729  0.00  0.00    +0.000 A 
ATOM      9  S   UNL     1       2.236   5.990  20.010  0.00  0.00    +0.000 S 
ATOM     10  C   UNL     1       2.240   7.568  19.304  0.00  0.00    +0.000 A 
ATOM     11  N   UNL     1       1.594   8.637  19.861  0.00  0.00    +0.000 N 
ATOM     12  C   UNL     1       1.063   8.747  21.125  0.00  0.00    +0.000 C 
ATOM     13  O   UNL     1       1.083   7.865  21.977  0.00  0.00    +0.000 OA
ATOM     14  N   UNL     1       2.883   7.705  18.157  0.00  0.00    +0.000 NA
ATOM     15  C   UNL     1       3.432   6.501  17.867  0.00  0.00    +0.000 A 
ATOM     16  H   UNL     1       1.614   9.463  19.281  0.00  0.00    +0.000 HD
ENDROOT
BRANCH  12  17
ATOM     17  C   UNL     1       0.481  10.062  21.414  0.00  0.00    +0.000 A 
ATOM     18  C   UNL     1       0.609  11.210  20.652  0.00  0.00    +0.000 A 
ATOM     19  C   UNL     1      -0.096  12.319  21.201  0.00  0.00    +0.000 A 
ATOM     20  C   UNL     1      -0.739  11.991  22.373  0.00  0.00    +0.000 A 
ATOM     21  S   UNL     1      -0.490  10.356  22.801  0.00  0.00    +0.000 S 
ENDBRANCH  12  17
BRANCH   1  23
ATOM     22  C   UNL     1       6.209   3.485  13.020  0.00  0.00    +0.000 C 
ATOM     23  O   UNL     1       6.699   3.774  14.325  0.00  0.00    +0.000 OA
ENDBRANCH   1  23
TORSDOF 2
ENDMDL
MODEL 6
REMARK VINA RESULT:      -6.7      2.690      3.446
REMARK  Name = 
REMARK  3 active torsions:
REMARK  status: ('A' for Active; 'I' for Inactive)
REMARK    1  A    between atoms: C_1  and  O_2
REMARK    2  A    between atoms: O_2  and  C_3
REMARK    3  A    between atoms: C_14  and  C_16
REMARK                            x       y       z     vdW  Elec       q    Type
REMARK                         _______ _______ _______ _____ _____    ______ ____
ROOT
ATOM      1  C   UNL     1       3.051   2.987  19.691  0.00  0.00    +0.000 A 
ATOM      2  C   UNL     1       2.485   3.378  20.924  0.00  0.00    +0.000 A 
ATOM      3  C   UNL     1       2.089   4.700  21.154  0.00  0.00    +0.000 A 
ATOM      4  C   UNL     1       2.270   5.603  20.132  0.00  0.00    +0.000 A 
ATOM      5  C   UNL     1       2.829   5.230  18.881  0.00  0.00    +0.000 A 
ATOM      6  C   UNL     1       3.223   3.921  18.658  0.00  0.00    +0.000 A 
ATOM      7  C   UNL     1       2.883   6.432  17.942  0.00  0.00    +0.000 C 
ATOM      8  C   UNL     1       2.274   7.458  18.834  0.00  0.00    +0.000 A 
ATOM      9  S   UNL     1       1.857   9.070  18.678  0.00  0.00    +0.000 S 
ATOM     10  C   UNL     1       1.267   9.024  20.303  0.00  0.00    +0.000 A 
ATOM     11  N   UNL     1       0.721  10.109  20.931  0.00  0.00    +0.000 N 
ATOM     12  C   UNL     1       0.317  11.300  20.373  0.00  0.00    +0.000 C 
ATOM     13  O   UNL     1       0.395  11.584  19.183  0.00  0.00    +0.000 OA
ATOM     14  N   UNL     1       1.394   7.878  20.950  0.00  0.00    +0.000 NA
ATOM     15  C   UNL     1       1.942   6.994  20.081  0.00  0.00    +0.000 A 
ATOM     16  H   UNL     1       0.511   9.945  21.904  0.00  0.00    +0.000 HD
ENDROOT
BRANCH  12  17
ATOM     17  C   UNL     1      -0.277  12.236  21.335  0.00  0.00    +0.000 A 
ATOM     18  C   UNL     1      -0.938  11.911  22.507  0.00  0.00    +0.000 A 
ATOM     19  C   UNL     1      -1.382  13.057  23.227  0.00  0.00    +0.000 A 
ATOM     20  C   UNL     1      -1.055  14.227  22.582  0.00  0.00    +0.000 A 
ATOM     21  S   UNL     1      -0.220  13.940  21.120  0.00  0.00    +0.000 S 
ENDBRANCH  12  17
BRANCH   1  23
ATOM     22  C   UNL     1       3.749   1.454  18.013  0.00  0.00    +0.000 C 
ATOM     23  O   UNL     1       3.465   1.717  19.383  0.00  0.00    +0.000 OA
ENDBRANCH   1  23
TORSDOF 2
ENDMDL
MODEL 7
REMARK VINA RESULT:      -6.7      2.731      3.570
REMARK  Name = 
REMARK  3 active torsions:
REMARK  status: ('A' for Active; 'I' for Inactive)
REMARK    1  A    between atoms: C_1  and  O_2
REMARK    2  A    between atoms: O_2  and  C_3
REMARK    3  A    between atoms: C_14  and  C_16
REMARK                            x       y       z     vdW  Elec       q    Type
REMARK                         _______ _______ _______ _____ _____    ______ ____
ROOT
ATOM      1  C   UNL     1       3.351   3.502  19.582  0.00  0.00    +0.000 A 
ATOM      2  C   UNL     1       2.646   3.784  20.771  0.00  0.00    +0.000 A 
ATOM      3  C   UNL     1       2.101   5.051  21.009  0.00  0.00    +0.000 A 
ATOM      4  C   UNL     1       2.278   6.009  20.037  0.00  0.00    +0.000 A 
ATOM      5  C   UNL     1       2.976   5.744  18.829  0.00  0.00    +0.000 A 
ATOM      6  C   UNL     1       3.517   4.490  18.599  0.00  0.00    +0.000 A 
ATOM      7  C   UNL     1       2.990   6.983  17.939  0.00  0.00    +0.000 C 
ATOM      8  C   UNL     1       2.208   7.908  18.807  0.00  0.00    +0.000 A 
ATOM      9  S   UNL     1       1.647   9.478  18.667  0.00  0.00    +0.000 S 
ATOM     10  C   UNL     1       0.927   9.307  20.230  0.00  0.00    +0.000 A 
ATOM     11  N   UNL     1       0.223  10.308  20.841  0.00  0.00    +0.000 N 
ATOM     12  C   UNL     1      -0.248  11.476  20.290  0.00  0.00    +0.000 C 
ATOM     13  O   UNL     1      -0.097  11.815  19.121  0.00  0.00    +0.000 OA
ATOM     14  N   UNL     1       1.112   8.153  20.847  0.00  0.00    +0.000 NA
ATOM     15  C   UNL     1       1.818   7.363  20.002  0.00  0.00    +0.000 A 
ATOM     16  H   UNL     1      -0.051  10.084  21.787  0.00  0.00    +0.000 HD
ENDROOT
BRANCH  12  17
ATOM     17  C   UNL     1      -1.013  12.309  21.225  0.00  0.00    +0.000 A 
ATOM     18  C   UNL     1      -1.570  13.550  20.964  0.00  0.00    +0.000 A 
ATOM     19  C   UNL     1      -2.267  14.089  22.082  0.00  0.00    +0.000 A 
ATOM     20  C   UNL     1      -2.219  13.249  23.171  0.00  0.00    +0.000 A 
ATOM     21  S   UNL     1      -1.337  11.824  22.841  0.00  0.00    +0.000 S 
ENDBRANCH  12  17
BRANCH   1  23
ATOM     22  C   UNL     1       3.486   1.680  18.058  0.00  0.00    +0.000 C 
ATOM     23  O   UNL     1       3.915   2.292  19.270  0.00  0.00    +0.000 OA
ENDBRANCH   1  23
TORSDOF 2
ENDMDL
MODEL 8
REMARK VINA RESULT:      -6.6      2.498      3.741
REMARK  Name = 
REMARK  3 active torsions:
REMARK  status: ('A' for Active; 'I' for Inactive)
REMARK    1  A    between atoms: C_1  and  O_2
REMARK    2  A    between atoms: O_2  and  C_3
REMARK    3  A    between atoms: C_14  and  C_16
REMARK                            x       y       z     vdW  Elec       q    Type
REMARK                         _______ _______ _______ _____ _____    ______ ____
ROOT
ATOM      1  C   UNL     1       3.755   5.007  18.820  0.00  0.00    +0.000 A 
ATOM      2  C   UNL     1       3.031   4.951  20.030  0.00  0.00    +0.000 A 
ATOM      3  C   UNL     1       2.234   6.023  20.449  0.00  0.00    +0.000 A 
ATOM      4  C   UNL     1       2.183   7.131  19.634  0.00  0.00    +0.000 A 
ATOM      5  C   UNL     1       2.896   7.205  18.409  0.00  0.00    +0.000 A 
ATOM      6  C   UNL     1       3.687   6.144  17.999  0.00  0.00    +0.000 A 
ATOM      7  C   UNL     1       2.628   8.537  17.716  0.00  0.00    +0.000 C 
ATOM      8  C   UNL     1       1.684   9.133  18.703  0.00  0.00    +0.000 A 
ATOM      9  S   UNL     1       0.799  10.550  18.794  0.00  0.00    +0.000 S 
ATOM     10  C   UNL     1       0.165   9.998  20.305  0.00  0.00    +0.000 A 
ATOM     11  N   UNL     1      -0.723  10.722  21.052  0.00  0.00    +0.000 N 
ATOM     12  C   UNL     1      -1.444  11.831  20.677  0.00  0.00    +0.000 C 
ATOM     13  O   UNL     1      -1.393  12.366  19.574  0.00  0.00    +0.000 OA
ATOM     14  N   UNL     1       0.605   8.830  20.744  0.00  0.00    +0.000 NA
ATOM     15  C   UNL     1       1.445   8.345  19.798  0.00  0.00    +0.000 A 
ATOM     16  H   UNL     1      -0.924  10.306  21.949  0.00  0.00    +0.000 HD
ENDROOT
BRANCH  12  17
ATOM     17  C   UNL     1      -2.349  12.333  21.717  0.00  0.00    +0.000 A 
ATOM     18  C   UNL     1      -2.326  12.007  23.062  0.00  0.00    +0.000 A 
ATOM     19  C   UNL     1      -3.333  12.681  23.811  0.00  0.00    +0.000 A 
ATOM     20  C   UNL     1      -4.103  13.499  23.017  0.00  0.00    +0.000 A 
ATOM     21  S   UNL     1      -3.611  13.450  21.382  0.00  0.00    +0.000 S 
ENDBRANCH  12  17
BRANCH   1  23
ATOM     22  C   UNL     1       5.883   4.371  17.969  0.00  0.00    +0.000 C 
ATOM     23  O   UNL     1       4.557   4.006  18.337  0.00  0.00    +0.000 OA
ENDBRANCH   1  23
TORSDOF 2
ENDMDL
MODEL 9
REMARK VINA RESULT:      -6.6      2.676      4.065
REMARK  Name = 
REMARK  3 active torsions:
REMARK  status: ('A' for Active; 'I' for Inactive)
REMARK    1  A    between atoms: C_1  and  O_2
REMARK    2  A    between atoms: O_2  and  C_3
REMARK    3  A    between atoms: C_14  and  C_16
REMARK                            x       y       z     vdW  Elec       q    Type
REMARK                         _______ _______ _______ _____ _____    ______ ____
ROOT
ATOM      1  C   UNL     1       3.123   5.060  19.000  0.00  0.00    +0.000 A 
ATOM      2  C   UNL     1       2.499   5.028  20.266  0.00  0.00    +0.000 A 
ATOM      3  C   UNL     1       1.833   6.148  20.775  0.00  0.00    +0.000 A 
ATOM      4  C   UNL     1       1.808   7.280  19.993  0.00  0.00    +0.000 A 
ATOM      5  C   UNL     1       2.420   7.332  18.713  0.00  0.00    +0.000 A 
ATOM      6  C   UNL     1       3.082   6.222  18.214  0.00  0.00    +0.000 A 
ATOM      7  C   UNL     1       2.208   8.701  18.076  0.00  0.00    +0.000 C 
ATOM      8  C   UNL     1       1.404   9.344  19.153  0.00  0.00    +0.000 A 
ATOM      9  S   UNL     1       0.653  10.825  19.352  0.00  0.00    +0.000 S 
ATOM     10  C   UNL     1       0.103  10.282  20.899  0.00  0.00    +0.000 A 
ATOM     11  N   UNL     1      -0.655  11.055  21.735  0.00  0.00    +0.000 N 
ATOM     12  C   UNL     1      -1.309  12.230  21.448  0.00  0.00    +0.000 C 
ATOM     13  O   UNL     1      -1.305  12.791  20.357  0.00  0.00    +0.000 OA
ATOM     14  N   UNL     1       0.477   9.070  21.272  0.00  0.00    +0.000 NA
ATOM     15  C   UNL     1       1.191   8.546  20.247  0.00  0.00    +0.000 A 
ATOM     16  H   UNL     1      -0.815  10.630  22.637  0.00  0.00    +0.000 HD
ENDROOT
BRANCH  12  17
ATOM     17  C   UNL     1      -2.079  12.773  22.573  0.00  0.00    +0.000 A 
ATOM     18  C   UNL     1      -3.248  12.256  23.103  0.00  0.00    +0.000 A 
ATOM     19  C   UNL     1      -3.736  13.012  24.206  0.00  0.00    +0.000 A 
ATOM     20  C   UNL     1      -2.931  14.092  24.486  0.00  0.00    +0.000 A 
ATOM     21  S   UNL     1      -1.598  14.188  23.422  0.00  0.00    +0.000 S 
ENDBRANCH  12  17
BRANCH   1  23
ATOM     22  C   UNL     1       5.211   4.005  18.569  0.00  0.00    +0.000 C 
ATOM     23  O   UNL     1       3.794   4.011  18.427  0.00  0.00    +0.000 OA
ENDBRANCH   1  23
TORSDOF 2
ENDMDL
