MODEL 1
REMARK VINA RESULT:      -6.9      0.000      0.000
REMARK  Name = 
REMARK  6 active torsions:
REMARK  status: ('A' for Active; 'I' for Inactive)
REMARK    1  A    between atoms: C_1  and  C_2
REMARK    2  A    between atoms: N_11  and  CA_12
REMARK    3  A    between atoms: CA_12  and  CB_13
REMARK    4  A    between atoms: CA_12  and  C_15
REMARK    5  A    between atoms: CB_13  and  OG_14
REMARK    6  A    between atoms: C_15  and  O_16
REMARK                            x       y       z     vdW  Elec       q    Type
REMARK                         _______ _______ _______ _____ _____    ______ ____
ROOT
ATOM      1  C   UNK A   0       2.991   7.703  18.288  0.00  0.00    +0.000 C 
ATOM      2  C   UNK A   0       2.601   6.431  19.001  0.00  0.00    +0.000 A 
ATOM      3  C   UNK A   0       1.740   6.522  20.110  0.00  0.00    +0.000 A 
ATOM      4  C   UNK A   0       1.370   5.378  20.805  0.00  0.00    +0.000 A 
ATOM      5  C   UNK A   0       1.867   4.150  20.401  0.00  0.00    +0.000 A 
ATOM      6 CL   UNK A   0       1.368   2.763  21.321  0.00  0.00    +0.000 Cl
ATOM      7  C   UNK A   0       2.742   4.036  19.285  0.00  0.00    +0.000 A 
ATOM      8  C   UNK A   0       3.278   2.815  18.841  0.00  0.00    +0.000 A 
ATOM      9  C   UNK A   0       4.107   2.773  17.725  0.00  0.00    +0.000 A 
ATOM     10  C   UNK A   0       4.417   3.947  17.061  0.00  0.00    +0.000 A 
ATOM     11  N   SER A   1       5.219   3.879  15.935  0.00  0.00    +0.000 N 
ATOM     12  N   UNK A   0       3.937   5.134  17.488  0.00  0.00    +0.000 NA
ATOM     13  C   UNK A   0       3.110   5.197  18.564  0.00  0.00    +0.000 A 
ATOM     14  H   SER A   1       5.597   2.979  15.663  0.00  0.00    +0.000 HD
ENDROOT
BRANCH  11  15
ATOM     15  CA  SER A   1       5.963   5.047  15.448  0.00  0.00    +0.000 C 
BRANCH  15  16
ATOM     16  CB  SER A   1       7.014   5.517  16.476  0.00  0.00    +0.000 C 
BRANCH  16  17
ATOM     17  OG  SER A   1       7.952   4.483  16.795  0.00  0.00    +0.000 OA
ATOM     18  H   SER A   1       7.647   4.114  17.646  0.00  0.00    +0.000 HD
ENDBRANCH  16  17
ENDBRANCH  15  16
BRANCH  15  19
ATOM     19  C   SER A   1       6.664   4.668  14.118  0.00  0.00    +0.000 C 
BRANCH  19  20
ATOM     20  O   SER A   1       7.852   5.431  13.888  0.00  0.00    +0.000 OA
ATOM     21  H   SER A   1       8.267   5.055  13.083  0.00  0.00    +0.000 HD
ENDBRANCH  19  20
ENDBRANCH  15  19
ENDBRANCH  11  15
TORSDOF 5
ENDMDL
MODEL 2
REMARK VINA RESULT:      -6.4      0.953      1.507
REMARK  Name = 
REMARK  6 active torsions:
REMARK  status: ('A' for Active; 'I' for Inactive)
REMARK    1  A    between atoms: C_1  and  C_2
REMARK    2  A    between atoms: N_11  and  CA_12
REMARK    3  A    between atoms: CA_12  and  CB_13
REMARK    4  A    between atoms: CA_12  and  C_15
REMARK    5  A    between atoms: CB_13  and  OG_14
REMARK    6  A    between atoms: C_15  and  O_16
REMARK                            x       y       z     vdW  Elec       q    Type
REMARK                         _______ _______ _______ _____ _____    ______ ____
ROOT
ATOM      1  C   UNK A   0       3.363   7.405  18.193  0.00  0.00    +0.000 C 
ATOM      2  C   UNK A   0       2.843   6.220  18.970  0.00  0.00    +0.000 A 
ATOM      3  C   UNK A   0       1.931   6.453  20.015  0.00  0.00    +0.000 A 
ATOM      4  C   UNK A   0       1.440   5.392  20.766  0.00  0.00    +0.000 A 
ATOM      5  C   UNK A   0       1.867   4.106  20.481  0.00  0.00    +0.000 A 
ATOM      6 CL   UNK A   0       1.218   2.829  21.465  0.00  0.00    +0.000 Cl
ATOM      7  C   UNK A   0       2.793   3.849  19.430  0.00  0.00    +0.000 A 
ATOM      8  C   UNK A   0       3.261   2.564  19.107  0.00  0.00    +0.000 A 
ATOM      9  C   UNK A   0       4.145   2.382  18.050  0.00  0.00    +0.000 A 
ATOM     10  C   UNK A   0       4.577   3.479  17.324  0.00  0.00    +0.000 A 
ATOM     11  N   SER A   1       5.433   3.271  16.256  0.00  0.00    +0.000 N 
ATOM     12  N   UNK A   0       4.162   4.724  17.636  0.00  0.00    +0.000 NA
ATOM     13  C   UNK A   0       3.284   4.924  18.653  0.00  0.00    +0.000 A 
ATOM     14  H   SER A   1       5.759   2.329  16.072  0.00  0.00    +0.000 HD
ENDROOT
BRANCH  11  15
ATOM     15  CA  SER A   1       6.286   4.346  15.734  0.00  0.00    +0.000 C 
BRANCH  15  16
ATOM     16  CB  SER A   1       5.452   5.447  15.044  0.00  0.00    +0.000 C 
BRANCH  16  17
ATOM     17  OG  SER A   1       5.627   6.723  15.670  0.00  0.00    +0.000 OA
ATOM     18  H   SER A   1       6.321   7.171  15.150  0.00  0.00    +0.000 HD
ENDBRANCH  16  17
ENDBRANCH  15  16
BRANCH  15  19
ATOM     19  C   SER A   1       7.089   4.957  16.912  0.00  0.00    +0.000 C 
BRANCH  19  20
ATOM     20  O   SER A   1       8.148   4.102  17.353  0.00  0.00    +0.000 OA
ATOM     21  H   SER A   1       8.915   4.688  17.530  0.00  0.00    +0.000 HD
ENDBRANCH  19  20
ENDBRANCH  15  19
ENDBRANCH  11  15
TORSDOF 5
ENDMDL
MODEL 3
REMARK VINA RESULT:      -6.3      1.562      3.016
REMARK  Name = 
REMARK  6 active torsions:
REMARK  status: ('A' for Active; 'I' for Inactive)
REMARK    1  A    between atoms: C_1  and  C_2
REMARK    2  A    between atoms: N_11  and  CA_12
REMARK    3  A    between atoms: CA_12  and  CB_13
REMARK    4  A    between atoms: CA_12  and  C_15
REMARK    5  A    between atoms: CB_13  and  OG_14
REMARK    6  A    between atoms: C_15  and  O_16
REMARK                            x       y       z     vdW  Elec       q    Type
REMARK                         _______ _______ _______ _____ _____    ______ ____
ROOT
ATOM      1  C   UNK A   0       4.288   2.402  19.633  0.00  0.00    +0.000 C 
ATOM      2  C   UNK A   0       3.445   3.624  19.905  0.00  0.00    +0.000 A 
ATOM      3  C   UNK A   0       2.491   3.563  20.937  0.00  0.00    +0.000 A 
ATOM      4  C   UNK A   0       1.683   4.661  21.209  0.00  0.00    +0.000 A 
ATOM      5  C   UNK A   0       1.821   5.808  20.447  0.00  0.00    +0.000 A 
ATOM      6 CL   UNK A   0       0.772   7.138  20.838  0.00  0.00    +0.000 Cl
ATOM      7  C   UNK A   0       2.776   5.889  19.395  0.00  0.00    +0.000 A 
ATOM      8  C   UNK A   0       2.949   7.028  18.590  0.00  0.00    +0.000 A 
ATOM      9  C   UNK A   0       3.922   7.048  17.597  0.00  0.00    +0.000 A 
ATOM     10  C   UNK A   0       4.712   5.930  17.392  0.00  0.00    +0.000 A 
ATOM     11  N   SER A   1       5.695   5.982  16.420  0.00  0.00    +0.000 N 
ATOM     12  N   UNK A   0       4.543   4.816  18.136  0.00  0.00    +0.000 NA
ATOM     13  C   UNK A   0       3.613   4.780  19.124  0.00  0.00    +0.000 A 
ATOM     14  H   SER A   1       5.770   6.818  15.851  0.00  0.00    +0.000 HD
ENDROOT
BRANCH  11  15
ATOM     15  CA  SER A   1       6.252   4.762  15.822  0.00  0.00    +0.000 C 
BRANCH  15  16
ATOM     16  CB  SER A   1       6.516   4.941  14.312  0.00  0.00    +0.000 C 
BRANCH  16  17
ATOM     17  OG  SER A   1       7.819   5.477  14.055  0.00  0.00    +0.000 OA
ATOM     18  H   SER A   1       7.710   6.446  14.088  0.00  0.00    +0.000 HD
ENDBRANCH  16  17
ENDBRANCH  15  16
BRANCH  15  19
ATOM     19  C   SER A   1       7.578   4.417  16.548  0.00  0.00    +0.000 C 
BRANCH  19  20
ATOM     20  O   SER A   1       7.386   4.157  17.942  0.00  0.00    +0.000 OA
ATOM     21  H   SER A   1       6.479   3.795  18.030  0.00  0.00    +0.000 HD
ENDBRANCH  19  20
ENDBRANCH  15  19
ENDBRANCH  11  15
TORSDOF 5
ENDMDL
MODEL 4
REMARK VINA RESULT:      -6.1      1.874      3.210
REMARK  Name = 
REMARK  6 active torsions:
REMARK  status: ('A' for Active; 'I' for Inactive)
REMARK    1  A    between atoms: C_1  and  C_2
REMARK    2  A    between atoms: N_11  and  CA_12
REMARK    3  A    between atoms: CA_12  and  CB_13
REMARK    4  A    between atoms: CA_12  and  C_15
REMARK    5  A    between atoms: CB_13  and  OG_14
REMARK    6  A    between atoms: C_15  and  O_16
REMARK                            x       y       z     vdW  Elec       q    Type
REMARK                         _______ _______ _______ _____ _____    ______ ____
ROOT
ATOM      1  C   UNK A   0       3.928   3.173  19.752  0.00  0.00    +0.000 C 
ATOM      2  C   UNK A   0       3.232   4.510  19.836  0.00  0.00    +0.000 A 
ATOM      3  C   UNK A   0       2.269   4.701  20.843  0.00  0.00    +0.000 A 
ATOM      4  C   UNK A   0       1.594   5.911  20.945  0.00  0.00    +0.000 A 
ATOM      5  C   UNK A   0       1.872   6.920  20.039  0.00  0.00    +0.000 A 
ATOM      6 CL   UNK A   0       0.984   8.403  20.222  0.00  0.00    +0.000 Cl
ATOM      7  C   UNK A   0       2.840   6.746  19.010  0.00  0.00    +0.000 A 
ATOM      8  C   UNK A   0       3.152   7.736  18.063  0.00  0.00    +0.000 A 
ATOM      9  C   UNK A   0       4.128   7.508  17.100  0.00  0.00    +0.000 A 
ATOM     10  C   UNK A   0       4.783   6.289  17.068  0.00  0.00    +0.000 A 
ATOM     11  N   SER A   1       5.773   6.094  16.121  0.00  0.00    +0.000 N 
ATOM     12  N   UNK A   0       4.478   5.314  17.950  0.00  0.00    +0.000 NA
ATOM     13  C   UNK A   0       3.542   5.521  18.911  0.00  0.00    +0.000 A 
ATOM     14  H   SER A   1       5.951   6.830  15.446  0.00  0.00    +0.000 HD
ENDROOT
BRANCH  11  15
ATOM     15  CA  SER A   1       6.188   4.747  15.706  0.00  0.00    +0.000 C 
BRANCH  15  16
ATOM     16  CB  SER A   1       6.512   4.694  14.198  0.00  0.00    +0.000 C 
BRANCH  16  17
ATOM     17  OG  SER A   1       6.344   3.378  13.660  0.00  0.00    +0.000 OA
ATOM     18  H   SER A   1       6.097   2.818  14.421  0.00  0.00    +0.000 HD
ENDBRANCH  16  17
ENDBRANCH  15  16
BRANCH  15  19
ATOM     19  C   SER A   1       7.441   4.342  16.526  0.00  0.00    +0.000 C 
BRANCH  19  20
ATOM     20  O   SER A   1       7.145   4.135  17.910  0.00  0.00    +0.000 OA
ATOM     21  H   SER A   1       8.009   4.127  18.375  0.00  0.00    +0.000 HD
ENDBRANCH  19  20
ENDBRANCH  15  19
ENDBRANCH  11  15
TORSDOF 5
ENDMDL
MODEL 5
REMARK VINA RESULT:      -6.1      3.706      6.022
REMARK  Name = 
REMARK  6 active torsions:
REMARK  status: ('A' for Active; 'I' for Inactive)
REMARK    1  A    between atoms: C_1  and  C_2
REMARK    2  A    between atoms: N_11  and  CA_12
REMARK    3  A    between atoms: CA_12  and  CB_13
REMARK    4  A    between atoms: CA_12  and  C_15
REMARK    5  A    between atoms: CB_13  and  OG_14
REMARK    6  A    between atoms: C_15  and  O_16
REMARK                            x       y       z     vdW  Elec       q    Type
REMARK                         _______ _______ _______ _____ _____    ______ ____
ROOT
ATOM      1  C   UNK A   0       6.963   5.506  19.340  0.00  0.00    +0.000 C 
ATOM      2  C   UNK A   0       6.599   5.061  17.944  0.00  0.00    +0.000 A 
ATOM      3  C   UNK A   0       7.544   5.241  16.917  0.00  0.00    +0.000 A 
ATOM      4  C   UNK A   0       7.243   4.860  15.615  0.00  0.00    +0.000 A 
ATOM      5  C   UNK A   0       6.002   4.312  15.340  0.00  0.00    +0.000 A 
ATOM      6 CL   UNK A   0       5.692   3.866  13.689  0.00  0.00    +0.000 Cl
ATOM      7  C   UNK A   0       5.031   4.126  16.363  0.00  0.00    +0.000 A 
ATOM      8  C   UNK A   0       3.756   3.581  16.132  0.00  0.00    +0.000 A 
ATOM      9  C   UNK A   0       2.865   3.402  17.185  0.00  0.00    +0.000 A 
ATOM     10  C   UNK A   0       3.235   3.779  18.465  0.00  0.00    +0.000 A 
ATOM     11  N   SER A   1       2.345   3.563  19.502  0.00  0.00    +0.000 N 
ATOM     12  N   UNK A   0       4.444   4.331  18.703  0.00  0.00    +0.000 NA
ATOM     13  C   UNK A   0       5.337   4.498  17.693  0.00  0.00    +0.000 A 
ATOM     14  H   SER A   1       1.430   3.185  19.285  0.00  0.00    +0.000 HD
ENDROOT
BRANCH  11  15
ATOM     15  CA  SER A   1       2.434   4.314  20.761  0.00  0.00    +0.000 C 
BRANCH  15  16
ATOM     16  CB  SER A   1       1.522   5.560  20.741  0.00  0.00    +0.000 C 
BRANCH  16  17
ATOM     17  OG  SER A   1       2.263   6.764  20.511  0.00  0.00    +0.000 OA
ATOM     18  H   SER A   1       2.261   7.234  21.367  0.00  0.00    +0.000 HD
ENDBRANCH  16  17
ENDBRANCH  15  16
BRANCH  15  19
ATOM     19  C   SER A   1       2.017   3.379  21.925  0.00  0.00    +0.000 C 
BRANCH  19  20
ATOM     20  O   SER A   1       2.878   2.242  22.047  0.00  0.00    +0.000 OA
ATOM     21  H   SER A   1       2.535   1.572  21.418  0.00  0.00    +0.000 HD
ENDBRANCH  19  20
ENDBRANCH  15  19
ENDBRANCH  11  15
TORSDOF 5
ENDMDL
MODEL 6
REMARK VINA RESULT:      -6.1      1.623      2.923
REMARK  Name = 
REMARK  6 active torsions:
REMARK  status: ('A' for Active; 'I' for Inactive)
REMARK    1  A    between atoms: C_1  and  C_2
REMARK    2  A    between atoms: N_11  and  CA_12
REMARK    3  A    between atoms: CA_12  and  CB_13
REMARK    4  A    between atoms: CA_12  and  C_15
REMARK    5  A    between atoms: CB_13  and  OG_14
REMARK    6  A    between atoms: C_15  and  O_16
REMARK                            x       y       z     vdW  Elec       q    Type
REMARK                         _______ _______ _______ _____ _____    ______ ____
ROOT
ATOM      1  C   UNK A   0       3.996   2.218  19.244  0.00  0.00    +0.000 C 
ATOM      2  C   UNK A   0       3.298   3.501  19.627  0.00  0.00    +0.000 A 
ATOM      3  C   UNK A   0       2.448   3.492  20.748  0.00  0.00    +0.000 A 
ATOM      4  C   UNK A   0       1.774   4.647  21.125  0.00  0.00    +0.000 A 
ATOM      5  C   UNK A   0       1.941   5.802  20.380  0.00  0.00    +0.000 A 
ATOM      6 CL   UNK A   0       1.061   7.206  20.905  0.00  0.00    +0.000 Cl
ATOM      7  C   UNK A   0       2.793   5.832  19.240  0.00  0.00    +0.000 A 
ATOM      8  C   UNK A   0       2.989   6.976  18.448  0.00  0.00    +0.000 A 
ATOM      9  C   UNK A   0       3.858   6.942  17.363  0.00  0.00    +0.000 A 
ATOM     10  C   UNK A   0       4.519   5.765  17.055  0.00  0.00    +0.000 A 
ATOM     11  N   SER A   1       5.402   5.762  15.990  0.00  0.00    +0.000 N 
ATOM     12  N   UNK A   0       4.323   4.647  17.785  0.00  0.00    +0.000 NA
ATOM     13  C   UNK A   0       3.493   4.662  18.861  0.00  0.00    +0.000 A 
ATOM     14  H   SER A   1       5.497   6.605  15.436  0.00  0.00    +0.000 HD
ENDROOT
BRANCH  11  15
ATOM     15  CA  SER A   1       5.785   4.517  15.311  0.00  0.00    +0.000 C 
BRANCH  15  16
ATOM     16  CB  SER A   1       5.149   4.419  13.908  0.00  0.00    +0.000 C 
BRANCH  16  17
ATOM     17  OG  SER A   1       5.975   3.688  12.995  0.00  0.00    +0.000 OA
ATOM     18  H   SER A   1       5.633   3.907  12.107  0.00  0.00    +0.000 HD
ENDBRANCH  16  17
ENDBRANCH  15  16
BRANCH  15  19
ATOM     19  C   SER A   1       7.330   4.475  15.190  0.00  0.00    +0.000 C 
BRANCH  19  20
ATOM     20  O   SER A   1       7.843   5.527  14.369  0.00  0.00    +0.000 OA
ATOM     21  H   SER A   1       7.110   5.792  13.774  0.00  0.00    +0.000 HD
ENDBRANCH  19  20
ENDBRANCH  15  19
ENDBRANCH  11  15
TORSDOF 5
ENDMDL
MODEL 7
REMARK VINA RESULT:      -6.0      4.714      6.741
REMARK  Name = 
REMARK  6 active torsions:
REMARK  status: ('A' for Active; 'I' for Inactive)
REMARK    1  A    between atoms: C_1  and  C_2
REMARK    2  A    between atoms: N_11  and  CA_12
REMARK    3  A    between atoms: CA_12  and  CB_13
REMARK    4  A    between atoms: CA_12  and  C_15
REMARK    5  A    between atoms: CB_13  and  OG_14
REMARK    6  A    between atoms: C_15  and  O_16
REMARK                            x       y       z     vdW  Elec       q    Type
REMARK                         _______ _______ _______ _____ _____    ______ ____
ROOT
ATOM      1  C   UNK A   0       2.009   3.618  21.450  0.00  0.00    +0.000 C 
ATOM      2  C   UNK A   0       2.721   3.816  20.134  0.00  0.00    +0.000 A 
ATOM      3  C   UNK A   0       3.369   2.712  19.551  0.00  0.00    +0.000 A 
ATOM      4  C   UNK A   0       4.048   2.855  18.348  0.00  0.00    +0.000 A 
ATOM      5  C   UNK A   0       4.090   4.096  17.736  0.00  0.00    +0.000 A 
ATOM      6 CL   UNK A   0       4.964   4.202  16.238  0.00  0.00    +0.000 Cl
ATOM      7  C   UNK A   0       3.444   5.227  18.311  0.00  0.00    +0.000 A 
ATOM      8  C   UNK A   0       3.463   6.508  17.733  0.00  0.00    +0.000 A 
ATOM      9  C   UNK A   0       2.788   7.563  18.336  0.00  0.00    +0.000 A 
ATOM     10  C   UNK A   0       2.107   7.349  19.522  0.00  0.00    +0.000 A 
ATOM     11  N   SER A   1       1.416   8.406  20.089  0.00  0.00    +0.000 N 
ATOM     12  N   UNK A   0       2.101   6.134  20.109  0.00  0.00    +0.000 NA
ATOM     13  C   UNK A   0       2.737   5.084  19.528  0.00  0.00    +0.000 A 
ATOM     14  H   SER A   1       1.474   9.316  19.646  0.00  0.00    +0.000 HD
ENDROOT
BRANCH  11  15
ATOM     15  CA  SER A   1       1.067   8.421  21.515  0.00  0.00    +0.000 C 
BRANCH  15  16
ATOM     16  CB  SER A   1       1.659   9.654  22.230  0.00  0.00    +0.000 C 
BRANCH  16  17
ATOM     17  OG  SER A   1       0.825  10.810  22.084  0.00  0.00    +0.000 OA
ATOM     18  H   SER A   1       1.109  11.422  22.789  0.00  0.00    +0.000 HD
ENDBRANCH  16  17
ENDBRANCH  15  16
BRANCH  15  19
ATOM     19  C   SER A   1      -0.478   8.431  21.645  0.00  0.00    +0.000 C 
BRANCH  19  20
ATOM     20  O   SER A   1      -0.912   8.685  22.985  0.00  0.00    +0.000 OA
ATOM     21  H   SER A   1      -0.592   7.930  23.523  0.00  0.00    +0.000 HD
ENDBRANCH  19  20
ENDBRANCH  15  19
ENDBRANCH  11  15
TORSDOF 5
ENDMDL
MODEL 8
REMARK VINA RESULT:      -6.0      0.889      1.343
REMARK  Name = 
REMARK  6 active torsions:
REMARK  status: ('A' for Active; 'I' for Inactive)
REMARK    1  A    between atoms: C_1  and  C_2
REMARK    2  A    between atoms: N_11  and  CA_12
REMARK    3  A    between atoms: CA_12  and  CB_13
REMARK    4  A    between atoms: CA_12  and  C_15
REMARK    5  A    between atoms: CB_13  and  OG_14
REMARK    6  A    between atoms: C_15  and  O_16
REMARK                            x       y       z     vdW  Elec       q    Type
REMARK                         _______ _______ _______ _____ _____    ______ ____
ROOT
ATOM      1  C   UNK A   0       3.178   7.519  18.329  0.00  0.00    +0.000 C 
ATOM      2  C   UNK A   0       2.718   6.277  19.054  0.00  0.00    +0.000 A 
ATOM      3  C   UNK A   0       1.807   6.421  20.116  0.00  0.00    +0.000 A 
ATOM      4  C   UNK A   0       1.371   5.305  20.820  0.00  0.00    +0.000 A 
ATOM      5  C   UNK A   0       1.852   4.054  20.471  0.00  0.00    +0.000 A 
ATOM      6 CL   UNK A   0       1.270   2.705  21.400  0.00  0.00    +0.000 Cl
ATOM      7  C   UNK A   0       2.777   3.887  19.403  0.00  0.00    +0.000 A 
ATOM      8  C   UNK A   0       3.299   2.641  19.016  0.00  0.00    +0.000 A 
ATOM      9  C   UNK A   0       4.180   2.548  17.944  0.00  0.00    +0.000 A 
ATOM     10  C   UNK A   0       4.555   3.695  17.267  0.00  0.00    +0.000 A 
ATOM     11  N   SER A   1       5.408   3.576  16.184  0.00  0.00    +0.000 N 
ATOM     12  N   UNK A   0       4.089   4.905  17.641  0.00  0.00    +0.000 NA
ATOM     13  C   UNK A   0       3.213   5.018  18.672  0.00  0.00    +0.000 A 
ATOM     14  H   SER A   1       5.774   2.659  15.954  0.00  0.00    +0.000 HD
ENDROOT
BRANCH  11  15
ATOM     15  CA  SER A   1       6.208   4.710  15.706  0.00  0.00    +0.000 C 
BRANCH  15  16
ATOM     16  CB  SER A   1       7.010   4.343  14.439  0.00  0.00    +0.000 C 
BRANCH  16  17
ATOM     17  OG  SER A   1       7.761   5.455  13.938  0.00  0.00    +0.000 OA
ATOM     18  H   SER A   1       7.181   5.880  13.277  0.00  0.00    +0.000 HD
ENDBRANCH  16  17
ENDBRANCH  15  16
BRANCH  15  19
ATOM     19  C   SER A   1       5.254   5.893  15.397  0.00  0.00    +0.000 C 
BRANCH  19  20
ATOM     20  O   SER A   1       5.726   7.132  15.935  0.00  0.00    +0.000 OA
ATOM     21  H   SER A   1       4.927   7.649  16.172  0.00  0.00    +0.000 HD
ENDBRANCH  19  20
ENDBRANCH  15  19
ENDBRANCH  11  15
TORSDOF 5
ENDMDL
MODEL 9
REMARK VINA RESULT:      -5.8      4.923      7.043
REMARK  Name = 
REMARK  6 active torsions:
REMARK  status: ('A' for Active; 'I' for Inactive)
REMARK    1  A    between atoms: C_1  and  C_2
REMARK    2  A    between atoms: N_11  and  CA_12
REMARK    3  A    between atoms: CA_12  and  CB_13
REMARK    4  A    between atoms: CA_12  and  C_15
REMARK    5  A    between atoms: CB_13  and  OG_14
REMARK    6  A    between atoms: C_15  and  O_16
REMARK                            x       y       z     vdW  Elec       q    Type
REMARK                         _______ _______ _______ _____ _____    ______ ____
ROOT
ATOM      1  C   UNK A   0       2.267   4.742  21.198  0.00  0.00    +0.000 C 
ATOM      2  C   UNK A   0       2.943   4.990  19.871  0.00  0.00    +0.000 A 
ATOM      3  C   UNK A   0       3.730   3.964  19.318  0.00  0.00    +0.000 A 
ATOM      4  C   UNK A   0       4.381   4.157  18.107  0.00  0.00    +0.000 A 
ATOM      5  C   UNK A   0       4.256   5.373  17.456  0.00  0.00    +0.000 A 
ATOM      6 CL   UNK A   0       5.105   5.546  15.950  0.00  0.00    +0.000 Cl
ATOM      7  C   UNK A   0       3.468   6.426  18.000  0.00  0.00    +0.000 A 
ATOM      8  C   UNK A   0       3.315   7.679  17.383  0.00  0.00    +0.000 A 
ATOM      9  C   UNK A   0       2.507   8.654  17.957  0.00  0.00    +0.000 A 
ATOM     10  C   UNK A   0       1.864   8.390  19.154  0.00  0.00    +0.000 A 
ATOM     11  N   SER A   1       1.040   9.363  19.692  0.00  0.00    +0.000 N 
ATOM     12  N   UNK A   0       2.020   7.203  19.778  0.00  0.00    +0.000 NA
ATOM     13  C   UNK A   0       2.789   6.229  19.226  0.00  0.00    +0.000 A 
ATOM     14  H   SER A   1       0.976  10.258  19.221  0.00  0.00    +0.000 HD
ENDROOT
BRANCH  11  15
ATOM     15  CA  SER A   1       0.696   9.377  21.119  0.00  0.00    +0.000 C 
BRANCH  15  16
ATOM     16  CB  SER A   1       0.308  10.793  21.594  0.00  0.00    +0.000 C 
BRANCH  16  17
ATOM     17  OG  SER A   1       0.063  10.838  23.004  0.00  0.00    +0.000 OA
ATOM     18  H   SER A   1       0.615  11.571  23.338  0.00  0.00    +0.000 HD
ENDBRANCH  16  17
ENDBRANCH  15  16
BRANCH  15  19
ATOM     19  C   SER A   1      -0.489   8.403  21.352  0.00  0.00    +0.000 C 
BRANCH  19  20
ATOM     20  O   SER A   1      -0.866   8.320  22.729  0.00  0.00    +0.000 OA
ATOM     21  H   SER A   1      -0.312   8.975  23.204  0.00  0.00    +0.000 HD
ENDBRANCH  19  20
ENDBRANCH  15  19
ENDBRANCH  11  15
TORSDOF 5
ENDMDL
