MODEL 1
REMARK VINA RESULT:      -9.5      0.000      0.000
REMARK  Name = 
REMARK  6 active torsions:
REMARK  status: ('A' for Active; 'I' for Inactive)
REMARK    1  A    between atoms: C_1  and  S_2
REMARK    2  A    between atoms: S_2  and  C_5
REMARK    3  A    between atoms: C_8  and  C_9
REMARK    4  A    between atoms: N_12  and  C_13
REMARK    5  A    between atoms: C_13  and  C_14
REMARK    6  A    between atoms: C_20  and  C_21
REMARK                            x       y       z     vdW  Elec       q    Type
REMARK                         _______ _______ _______ _____ _____    ______ ____
ROOT
ATOM      1  C   UNL     1       2.877   5.831  19.318  0.00  0.00    +0.000 A 
ATOM      2  N   UNL     1       4.179   5.640  19.015  0.00  0.00    +0.000 NA
ATOM      3  C   UNL     1       4.648   4.384  19.077  0.00  0.00    +0.000 A 
ATOM      4  N   UNL     1       5.926   4.085  18.640  0.00  0.00    +0.000 N 
ATOM      5  C   UNL     1       3.839   3.333  19.437  0.00  0.00    +0.000 A 
ATOM      6  C   UNL     1       2.509   3.595  19.707  0.00  0.00    +0.000 A 
ATOM      7  N   UNL     1       2.014   4.855  19.653  0.00  0.00    +0.000 NA
ATOM      8  H   UNL     1       6.480   3.481  19.236  0.00  0.00    +0.000 HD
ENDROOT
BRANCH   1  12
ATOM      9  C   UNL     1       1.300   9.822  19.087  0.00  0.00    +0.000 A 
ATOM     10  C   UNL     1       1.177   9.099  20.273  0.00  0.00    +0.000 A 
ATOM     11  C   UNL     1       1.716   7.809  20.352  0.00  0.00    +0.000 A 
ATOM     12  C   UNL     1       2.356   7.210  19.248  0.00  0.00    +0.000 A 
ATOM     13  C   UNL     1       2.461   7.969  18.067  0.00  0.00    +0.000 A 
ATOM     14  C   UNL     1       1.939   9.264  17.978  0.00  0.00    +0.000 A 
BRANCH   9  16
ATOM     15  C   UNL     1       0.293  11.911  20.647  0.00  0.00    +0.000 C 
ATOM     16  S   UNL     1       0.571  11.438  18.957  0.00  0.00    +0.000 S 
ATOM     17  O   UNL     1      -0.721  11.285  18.310  0.00  0.00    +0.000 OA
ATOM     18  O   UNL     1       1.577  12.325  18.405  0.00  0.00    +0.000 OA
ENDBRANCH   9  16
ENDBRANCH   1  12
BRANCH   6  19
ATOM     19  C   UNL     1       1.572   2.446  20.037  0.00  0.00    +0.000 C 
ATOM     20  F   UNL     1       0.259   2.729  19.774  0.00  0.00    +0.000 F 
ATOM     21  F   UNL     1       1.844   1.313  19.328  0.00  0.00    +0.000 F 
ATOM     22  F   UNL     1       1.605   2.085  21.352  0.00  0.00    +0.000 F 
ENDBRANCH   6  19
BRANCH   4  23
ATOM     23  C   UNL     1       6.699   5.036  17.862  0.00  0.00    +0.000 C 
BRANCH  23  24
ATOM     24  C   UNL     1       6.575   4.744  16.400  0.00  0.00    +0.000 A 
ATOM     25  C   UNL     1       5.833   3.831  15.677  0.00  0.00    +0.000 A 
ATOM     26  C   UNL     1       6.203   3.999  14.321  0.00  0.00    +0.000 A 
ATOM     27  C   UNL     1       7.149   4.997  14.302  0.00  0.00    +0.000 A 
ATOM     28  O   UNL     1       7.385   5.455  15.559  0.00  0.00    +0.000 OA
ENDBRANCH  23  24
ENDBRANCH   4  23
TORSDOF 5
ENDMDL
MODEL 2
REMARK VINA RESULT:      -9.5      0.165      1.186
REMARK  Name = 
REMARK  6 active torsions:
REMARK  status: ('A' for Active; 'I' for Inactive)
REMARK    1  A    between atoms: C_1  and  S_2
REMARK    2  A    between atoms: S_2  and  C_5
REMARK    3  A    between atoms: C_8  and  C_9
REMARK    4  A    between atoms: N_12  and  C_13
REMARK    5  A    between atoms: C_13  and  C_14
REMARK    6  A    between atoms: C_20  and  C_21
REMARK                            x       y       z     vdW  Elec       q    Type
REMARK                         _______ _______ _______ _____ _____    ______ ____
ROOT
ATOM      1  C   UNL     1       2.880   5.868  19.281  0.00  0.00    +0.000 A 
ATOM      2  N   UNL     1       4.181   5.683  18.973  0.00  0.00    +0.000 NA
ATOM      3  C   UNL     1       4.660   4.432  19.053  0.00  0.00    +0.000 A 
ATOM      4  N   UNL     1       5.938   4.136  18.611  0.00  0.00    +0.000 N 
ATOM      5  C   UNL     1       3.864   3.380  19.438  0.00  0.00    +0.000 A 
ATOM      6  C   UNL     1       2.533   3.636  19.713  0.00  0.00    +0.000 A 
ATOM      7  N   UNL     1       2.027   4.892  19.641  0.00  0.00    +0.000 NA
ATOM      8  H   UNL     1       6.501   3.547  19.213  0.00  0.00    +0.000 HD
ENDROOT
BRANCH   1  12
ATOM      9  C   UNL     1       1.385   9.891  19.051  0.00  0.00    +0.000 A 
ATOM     10  C   UNL     1       2.027   9.329  17.948  0.00  0.00    +0.000 A 
ATOM     11  C   UNL     1       2.489   8.009  18.018  0.00  0.00    +0.000 A 
ATOM     12  C   UNL     1       2.347   7.242  19.192  0.00  0.00    +0.000 A 
ATOM     13  C   UNL     1       1.695   7.841  20.286  0.00  0.00    +0.000 A 
ATOM     14  C   UNL     1       1.217   9.155  20.225  0.00  0.00    +0.000 A 
BRANCH   9  16
ATOM     15  C   UNL     1       0.772  12.060  20.702  0.00  0.00    +0.000 C 
ATOM     16  S   UNL     1       0.845  11.583  18.992  0.00  0.00    +0.000 S 
ATOM     17  O   UNL     1      -0.507  11.593  18.460  0.00  0.00    +0.000 OA
ATOM     18  O   UNL     1       1.897  12.354  18.358  0.00  0.00    +0.000 OA
ENDBRANCH   9  16
ENDBRANCH   1  12
BRANCH   6  19
ATOM     19  C   UNL     1       1.608   2.486  20.070  0.00  0.00    +0.000 C 
ATOM     20  F   UNL     1       1.638   2.164  21.400  0.00  0.00    +0.000 F 
ATOM     21  F   UNL     1       0.299   2.744  19.791  0.00  0.00    +0.000 F 
ATOM     22  F   UNL     1       1.913   1.328  19.415  0.00  0.00    +0.000 F 
ENDBRANCH   6  19
BRANCH   4  23
ATOM     23  C   UNL     1       6.697   5.079  17.811  0.00  0.00    +0.000 C 
BRANCH  23  24
ATOM     24  C   UNL     1       6.567   4.758  16.355  0.00  0.00    +0.000 A 
ATOM     25  C   UNL     1       5.798   3.854  15.651  0.00  0.00    +0.000 A 
ATOM     26  C   UNL     1       6.176   3.980  14.292  0.00  0.00    +0.000 A 
ATOM     27  C   UNL     1       7.153   4.946  14.254  0.00  0.00    +0.000 A 
ATOM     28  O   UNL     1       7.402   5.424  15.501  0.00  0.00    +0.000 OA
ENDBRANCH  23  24
ENDBRANCH   4  23
TORSDOF 5
ENDMDL
MODEL 3
REMARK VINA RESULT:      -9.4      0.720      1.294
REMARK  Name = 
REMARK  6 active torsions:
REMARK  status: ('A' for Active; 'I' for Inactive)
REMARK    1  A    between atoms: C_1  and  S_2
REMARK    2  A    between atoms: S_2  and  C_5
REMARK    3  A    between atoms: C_8  and  C_9
REMARK    4  A    between atoms: N_12  and  C_13
REMARK    5  A    between atoms: C_13  and  C_14
REMARK    6  A    between atoms: C_20  and  C_21
REMARK                            x       y       z     vdW  Elec       q    Type
REMARK                         _______ _______ _______ _____ _____    ______ ____
ROOT
ATOM      1  C   UNL     1       2.825   5.856  19.342  0.00  0.00    +0.000 A 
ATOM      2  N   UNL     1       4.125   5.668  19.033  0.00  0.00    +0.000 NA
ATOM      3  C   UNL     1       4.593   4.411  19.081  0.00  0.00    +0.000 A 
ATOM      4  N   UNL     1       5.869   4.115  18.636  0.00  0.00    +0.000 N 
ATOM      5  C   UNL     1       3.786   3.356  19.435  0.00  0.00    +0.000 A 
ATOM      6  C   UNL     1       2.457   3.617  19.712  0.00  0.00    +0.000 A 
ATOM      7  N   UNL     1       1.962   4.878  19.673  0.00  0.00    +0.000 NA
ATOM      8  H   UNL     1       6.426   3.505  19.223  0.00  0.00    +0.000 HD
ENDROOT
BRANCH   1  12
ATOM      9  C   UNL     1       1.367   9.897  19.215  0.00  0.00    +0.000 A 
ATOM     10  C   UNL     1       1.994   9.354  18.094  0.00  0.00    +0.000 A 
ATOM     11  C   UNL     1       2.443   8.028  18.131  0.00  0.00    +0.000 A 
ATOM     12  C   UNL     1       2.304   7.236  19.288  0.00  0.00    +0.000 A 
ATOM     13  C   UNL     1       1.668   7.817  20.402  0.00  0.00    +0.000 A 
ATOM     14  C   UNL     1       1.202   9.137  20.374  0.00  0.00    +0.000 A 
BRANCH   9  16
ATOM     15  C   UNL     1       2.137  12.427  18.310  0.00  0.00    +0.000 C 
ATOM     16  S   UNL     1       0.843  11.595  19.199  0.00  0.00    +0.000 S 
ATOM     17  O   UNL     1       0.857  12.071  20.572  0.00  0.00    +0.000 OA
ATOM     18  O   UNL     1      -0.366  11.669  18.401  0.00  0.00    +0.000 OA
ENDBRANCH   9  16
ENDBRANCH   1  12
BRANCH   6  19
ATOM     19  C   UNL     1       1.520   2.465  20.035  0.00  0.00    +0.000 C 
ATOM     20  F   UNL     1       0.230   2.693  19.637  0.00  0.00    +0.000 F 
ATOM     21  F   UNL     1       1.881   1.297  19.433  0.00  0.00    +0.000 F 
ATOM     22  F   UNL     1       1.441   2.195  21.370  0.00  0.00    +0.000 F 
ENDBRANCH   6  19
BRANCH   4  23
ATOM     23  C   UNL     1       6.640   5.073  17.863  0.00  0.00    +0.000 C 
BRANCH  23  24
ATOM     24  C   UNL     1       6.543   4.769  16.402  0.00  0.00    +0.000 A 
ATOM     25  C   UNL     1       5.827   3.841  15.674  0.00  0.00    +0.000 A 
ATOM     26  C   UNL     1       6.216   4.005  14.322  0.00  0.00    +0.000 A 
ATOM     27  C   UNL     1       7.148   5.015  14.311  0.00  0.00    +0.000 A 
ATOM     28  O   UNL     1       7.358   5.485  15.569  0.00  0.00    +0.000 OA
ENDBRANCH  23  24
ENDBRANCH   4  23
TORSDOF 5
ENDMDL
MODEL 4
REMARK VINA RESULT:      -9.4      0.716      1.108
REMARK  Name = 
REMARK  6 active torsions:
REMARK  status: ('A' for Active; 'I' for Inactive)
REMARK    1  A    between atoms: C_1  and  S_2
REMARK    2  A    between atoms: S_2  and  C_5
REMARK    3  A    between atoms: C_8  and  C_9
REMARK    4  A    between atoms: N_12  and  C_13
REMARK    5  A    between atoms: C_13  and  C_14
REMARK    6  A    between atoms: C_20  and  C_21
REMARK                            x       y       z     vdW  Elec       q    Type
REMARK                         _______ _______ _______ _____ _____    ______ ____
ROOT
ATOM      1  C   UNL     1       2.833   5.853  19.387  0.00  0.00    +0.000 A 
ATOM      2  N   UNL     1       4.129   5.671  19.057  0.00  0.00    +0.000 NA
ATOM      3  C   UNL     1       4.601   4.415  19.087  0.00  0.00    +0.000 A 
ATOM      4  N   UNL     1       5.872   4.127  18.620  0.00  0.00    +0.000 N 
ATOM      5  C   UNL     1       3.802   3.355  19.442  0.00  0.00    +0.000 A 
ATOM      6  C   UNL     1       2.476   3.609  19.742  0.00  0.00    +0.000 A 
ATOM      7  N   UNL     1       1.978   4.870  19.721  0.00  0.00    +0.000 NA
ATOM      8  H   UNL     1       6.438   3.514  19.194  0.00  0.00    +0.000 HD
ENDROOT
BRANCH   1  12
ATOM      9  C   UNL     1       1.244   9.844  19.261  0.00  0.00    +0.000 A 
ATOM     10  C   UNL     1       1.152   9.102  20.437  0.00  0.00    +0.000 A 
ATOM     11  C   UNL     1       1.695   7.812  20.482  0.00  0.00    +0.000 A 
ATOM     12  C   UNL     1       2.308   7.232  19.353  0.00  0.00    +0.000 A 
ATOM     13  C   UNL     1       2.382   8.010  18.182  0.00  0.00    +0.000 A 
ATOM     14  C   UNL     1       1.855   9.305  18.127  0.00  0.00    +0.000 A 
BRANCH   9  16
ATOM     15  C   UNL     1       1.799  12.472  18.488  0.00  0.00    +0.000 C 
ATOM     16  S   UNL     1       0.510  11.461  19.175  0.00  0.00    +0.000 S 
ATOM     17  O   UNL     1       0.263  11.902  20.537  0.00  0.00    +0.000 OA
ATOM     18  O   UNL     1      -0.570  11.397  18.209  0.00  0.00    +0.000 OA
ENDBRANCH   9  16
ENDBRANCH   1  12
BRANCH   6  19
ATOM     19  C   UNL     1       1.548   2.452  20.068  0.00  0.00    +0.000 C 
ATOM     20  F   UNL     1       1.549   2.119  21.396  0.00  0.00    +0.000 F 
ATOM     21  F   UNL     1       0.245   2.709  19.762  0.00  0.00    +0.000 F 
ATOM     22  F   UNL     1       1.872   1.302  19.409  0.00  0.00    +0.000 F 
ENDBRANCH   6  19
BRANCH   4  23
ATOM     23  C   UNL     1       6.628   5.094  17.845  0.00  0.00    +0.000 C 
BRANCH  23  24
ATOM     24  C   UNL     1       6.540   4.782  16.385  0.00  0.00    +0.000 A 
ATOM     25  C   UNL     1       5.812   3.864  15.655  0.00  0.00    +0.000 A 
ATOM     26  C   UNL     1       6.218   4.011  14.307  0.00  0.00    +0.000 A 
ATOM     27  C   UNL     1       7.171   5.002  14.299  0.00  0.00    +0.000 A 
ATOM     28  O   UNL     1       7.377   5.476  15.555  0.00  0.00    +0.000 OA
ENDBRANCH  23  24
ENDBRANCH   4  23
TORSDOF 5
ENDMDL
MODEL 5
REMARK VINA RESULT:      -9.3      0.709      1.455
REMARK  Name = 
REMARK  6 active torsions:
REMARK  status: ('A' for Active; 'I' for Inactive)
REMARK    1  A    between atoms: C_1  and  S_2
REMARK    2  A    between atoms: S_2  and  C_5
REMARK    3  A    between atoms: C_8  and  C_9
REMARK    4  A    between atoms: N_12  and  C_13
REMARK    5  A    between atoms: C_13  and  C_14
REMARK    6  A    between atoms: C_20  and  C_21
REMARK                            x       y       z     vdW  Elec       q    Type
REMARK                         _______ _______ _______ _____ _____    ______ ____
ROOT
ATOM      1  C   UNL     1       2.843   5.846  19.331  0.00  0.00    +0.000 A 
ATOM      2  N   UNL     1       4.144   5.667  19.024  0.00  0.00    +0.000 NA
ATOM      3  C   UNL     1       4.623   4.414  19.078  0.00  0.00    +0.000 A 
ATOM      4  N   UNL     1       5.902   4.128  18.635  0.00  0.00    +0.000 N 
ATOM      5  C   UNL     1       3.824   3.355  19.434  0.00  0.00    +0.000 A 
ATOM      6  C   UNL     1       2.492   3.605  19.709  0.00  0.00    +0.000 A 
ATOM      7  N   UNL     1       1.987   4.862  19.664  0.00  0.00    +0.000 NA
ATOM      8  H   UNL     1       6.462   3.525  19.225  0.00  0.00    +0.000 HD
ENDROOT
BRANCH   1  12
ATOM      9  C   UNL     1       1.352   9.875  19.185  0.00  0.00    +0.000 A 
ATOM     10  C   UNL     1       1.951   9.319  18.056  0.00  0.00    +0.000 A 
ATOM     11  C   UNL     1       2.411   7.997  18.099  0.00  0.00    +0.000 A 
ATOM     12  C   UNL     1       2.310   7.222  19.272  0.00  0.00    +0.000 A 
ATOM     13  C   UNL     1       1.701   7.815  20.394  0.00  0.00    +0.000 A 
ATOM     14  C   UNL     1       1.225   9.131  20.360  0.00  0.00    +0.000 A 
BRANCH   9  16
ATOM     15  C   UNL     1      -0.789  11.490  18.399  0.00  0.00    +0.000 C 
ATOM     16  S   UNL     1       0.815  11.569  19.159  0.00  0.00    +0.000 S 
ATOM     17  O   UNL     1       1.704  12.296  18.269  0.00  0.00    +0.000 OA
ATOM     18  O   UNL     1       0.637  11.989  20.535  0.00  0.00    +0.000 OA
ENDBRANCH   9  16
ENDBRANCH   1  12
BRANCH   6  19
ATOM     19  C   UNL     1       1.565   2.447  20.035  0.00  0.00    +0.000 C 
ATOM     20  F   UNL     1       1.907   1.287  19.394  0.00  0.00    +0.000 F 
ATOM     21  F   UNL     1       1.546   2.132  21.361  0.00  0.00    +0.000 F 
ATOM     22  F   UNL     1       0.268   2.682  19.684  0.00  0.00    +0.000 F 
ENDBRANCH   6  19
BRANCH   4  23
ATOM     23  C   UNL     1       6.666   5.089  17.860  0.00  0.00    +0.000 C 
BRANCH  23  24
ATOM     24  C   UNL     1       6.548   4.797  16.397  0.00  0.00    +0.000 A 
ATOM     25  C   UNL     1       5.767   3.926  15.666  0.00  0.00    +0.000 A 
ATOM     26  C   UNL     1       6.169   4.065  14.316  0.00  0.00    +0.000 A 
ATOM     27  C   UNL     1       7.172   5.004  14.308  0.00  0.00    +0.000 A 
ATOM     28  O   UNL     1       7.414   5.454  15.567  0.00  0.00    +0.000 OA
ENDBRANCH  23  24
ENDBRANCH   4  23
TORSDOF 5
ENDMDL
MODEL 6
REMARK VINA RESULT:      -9.0      1.193      2.073
REMARK  Name = 
REMARK  6 active torsions:
REMARK  status: ('A' for Active; 'I' for Inactive)
REMARK    1  A    between atoms: C_1  and  S_2
REMARK    2  A    between atoms: S_2  and  C_5
REMARK    3  A    between atoms: C_8  and  C_9
REMARK    4  A    between atoms: N_12  and  C_13
REMARK    5  A    between atoms: C_13  and  C_14
REMARK    6  A    between atoms: C_20  and  C_21
REMARK                            x       y       z     vdW  Elec       q    Type
REMARK                         _______ _______ _______ _____ _____    ______ ____
ROOT
ATOM      1  C   UNL     1       2.887   5.981  19.328  0.00  0.00    +0.000 A 
ATOM      2  N   UNL     1       4.061   5.769  18.697  0.00  0.00    +0.000 NA
ATOM      3  C   UNL     1       4.595   4.541  18.790  0.00  0.00    +0.000 A 
ATOM      4  N   UNL     1       5.715   4.201  18.052  0.00  0.00    +0.000 N 
ATOM      5  C   UNL     1       3.978   3.540  19.501  0.00  0.00    +0.000 A 
ATOM      6  C   UNL     1       2.763   3.818  20.100  0.00  0.00    +0.000 A 
ATOM      7  N   UNL     1       2.205   5.051  20.022  0.00  0.00    +0.000 NA
ATOM      8  H   UNL     1       6.445   3.697  18.540  0.00  0.00    +0.000 HD
ENDROOT
BRANCH   1  12
ATOM      9  C   UNL     1       1.215   9.931  19.061  0.00  0.00    +0.000 A 
ATOM     10  C   UNL     1       1.836   9.368  17.948  0.00  0.00    +0.000 A 
ATOM     11  C   UNL     1       2.356   8.071  18.031  0.00  0.00    +0.000 A 
ATOM     12  C   UNL     1       2.293   7.329  19.227  0.00  0.00    +0.000 A 
ATOM     13  C   UNL     1       1.659   7.928  20.332  0.00  0.00    +0.000 A 
ATOM     14  C   UNL     1       1.124   9.219  20.259  0.00  0.00    +0.000 A 
BRANCH   9  16
ATOM     15  C   UNL     1       0.382  12.044  20.690  0.00  0.00    +0.000 C 
ATOM     16  S   UNL     1       0.601  11.598  18.984  0.00  0.00    +0.000 S 
ATOM     17  O   UNL     1      -0.707  11.554  18.355  0.00  0.00    +0.000 OA
ATOM     18  O   UNL     1       1.660  12.426  18.439  0.00  0.00    +0.000 OA
ENDBRANCH   9  16
ENDBRANCH   1  12
BRANCH   6  19
ATOM     19  C   UNL     1       2.019   2.715  20.831  0.00  0.00    +0.000 C 
ATOM     20  F   UNL     1       0.790   3.106  21.289  0.00  0.00    +0.000 F 
ATOM     21  F   UNL     1       1.781   1.622  20.051  0.00  0.00    +0.000 F 
ATOM     22  F   UNL     1       2.683   2.256  21.931  0.00  0.00    +0.000 F 
ENDBRANCH   6  19
BRANCH   4  23
ATOM     23  C   UNL     1       6.188   5.043  16.967  0.00  0.00    +0.000 C 
BRANCH  23  24
ATOM     24  C   UNL     1       7.022   6.166  17.497  0.00  0.00    +0.000 A 
ATOM     25  C   UNL     1       7.827   6.303  18.610  0.00  0.00    +0.000 A 
ATOM     26  C   UNL     1       8.297   7.639  18.602  0.00  0.00    +0.000 A 
ATOM     27  C   UNL     1       7.745   8.233  17.492  0.00  0.00    +0.000 A 
ATOM     28  O   UNL     1       6.966   7.349  16.815  0.00  0.00    +0.000 OA
ENDBRANCH  23  24
ENDBRANCH   4  23
TORSDOF 5
ENDMDL
MODEL 7
REMARK VINA RESULT:      -8.9      3.261      4.961
REMARK  Name = 
REMARK  6 active torsions:
REMARK  status: ('A' for Active; 'I' for Inactive)
REMARK    1  A    between atoms: C_1  and  S_2
REMARK    2  A    between atoms: S_2  and  C_5
REMARK    3  A    between atoms: C_8  and  C_9
REMARK    4  A    between atoms: N_12  and  C_13
REMARK    5  A    between atoms: C_13  and  C_14
REMARK    6  A    between atoms: C_20  and  C_21
REMARK                            x       y       z     vdW  Elec       q    Type
REMARK                         _______ _______ _______ _____ _____    ______ ____
ROOT
ATOM      1  C   UNL     1       3.419   6.206  17.962  0.00  0.00    +0.000 A 
ATOM      2  N   UNL     1       2.782   5.023  17.825  0.00  0.00    +0.000 NA
ATOM      3  C   UNL     1       3.496   3.991  17.351  0.00  0.00    +0.000 A 
ATOM      4  N   UNL     1       2.960   2.716  17.323  0.00  0.00    +0.000 N 
ATOM      5  C   UNL     1       4.821   4.128  17.014  0.00  0.00    +0.000 A 
ATOM      6  C   UNL     1       5.419   5.360  17.204  0.00  0.00    +0.000 A 
ATOM      7  N   UNL     1       4.717   6.418  17.679  0.00  0.00    +0.000 NA
ATOM      8  H   UNL     1       3.102   2.182  16.474  0.00  0.00    +0.000 HD
ENDROOT
BRANCH   1  12
ATOM      9  C   UNL     1       1.206   9.547  19.513  0.00  0.00    +0.000 A 
ATOM     10  C   UNL     1       1.658   9.571  18.195  0.00  0.00    +0.000 A 
ATOM     11  C   UNL     1       2.355   8.469  17.685  0.00  0.00    +0.000 A 
ATOM     12  C   UNL     1       2.639   7.344  18.485  0.00  0.00    +0.000 A 
ATOM     13  C   UNL     1       2.169   7.354  19.812  0.00  0.00    +0.000 A 
ATOM     14  C   UNL     1       1.459   8.444  20.330  0.00  0.00    +0.000 A 
BRANCH   9  16
ATOM     15  C   UNL     1       1.100  12.334  19.325  0.00  0.00    +0.000 C 
ATOM     16  S   UNL     1       0.369  10.963  20.188  0.00  0.00    +0.000 S 
ATOM     17  O   UNL     1       0.737  11.061  21.590  0.00  0.00    +0.000 OA
ATOM     18  O   UNL     1      -1.022  10.875  19.789  0.00  0.00    +0.000 OA
ENDBRANCH   9  16
ENDBRANCH   1  12
BRANCH   6  19
ATOM     19  C   UNL     1       6.900   5.527  16.910  0.00  0.00    +0.000 C 
ATOM     20  F   UNL     1       7.196   5.446  15.576  0.00  0.00    +0.000 F 
ATOM     21  F   UNL     1       7.394   6.730  17.316  0.00  0.00    +0.000 F 
ATOM     22  F   UNL     1       7.677   4.578  17.508  0.00  0.00    +0.000 F 
ENDBRANCH   6  19
BRANCH   4  23
ATOM     23  C   UNL     1       1.738   2.395  18.038  0.00  0.00    +0.000 C 
BRANCH  23  24
ATOM     24  C   UNL     1       1.907   2.636  19.504  0.00  0.00    +0.000 A 
ATOM     25  C   UNL     1       1.137   3.279  20.452  0.00  0.00    +0.000 A 
ATOM     26  C   UNL     1       1.872   3.234  21.662  0.00  0.00    +0.000 A 
ATOM     27  C   UNL     1       3.044   2.575  21.375  0.00  0.00    +0.000 A 
ATOM     28  O   UNL     1       3.078   2.210  20.067  0.00  0.00    +0.000 OA
ENDBRANCH  23  24
ENDBRANCH   4  23
TORSDOF 5
ENDMDL
MODEL 8
REMARK VINA RESULT:      -8.9      1.418      2.210
REMARK  Name = 
REMARK  6 active torsions:
REMARK  status: ('A' for Active; 'I' for Inactive)
REMARK    1  A    between atoms: C_1  and  S_2
REMARK    2  A    between atoms: S_2  and  C_5
REMARK    3  A    between atoms: C_8  and  C_9
REMARK    4  A    between atoms: N_12  and  C_13
REMARK    5  A    between atoms: C_13  and  C_14
REMARK    6  A    between atoms: C_20  and  C_21
REMARK                            x       y       z     vdW  Elec       q    Type
REMARK                         _______ _______ _______ _____ _____    ______ ____
ROOT
ATOM      1  C   UNL     1       2.848   5.994  19.449  0.00  0.00    +0.000 A 
ATOM      2  N   UNL     1       4.002   5.802  18.778  0.00  0.00    +0.000 NA
ATOM      3  C   UNL     1       4.542   4.574  18.820  0.00  0.00    +0.000 A 
ATOM      4  N   UNL     1       5.639   4.258  18.039  0.00  0.00    +0.000 N 
ATOM      5  C   UNL     1       3.947   3.551  19.520  0.00  0.00    +0.000 A 
ATOM      6  C   UNL     1       2.751   3.810  20.162  0.00  0.00    +0.000 A 
ATOM      7  N   UNL     1       2.189   5.043  20.136  0.00  0.00    +0.000 NA
ATOM      8  H   UNL     1       6.384   3.741  18.490  0.00  0.00    +0.000 HD
ENDROOT
BRANCH   1  12
ATOM      9  C   UNL     1       1.046   9.893  19.292  0.00  0.00    +0.000 A 
ATOM     10  C   UNL     1       0.988   9.153  20.472  0.00  0.00    +0.000 A 
ATOM     11  C   UNL     1       1.600   7.895  20.527  0.00  0.00    +0.000 A 
ATOM     12  C   UNL     1       2.249   7.342  19.405  0.00  0.00    +0.000 A 
ATOM     13  C   UNL     1       2.287   8.116  18.229  0.00  0.00    +0.000 A 
ATOM     14  C   UNL     1       1.691   9.381  18.164  0.00  0.00    +0.000 A 
BRANCH   9  16
ATOM     15  C   UNL     1      -1.220  11.127  18.218  0.00  0.00    +0.000 C 
ATOM     16  S   UNL     1       0.226  11.466  19.193  0.00  0.00    +0.000 S 
ATOM     17  O   UNL     1       1.084  12.361  18.436  0.00  0.00    +0.000 OA
ATOM     18  O   UNL     1      -0.211  11.814  20.532  0.00  0.00    +0.000 OA
ENDBRANCH   9  16
ENDBRANCH   1  12
BRANCH   6  19
ATOM     19  C   UNL     1       2.031   2.684  20.884  0.00  0.00    +0.000 C 
ATOM     20  F   UNL     1       2.747   2.172  21.933  0.00  0.00    +0.000 F 
ATOM     21  F   UNL     1       0.836   3.067  21.417  0.00  0.00    +0.000 F 
ATOM     22  F   UNL     1       1.761   1.616  20.080  0.00  0.00    +0.000 F 
ENDBRANCH   6  19
BRANCH   4  23
ATOM     23  C   UNL     1       6.078   5.131  16.964  0.00  0.00    +0.000 C 
BRANCH  23  24
ATOM     24  C   UNL     1       6.959   6.217  17.496  0.00  0.00    +0.000 A 
ATOM     25  C   UNL     1       7.805   6.302  18.583  0.00  0.00    +0.000 A 
ATOM     26  C   UNL     1       8.310   7.625  18.594  0.00  0.00    +0.000 A 
ATOM     27  C   UNL     1       7.737   8.264  17.521  0.00  0.00    +0.000 A 
ATOM     28  O   UNL     1       6.912   7.420  16.848  0.00  0.00    +0.000 OA
ENDBRANCH  23  24
ENDBRANCH   4  23
TORSDOF 5
ENDMDL
MODEL 9
REMARK VINA RESULT:      -8.9      3.318      4.869
REMARK  Name = 
REMARK  6 active torsions:
REMARK  status: ('A' for Active; 'I' for Inactive)
REMARK    1  A    between atoms: C_1  and  S_2
REMARK    2  A    between atoms: S_2  and  C_5
REMARK    3  A    between atoms: C_8  and  C_9
REMARK    4  A    between atoms: N_12  and  C_13
REMARK    5  A    between atoms: C_13  and  C_14
REMARK    6  A    between atoms: C_20  and  C_21
REMARK                            x       y       z     vdW  Elec       q    Type
REMARK                         _______ _______ _______ _____ _____    ______ ____
ROOT
ATOM      1  C   UNL     1       3.618   6.219  18.114  0.00  0.00    +0.000 A 
ATOM      2  N   UNL     1       3.015   5.031  17.899  0.00  0.00    +0.000 NA
ATOM      3  C   UNL     1       3.797   3.998  17.551  0.00  0.00    +0.000 A 
ATOM      4  N   UNL     1       3.277   2.719  17.459  0.00  0.00    +0.000 N 
ATOM      5  C   UNL     1       5.157   4.140  17.414  0.00  0.00    +0.000 A 
ATOM      6  C   UNL     1       5.713   5.378  17.677  0.00  0.00    +0.000 A 
ATOM      7  N   UNL     1       4.943   6.437  18.027  0.00  0.00    +0.000 NA
ATOM      8  H   UNL     1       3.548   2.176  16.648  0.00  0.00    +0.000 HD
ENDROOT
BRANCH   1  12
ATOM      9  C   UNL     1       1.074   9.505  19.208  0.00  0.00    +0.000 A 
ATOM     10  C   UNL     1       1.329   8.493  20.132  0.00  0.00    +0.000 A 
ATOM     11  C   UNL     1       2.180   7.438  19.781  0.00  0.00    +0.000 A 
ATOM     12  C   UNL     1       2.763   7.358  18.500  0.00  0.00    +0.000 A 
ATOM     13  C   UNL     1       2.483   8.398  17.592  0.00  0.00    +0.000 A 
ATOM     14  C   UNL     1       1.645   9.465  17.935  0.00  0.00    +0.000 A 
BRANCH   9  16
ATOM     15  C   UNL     1      -1.410  10.578  18.509  0.00  0.00    +0.000 C 
ATOM     16  S   UNL     1      -0.048  10.820  19.624  0.00  0.00    +0.000 S 
ATOM     17  O   UNL     1       0.601  12.074  19.282  0.00  0.00    +0.000 OA
ATOM     18  O   UNL     1      -0.525  10.575  20.971  0.00  0.00    +0.000 OA
ENDBRANCH   9  16
ENDBRANCH   1  12
BRANCH   6  19
ATOM     19  C   UNL     1       7.220   5.551  17.606  0.00  0.00    +0.000 C 
ATOM     20  F   UNL     1       7.873   4.420  17.196  0.00  0.00    +0.000 F 
ATOM     21  F   UNL     1       7.608   6.526  16.735  0.00  0.00    +0.000 F 
ATOM     22  F   UNL     1       7.782   5.873  18.807  0.00  0.00    +0.000 F 
ENDBRANCH   6  19
BRANCH   4  23
ATOM     23  C   UNL     1       1.963   2.398  17.986  0.00  0.00    +0.000 C 
BRANCH  23  24
ATOM     24  C   UNL     1       1.926   2.605  19.467  0.00  0.00    +0.000 A 
ATOM     25  C   UNL     1       1.000   3.168  20.322  0.00  0.00    +0.000 A 
ATOM     26  C   UNL     1       1.574   3.132  21.615  0.00  0.00    +0.000 A 
ATOM     27  C   UNL     1       2.814   2.556  21.469  0.00  0.00    +0.000 A 
ATOM     28  O   UNL     1       3.041   2.235  20.168  0.00  0.00    +0.000 OA
ENDBRANCH  23  24
ENDBRANCH   4  23
TORSDOF 5
ENDMDL
