MODEL 1
REMARK VINA RESULT:      -7.1      0.000      0.000
REMARK  Name = 
REMARK  2 active torsions:
REMARK  status: ('A' for Active; 'I' for Inactive)
REMARK    1  A    between atoms: C_4  and  O_5
REMARK    2  A    between atoms: C_13  and  N_14
REMARK                            x       y       z     vdW  Elec       q    Type
REMARK                         _______ _______ _______ _____ _____    ______ ____
ROOT
ATOM      1  N   UNL     1       0.333   2.878  20.503  0.00  0.00    +0.000 N 
ATOM      2  C   UNL     1       1.363   3.206  19.649  0.00  0.00    +0.000 A 
ATOM      3  N   UNL     1       1.423   2.574  18.486  0.00  0.00    +0.000 NA
ATOM      4  C   UNL     1       2.426   2.953  17.680  0.00  0.00    +0.000 A 
ATOM      5  C   UNL     1       3.405   3.922  17.945  0.00  0.00    +0.000 A 
ATOM      6  C   UNL     1       3.228   4.464  19.220  0.00  0.00    +0.000 A 
ATOM      7  C   UNL     1       4.114   5.423  19.660  0.00  0.00    +0.000 A 
ATOM      8  C   UNL     1       5.170   5.872  18.868  0.00  0.00    +0.000 A 
ATOM      9  C   UNL     1       5.393   5.377  17.568  0.00  0.00    +0.000 A 
ATOM     10  C   UNL     1       6.465   5.825  16.730  0.00  0.00    +0.000 A 
ATOM     11 BR   UNL     1       7.699   7.166  17.353  0.00  0.00    +0.000 Br
ATOM     12  C   UNL     1       6.652   5.340  15.421  0.00  0.00    +0.000 A 
ATOM     13  C   UNL     1       5.785   4.339  14.982  0.00  0.00    +0.000 A 
ATOM     14 BR   UNL     1       5.972   3.568  13.251  0.00  0.00    +0.000 Br
ATOM     15  C   UNL     1       4.733   3.889  15.786  0.00  0.00    +0.000 A 
ATOM     16  C   UNL     1       4.499   4.382  17.091  0.00  0.00    +0.000 A 
ATOM     17  N   UNL     1       2.242   4.116  20.058  0.00  0.00    +0.000 NA
ATOM     18  H   UNL     1      -0.016   1.951  20.310  0.00  0.00    +0.000 HD
ATOM     19  H   UNL     1       0.582   3.097  21.458  0.00  0.00    +0.000 HD
ENDROOT
BRANCH  12  20
ATOM     20  N   UNL     1       7.799   5.676  14.668  0.00  0.00    +0.000 N 
ATOM     21  H   UNL     1       8.648   5.729  15.224  0.00  0.00    +0.000 HD
ATOM     22  H   UNL     1       7.663   6.479  14.059  0.00  0.00    +0.000 HD
ENDBRANCH  12  20
BRANCH   4  23
ATOM     23  O   UNL     1       2.391   2.252  16.517  0.00  0.00    +0.000 OA
ATOM     24  H   UNL     1       2.383   2.984  15.874  0.00  0.00    +0.000 HD
ENDBRANCH   4  23
TORSDOF 2
ENDMDL
MODEL 2
REMARK VINA RESULT:      -6.8      3.555      5.860
REMARK  Name = 
REMARK  2 active torsions:
REMARK  status: ('A' for Active; 'I' for Inactive)
REMARK    1  A    between atoms: C_4  and  O_5
REMARK    2  A    between atoms: C_13  and  N_14
REMARK                            x       y       z     vdW  Elec       q    Type
REMARK                         _______ _______ _______ _____ _____    ______ ____
ROOT
ATOM      1  N   UNL     1       6.981   3.638  13.573  0.00  0.00    +0.000 N 
ATOM      2  C   UNL     1       6.227   4.210  14.575  0.00  0.00    +0.000 A 
ATOM      3  N   UNL     1       5.937   5.498  14.470  0.00  0.00    +0.000 NA
ATOM      4  C   UNL     1       5.176   5.996  15.455  0.00  0.00    +0.000 A 
ATOM      5  C   UNL     1       4.677   5.307  16.570  0.00  0.00    +0.000 A 
ATOM      6  C   UNL     1       5.103   3.977  16.557  0.00  0.00    +0.000 A 
ATOM      7  C   UNL     1       4.723   3.150  17.591  0.00  0.00    +0.000 A 
ATOM      8  C   UNL     1       3.922   3.599  18.640  0.00  0.00    +0.000 A 
ATOM      9  C   UNL     1       3.447   4.924  18.704  0.00  0.00    +0.000 A 
ATOM     10  C   UNL     1       2.616   5.411  19.764  0.00  0.00    +0.000 A 
ATOM     11 BR   UNL     1       2.089   4.249  21.206  0.00  0.00    +0.000 Br
ATOM     12  C   UNL     1       2.125   6.731  19.793  0.00  0.00    +0.000 A 
ATOM     13  C   UNL     1       2.539   7.587  18.771  0.00  0.00    +0.000 A 
ATOM     14 BR   UNL     1       1.985   9.408  18.733  0.00  0.00    +0.000 Br
ATOM     15  C   UNL     1       3.350   7.130  17.728  0.00  0.00    +0.000 A 
ATOM     16  C   UNL     1       3.829   5.800  17.653  0.00  0.00    +0.000 A 
ATOM     17  N   UNL     1       5.863   3.437  15.594  0.00  0.00    +0.000 NA
ATOM     18  H   UNL     1       7.529   4.336  13.092  0.00  0.00    +0.000 HD
ATOM     19  H   UNL     1       7.461   2.818  13.915  0.00  0.00    +0.000 HD
ENDROOT
BRANCH  12  20
ATOM     20  N   UNL     1       1.440   7.237  20.919  0.00  0.00    +0.000 N 
ATOM     21  H   UNL     1       1.017   6.515  21.495  0.00  0.00    +0.000 HD
ATOM     22  H   UNL     1       0.806   8.001  20.697  0.00  0.00    +0.000 HD
ENDBRANCH  12  20
BRANCH   4  23
ATOM     23  O   UNL     1       4.932   7.316  15.245  0.00  0.00    +0.000 OA
ATOM     24  H   UNL     1       4.153   7.257  14.662  0.00  0.00    +0.000 HD
ENDBRANCH   4  23
TORSDOF 2
ENDMDL
MODEL 3
REMARK VINA RESULT:      -6.8      4.376      5.714
REMARK  Name = 
REMARK  2 active torsions:
REMARK  status: ('A' for Active; 'I' for Inactive)
REMARK    1  A    between atoms: C_4  and  O_5
REMARK    2  A    between atoms: C_13  and  N_14
REMARK                            x       y       z     vdW  Elec       q    Type
REMARK                         _______ _______ _______ _____ _____    ______ ____
ROOT
ATOM      1  N   UNL     1       0.882  11.523  18.605  0.00  0.00    +0.000 N 
ATOM      2  C   UNL     1       1.335  10.233  18.781  0.00  0.00    +0.000 A 
ATOM      3  N   UNL     1       0.921   9.576  19.854  0.00  0.00    +0.000 NA
ATOM      4  C   UNL     1       1.367   8.316  19.960  0.00  0.00    +0.000 A 
ATOM      5  C   UNL     1       2.220   7.642  19.073  0.00  0.00    +0.000 A 
ATOM      6  C   UNL     1       2.597   8.480  18.021  0.00  0.00    +0.000 A 
ATOM      7  C   UNL     1       3.453   7.990  17.059  0.00  0.00    +0.000 A 
ATOM      8  C   UNL     1       3.943   6.685  17.102  0.00  0.00    +0.000 A 
ATOM      9  C   UNL     1       3.589   5.786  18.127  0.00  0.00    +0.000 A 
ATOM     10  C   UNL     1       4.071   4.439  18.191  0.00  0.00    +0.000 A 
ATOM     11 BR   UNL     1       5.267   3.762  16.843  0.00  0.00    +0.000 Br
ATOM     12  C   UNL     1       3.679   3.545  19.208  0.00  0.00    +0.000 A 
ATOM     13  C   UNL     1       2.845   4.045  20.209  0.00  0.00    +0.000 A 
ATOM     14 BR   UNL     1       2.292   2.948  21.663  0.00  0.00    +0.000 Br
ATOM     15  C   UNL     1       2.365   5.358  20.163  0.00  0.00    +0.000 A 
ATOM     16  C   UNL     1       2.712   6.267  19.136  0.00  0.00    +0.000 A 
ATOM     17  N   UNL     1       2.177   9.744  17.875  0.00  0.00    +0.000 NA
ATOM     18  H   UNL     1       0.607  11.932  19.486  0.00  0.00    +0.000 HD
ATOM     19  H   UNL     1       1.521  12.046  18.024  0.00  0.00    +0.000 HD
ENDROOT
BRANCH  12  20
ATOM     20  N   UNL     1       4.282   2.275  19.344  0.00  0.00    +0.000 N 
ATOM     21  H   UNL     1       4.920   2.046  18.588  0.00  0.00    +0.000 HD
ATOM     22  H   UNL     1       3.618   1.534  19.553  0.00  0.00    +0.000 HD
ENDBRANCH  12  20
BRANCH   4  23
ATOM     23  O   UNL     1       0.878   7.732  21.086  0.00  0.00    +0.000 OA
ATOM     24  H   UNL     1       0.403   8.487  21.479  0.00  0.00    +0.000 HD
ENDBRANCH   4  23
TORSDOF 2
ENDMDL
MODEL 4
REMARK VINA RESULT:      -6.7      4.265      5.367
REMARK  Name = 
REMARK  2 active torsions:
REMARK  status: ('A' for Active; 'I' for Inactive)
REMARK    1  A    between atoms: C_4  and  O_5
REMARK    2  A    between atoms: C_13  and  N_14
REMARK                            x       y       z     vdW  Elec       q    Type
REMARK                         _______ _______ _______ _____ _____    ______ ____
ROOT
ATOM      1  N   UNL     1       0.748  11.482  19.084  0.00  0.00    +0.000 N 
ATOM      2  C   UNL     1       1.245  10.201  18.975  0.00  0.00    +0.000 A 
ATOM      3  N   UNL     1       1.948   9.902  17.892  0.00  0.00    +0.000 NA
ATOM      4  C   UNL     1       2.433   8.653  17.852  0.00  0.00    +0.000 A 
ATOM      5  C   UNL     1       2.266   7.648  18.815  0.00  0.00    +0.000 A 
ATOM      6  C   UNL     1       1.472   8.105  19.870  0.00  0.00    +0.000 A 
ATOM      7  C   UNL     1       1.184   7.242  20.904  0.00  0.00    +0.000 A 
ATOM      8  C   UNL     1       1.668   5.935  20.931  0.00  0.00    +0.000 A 
ATOM      9  C   UNL     1       2.486   5.418  19.907  0.00  0.00    +0.000 A 
ATOM     10  C   UNL     1       3.003   4.082  19.913  0.00  0.00    +0.000 A 
ATOM     11 BR   UNL     1       2.596   2.882  21.362  0.00  0.00    +0.000 Br
ATOM     12  C   UNL     1       3.845   3.595  18.894  0.00  0.00    +0.000 A 
ATOM     13  C   UNL     1       4.109   4.449  17.822  0.00  0.00    +0.000 A 
ATOM     14 BR   UNL     1       5.190   3.884  16.360  0.00  0.00    +0.000 Br
ATOM     15  C   UNL     1       3.612   5.756  17.799  0.00  0.00    +0.000 A 
ATOM     16  C   UNL     1       2.793   6.285  18.825  0.00  0.00    +0.000 A 
ATOM     17  N   UNL     1       0.966   9.343  19.952  0.00  0.00    +0.000 NA
ATOM     18  H   UNL     1       0.654  11.911  18.175  0.00  0.00    +0.000 HD
ATOM     19  H   UNL     1      -0.055  11.499  19.696  0.00  0.00    +0.000 HD
ENDROOT
BRANCH  12  20
ATOM     20  N   UNL     1       4.219   2.234  18.835  0.00  0.00    +0.000 N 
ATOM     21  H   UNL     1       3.794   1.665  19.562  0.00  0.00    +0.000 HD
ATOM     22  H   UNL     1       5.222   2.094  18.745  0.00  0.00    +0.000 HD
ENDBRANCH  12  20
BRANCH   4  23
ATOM     23  O   UNL     1       3.142   8.456  16.709  0.00  0.00    +0.000 OA
ATOM     24  H   UNL     1       2.833   7.564  16.466  0.00  0.00    +0.000 HD
ENDBRANCH   4  23
TORSDOF 2
ENDMDL
MODEL 5
REMARK VINA RESULT:      -6.7      4.049      4.794
REMARK  Name = 
REMARK  2 active torsions:
REMARK  status: ('A' for Active; 'I' for Inactive)
REMARK    1  A    between atoms: C_4  and  O_5
REMARK    2  A    between atoms: C_13  and  N_14
REMARK                            x       y       z     vdW  Elec       q    Type
REMARK                         _______ _______ _______ _____ _____    ______ ____
ROOT
ATOM      1  N   UNL     1      -0.150  10.522  20.970  0.00  0.00    +0.000 N 
ATOM      2  C   UNL     1       0.615   9.557  20.351  0.00  0.00    +0.000 A 
ATOM      3  N   UNL     1       1.166   9.862  19.186  0.00  0.00    +0.000 NA
ATOM      4  C   UNL     1       1.925   8.900  18.642  0.00  0.00    +0.000 A 
ATOM      5  C   UNL     1       2.178   7.623  19.166  0.00  0.00    +0.000 A 
ATOM      6  C   UNL     1       1.496   7.444  20.372  0.00  0.00    +0.000 A 
ATOM      7  C   UNL     1       1.613   6.236  21.024  0.00  0.00    +0.000 A 
ATOM      8  C   UNL     1       2.396   5.197  20.521  0.00  0.00    +0.000 A 
ATOM      9  C   UNL     1       3.120   5.321  19.319  0.00  0.00    +0.000 A 
ATOM     10  C   UNL     1       3.938   4.274  18.783  0.00  0.00    +0.000 A 
ATOM     11 BR   UNL     1       4.095   2.589  19.701  0.00  0.00    +0.000 Br
ATOM     12  C   UNL     1       4.680   4.429  17.596  0.00  0.00    +0.000 A 
ATOM     13  C   UNL     1       4.535   5.635  16.907  0.00  0.00    +0.000 A 
ATOM     14 BR   UNL     1       5.446   5.940  15.263  0.00  0.00    +0.000 Br
ATOM     15  C   UNL     1       3.741   6.668  17.415  0.00  0.00    +0.000 A 
ATOM     16  C   UNL     1       3.013   6.554  18.623  0.00  0.00    +0.000 A 
ATOM     17  N   UNL     1       0.728   8.376  20.952  0.00  0.00    +0.000 NA
ATOM     18  H   UNL     1      -0.503  11.188  20.299  0.00  0.00    +0.000 HD
ATOM     19  H   UNL     1      -0.812  10.096  21.603  0.00  0.00    +0.000 HD
ENDROOT
BRANCH  12  20
ATOM     20  N   UNL     1       5.355   3.341  17.002  0.00  0.00    +0.000 N 
ATOM     21  H   UNL     1       5.802   2.725  17.674  0.00  0.00    +0.000 HD
ATOM     22  H   UNL     1       5.963   3.612  16.234  0.00  0.00    +0.000 HD
ENDBRANCH  12  20
BRANCH   4  23
ATOM     23  O   UNL     1       2.447   9.318  17.459  0.00  0.00    +0.000 OA
ATOM     24  H   UNL     1       3.399   9.253  17.658  0.00  0.00    +0.000 HD
ENDBRANCH   4  23
TORSDOF 2
ENDMDL
MODEL 6
REMARK VINA RESULT:      -6.6      2.765      5.668
REMARK  Name = 
REMARK  2 active torsions:
REMARK  status: ('A' for Active; 'I' for Inactive)
REMARK    1  A    between atoms: C_4  and  O_5
REMARK    2  A    between atoms: C_13  and  N_14
REMARK                            x       y       z     vdW  Elec       q    Type
REMARK                         _______ _______ _______ _____ _____    ______ ____
ROOT
ATOM      1  N   UNL     1       7.919   5.288  13.611  0.00  0.00    +0.000 N 
ATOM      2  C   UNL     1       6.941   5.131  14.570  0.00  0.00    +0.000 A 
ATOM      3  N   UNL     1       6.566   3.897  14.871  0.00  0.00    +0.000 NA
ATOM      4  C   UNL     1       5.634   3.800  15.830  0.00  0.00    +0.000 A 
ATOM      5  C   UNL     1       5.020   4.853  16.524  0.00  0.00    +0.000 A 
ATOM      6  C   UNL     1       5.492   6.085  16.065  0.00  0.00    +0.000 A 
ATOM      7  C   UNL     1       4.984   7.238  16.622  0.00  0.00    +0.000 A 
ATOM      8  C   UNL     1       4.024   7.209  17.633  0.00  0.00    +0.000 A 
ATOM      9  C   UNL     1       3.519   5.999  18.150  0.00  0.00    +0.000 A 
ATOM     10  C   UNL     1       2.539   5.940  19.193  0.00  0.00    +0.000 A 
ATOM     11 BR   UNL     1       1.833   7.555  19.967  0.00  0.00    +0.000 Br
ATOM     12  C   UNL     1       2.070   4.719  19.719  0.00  0.00    +0.000 A 
ATOM     13  C   UNL     1       2.549   3.547  19.132  0.00  0.00    +0.000 A 
ATOM     14 BR   UNL     1       1.949   1.839  19.722  0.00  0.00    +0.000 Br
ATOM     15  C   UNL     1       3.506   3.586  18.114  0.00  0.00    +0.000 A 
ATOM     16  C   UNL     1       4.021   4.795  17.589  0.00  0.00    +0.000 A 
ATOM     17  N   UNL     1       6.421   6.230  15.110  0.00  0.00    +0.000 NA
ATOM     18  H   UNL     1       7.955   4.487  12.998  0.00  0.00    +0.000 HD
ATOM     19  H   UNL     1       7.855   6.203  13.187  0.00  0.00    +0.000 HD
ENDROOT
BRANCH  12  20
ATOM     20  N   UNL     1       0.995   4.676  20.634  0.00  0.00    +0.000 N 
ATOM     21  H   UNL     1       1.253   4.954  21.576  0.00  0.00    +0.000 HD
ATOM     22  H   UNL     1       0.468   3.807  20.598  0.00  0.00    +0.000 HD
ENDBRANCH  12  20
BRANCH   4  23
ATOM     23  O   UNL     1       5.330   2.497  16.067  0.00  0.00    +0.000 OA
ATOM     24  H   UNL     1       4.508   2.602  16.580  0.00  0.00    +0.000 HD
ENDBRANCH   4  23
TORSDOF 2
ENDMDL
MODEL 7
REMARK VINA RESULT:      -6.5      5.294      6.314
REMARK  Name = 
REMARK  2 active torsions:
REMARK  status: ('A' for Active; 'I' for Inactive)
REMARK    1  A    between atoms: C_4  and  O_5
REMARK    2  A    between atoms: C_13  and  N_14
REMARK                            x       y       z     vdW  Elec       q    Type
REMARK                         _______ _______ _______ _____ _____    ______ ____
ROOT
ATOM      1  N   UNL     1      -0.579  12.725  20.264  0.00  0.00    +0.000 N 
ATOM      2  C   UNL     1       0.097  11.575  19.919  0.00  0.00    +0.000 A 
ATOM      3  N   UNL     1       0.820  11.594  18.808  0.00  0.00    +0.000 NA
ATOM      4  C   UNL     1       1.481  10.460  18.536  0.00  0.00    +0.000 A 
ATOM      5  C   UNL     1       1.474   9.274  19.287  0.00  0.00    +0.000 A 
ATOM      6  C   UNL     1       0.637   9.401  20.398  0.00  0.00    +0.000 A 
ATOM      7  C   UNL     1       0.492   8.324  21.243  0.00  0.00    +0.000 A 
ATOM      8  C   UNL     1       1.161   7.119  21.026  0.00  0.00    +0.000 A 
ATOM      9  C   UNL     1       2.030   6.933  19.933  0.00  0.00    +0.000 A 
ATOM     10  C   UNL     1       2.735   5.710  19.690  0.00  0.00    +0.000 A 
ATOM     11 BR   UNL     1       2.527   4.207  20.876  0.00  0.00    +0.000 Br
ATOM     12  C   UNL     1       3.625   5.554  18.609  0.00  0.00    +0.000 A 
ATOM     13  C   UNL     1       3.747   6.627  17.725  0.00  0.00    +0.000 A 
ATOM     14 BR   UNL     1       4.878   6.515  16.197  0.00  0.00    +0.000 Br
ATOM     15  C   UNL     1       3.066   7.828  17.946  0.00  0.00    +0.000 A 
ATOM     16  C   UNL     1       2.194   8.026  19.042  0.00  0.00    +0.000 A 
ATOM     17  N   UNL     1      -0.042  10.514  20.709  0.00  0.00    +0.000 NA
ATOM     18  H   UNL     1      -0.746  13.302  19.452  0.00  0.00    +0.000 HD
ATOM     19  H   UNL     1      -1.367  12.508  20.857  0.00  0.00    +0.000 HD
ENDROOT
BRANCH  12  20
ATOM     20  N   UNL     1       4.191   4.299  18.296  0.00  0.00    +0.000 N 
ATOM     21  H   UNL     1       3.507   3.607  18.004  0.00  0.00    +0.000 HD
ATOM     22  H   UNL     1       4.836   3.958  19.004  0.00  0.00    +0.000 HD
ENDBRANCH  12  20
BRANCH   4  23
ATOM     23  O   UNL     1       2.194  10.590  17.387  0.00  0.00    +0.000 OA
ATOM     24  H   UNL     1       1.606  11.184  16.885  0.00  0.00    +0.000 HD
ENDBRANCH   4  23
TORSDOF 2
ENDMDL
MODEL 8
REMARK VINA RESULT:      -6.5      4.993      6.788
REMARK  Name = 
REMARK  2 active torsions:
REMARK  status: ('A' for Active; 'I' for Inactive)
REMARK    1  A    between atoms: C_4  and  O_5
REMARK    2  A    between atoms: C_13  and  N_14
REMARK                            x       y       z     vdW  Elec       q    Type
REMARK                         _______ _______ _______ _____ _____    ______ ____
ROOT
ATOM      1  N   UNL     1       4.462   3.368  17.999  0.00  0.00    +0.000 N 
ATOM      2  C   UNL     1       3.783   4.463  18.487  0.00  0.00    +0.000 A 
ATOM      3  N   UNL     1       3.259   4.372  19.700  0.00  0.00    +0.000 NA
ATOM      4  C   UNL     1       2.636   5.475  20.139  0.00  0.00    +0.000 A 
ATOM      5  C   UNL     1       2.476   6.687  19.451  0.00  0.00    +0.000 A 
ATOM      6  C   UNL     1       3.046   6.609  18.178  0.00  0.00    +0.000 A 
ATOM      7  C   UNL     1       2.967   7.706  17.349  0.00  0.00    +0.000 A 
ATOM      8  C   UNL     1       2.346   8.890  17.747  0.00  0.00    +0.000 A 
ATOM      9  C   UNL     1       1.766   9.038  19.023  0.00  0.00    +0.000 A 
ATOM     10  C   UNL     1       1.129  10.243  19.460  0.00  0.00    +0.000 A 
ATOM     11 BR   UNL     1       1.022  11.773  18.296  0.00  0.00    +0.000 Br
ATOM     12  C   UNL     1       0.583  10.382  20.752  0.00  0.00    +0.000 A 
ATOM     13  C   UNL     1       0.622   9.262  21.583  0.00  0.00    +0.000 A 
ATOM     14 BR   UNL     1      -0.131   9.312  23.332  0.00  0.00    +0.000 Br
ATOM     15  C   UNL     1       1.240   8.077  21.173  0.00  0.00    +0.000 A 
ATOM     16  C   UNL     1       1.828   7.919  19.896  0.00  0.00    +0.000 A 
ATOM     17  N   UNL     1       3.677   5.529  17.699  0.00  0.00    +0.000 NA
ATOM     18  H   UNL     1       4.156   2.521  18.454  0.00  0.00    +0.000 HD
ATOM     19  H   UNL     1       4.474   3.380  16.988  0.00  0.00    +0.000 HD
ENDROOT
BRANCH  12  20
ATOM     20  N   UNL     1      -0.176  11.517  21.113  0.00  0.00    +0.000 N 
ATOM     21  H   UNL     1      -0.913  11.317  21.783  0.00  0.00    +0.000 HD
ATOM     22  H   UNL     1      -0.491  12.063  20.315  0.00  0.00    +0.000 HD
ENDBRANCH  12  20
BRANCH   4  23
ATOM     23  O   UNL     1       2.145   5.278  21.390  0.00  0.00    +0.000 OA
ATOM     24  H   UNL     1       1.466   4.603  21.205  0.00  0.00    +0.000 HD
ENDBRANCH   4  23
TORSDOF 2
ENDMDL
MODEL 9
REMARK VINA RESULT:      -6.4      5.213      6.419
REMARK  Name = 
REMARK  2 active torsions:
REMARK  status: ('A' for Active; 'I' for Inactive)
REMARK    1  A    between atoms: C_4  and  O_5
REMARK    2  A    between atoms: C_13  and  N_14
REMARK                            x       y       z     vdW  Elec       q    Type
REMARK                         _______ _______ _______ _____ _____    ______ ____
ROOT
ATOM      1  N   UNL     1      -0.937  12.304  20.219  0.00  0.00    +0.000 N 
ATOM      2  C   UNL     1      -0.254  11.110  20.127  0.00  0.00    +0.000 A 
ATOM      3  N   UNL     1      -0.468  10.204  21.069  0.00  0.00    +0.000 NA
ATOM      4  C   UNL     1       0.198   9.050  20.915  0.00  0.00    +0.000 A 
ATOM      5  C   UNL     1       1.089   8.718  19.884  0.00  0.00    +0.000 A 
ATOM      6  C   UNL     1       1.237   9.788  18.998  0.00  0.00    +0.000 A 
ATOM      7  C   UNL     1       2.093   9.649  17.929  0.00  0.00    +0.000 A 
ATOM      8  C   UNL     1       2.805   8.471  17.701  0.00  0.00    +0.000 A 
ATOM      9  C   UNL     1       2.689   7.351  18.548  0.00  0.00    +0.000 A 
ATOM     10  C   UNL     1       3.402   6.128  18.335  0.00  0.00    +0.000 A 
ATOM     11 BR   UNL     1       4.597   5.940  16.837  0.00  0.00    +0.000 Br
ATOM     12  C   UNL     1       3.247   5.007  19.175  0.00  0.00    +0.000 A 
ATOM     13  C   UNL     1       2.413   5.154  20.284  0.00  0.00    +0.000 A 
ATOM     14 BR   UNL     1       2.167   3.728  21.522  0.00  0.00    +0.000 Br
ATOM     15  C   UNL     1       1.709   6.341  20.509  0.00  0.00    +0.000 A 
ATOM     16  C   UNL     1       1.817   7.470  19.663  0.00  0.00    +0.000 A 
ATOM     17  N   UNL     1       0.593  10.958  19.113  0.00  0.00    +0.000 NA
ATOM     18  H   UNL     1      -1.215  12.488  21.172  0.00  0.00    +0.000 HD
ATOM     19  H   UNL     1      -0.443  13.033  19.725  0.00  0.00    +0.000 HD
ENDROOT
BRANCH  12  20
ATOM     20  N   UNL     1       4.070   3.868  19.042  0.00  0.00    +0.000 N 
ATOM     21  H   UNL     1       5.013   4.082  18.730  0.00  0.00    +0.000 HD
ATOM     22  H   UNL     1       3.632   3.111  18.522  0.00  0.00    +0.000 HD
ENDBRANCH  12  20
BRANCH   4  23
ATOM     23  O   UNL     1      -0.099   8.192  21.926  0.00  0.00    +0.000 OA
ATOM     24  H   UNL     1       0.799   7.982  22.243  0.00  0.00    +0.000 HD
ENDBRANCH   4  23
TORSDOF 2
ENDMDL
