MODEL 1
REMARK VINA RESULT:      -4.8      0.000      0.000
REMARK  Name = 
REMARK  0 active torsions:
REMARK  status: ('A' for Active; 'I' for Inactive)
REMARK                            x       y       z     vdW  Elec       q    Type
REMARK                         _______ _______ _______ _____ _____    ______ ____
ROOT
ATOM      1  O   UNL     1       4.882   2.031  20.480  0.00  0.00    +0.000 OA
ATOM      2  C   UNL     1       4.504   2.881  19.680  0.00  0.00    +0.000 A 
ATOM      3  N   UNL     1       5.323   3.297  18.656  0.00  0.00    +0.000 N 
ATOM      4  C   UNL     1       5.004   4.240  17.723  0.00  0.00    +0.000 A 
ATOM      5  S   UNL     1       6.065   4.697  16.531  0.00  0.00    +0.000 S 
ATOM      6  N   UNL     1       3.757   4.792  17.826  0.00  0.00    +0.000 N 
ATOM      7  C   UNL     1       2.865   4.446  18.807  0.00  0.00    +0.000 A 
ATOM      8  C   UNL     1       3.157   3.529  19.741  0.00  0.00    +0.000 A 
ATOM      9  I   UNL     1       1.843   3.015  21.217  0.00  0.00    +0.000 I 
ATOM     10  H   UNL     1       6.236   2.865  18.611  0.00  0.00    +0.000 HD
ATOM     11  H   UNL     1       3.505   5.496  17.138  0.00  0.00    +0.000 HD
ENDROOT
TORSDOF 0
ENDMDL
MODEL 2
REMARK VINA RESULT:      -4.8      1.949      2.412
REMARK  Name = 
REMARK  0 active torsions:
REMARK  status: ('A' for Active; 'I' for Inactive)
REMARK                            x       y       z     vdW  Elec       q    Type
REMARK                         _______ _______ _______ _____ _____    ______ ____
ROOT
ATOM      1  O   UNL     1       2.820   6.277  19.725  0.00  0.00    +0.000 OA
ATOM      2  C   UNL     1       3.605   5.357  19.517  0.00  0.00    +0.000 A 
ATOM      3  N   UNL     1       4.841   5.597  18.964  0.00  0.00    +0.000 N 
ATOM      4  C   UNL     1       5.779   4.647  18.683  0.00  0.00    +0.000 A 
ATOM      5  S   UNL     1       7.241   5.027  17.994  0.00  0.00    +0.000 S 
ATOM      6  N   UNL     1       5.447   3.360  19.000  0.00  0.00    +0.000 N 
ATOM      7  C   UNL     1       4.243   3.014  19.557  0.00  0.00    +0.000 A 
ATOM      8  C   UNL     1       3.300   3.927  19.833  0.00  0.00    +0.000 A 
ATOM      9  I   UNL     1       1.497   3.423  20.649  0.00  0.00    +0.000 I 
ATOM     10  H   UNL     1       5.051   6.562  18.745  0.00  0.00    +0.000 HD
ATOM     11  H   UNL     1       6.135   2.641  18.798  0.00  0.00    +0.000 HD
ENDROOT
TORSDOF 0
ENDMDL
MODEL 3
REMARK VINA RESULT:      -4.8      1.296      1.296
REMARK  Name = 
REMARK  0 active torsions:
REMARK  status: ('A' for Active; 'I' for Inactive)
REMARK                            x       y       z     vdW  Elec       q    Type
REMARK                         _______ _______ _______ _____ _____    ______ ____
ROOT
ATOM      1  O   UNL     1       4.293   1.760  19.719  0.00  0.00    +0.000 OA
ATOM      2  C   UNL     1       4.390   2.975  19.568  0.00  0.00    +0.000 A 
ATOM      3  N   UNL     1       5.554   3.535  19.099  0.00  0.00    +0.000 N 
ATOM      4  C   UNL     1       5.767   4.869  18.907  0.00  0.00    +0.000 A 
ATOM      5  S   UNL     1       7.216   5.461  18.353  0.00  0.00    +0.000 S 
ATOM      6  N   UNL     1       4.718   5.695  19.198  0.00  0.00    +0.000 N 
ATOM      7  C   UNL     1       3.515   5.238  19.669  0.00  0.00    +0.000 A 
ATOM      8  C   UNL     1       3.283   3.933  19.876  0.00  0.00    +0.000 A 
ATOM      9  I   UNL     1       1.500   3.240  20.591  0.00  0.00    +0.000 I 
ATOM     10  H   UNL     1       6.307   2.893  18.892  0.00  0.00    +0.000 HD
ATOM     11  H   UNL     1       4.861   6.692  19.059  0.00  0.00    +0.000 HD
ENDROOT
TORSDOF 0
ENDMDL
MODEL 4
REMARK VINA RESULT:      -4.7      5.295      5.802
REMARK  Name = 
REMARK  0 active torsions:
REMARK  status: ('A' for Active; 'I' for Inactive)
REMARK                            x       y       z     vdW  Elec       q    Type
REMARK                         _______ _______ _______ _____ _____    ______ ____
ROOT
ATOM      1  O   UNL     1       7.932   5.663  13.542  0.00  0.00    +0.000 OA
ATOM      2  C   UNL     1       7.336   5.120  14.467  0.00  0.00    +0.000 A 
ATOM      3  N   UNL     1       7.567   5.495  15.770  0.00  0.00    +0.000 N 
ATOM      4  C   UNL     1       6.967   4.948  16.867  0.00  0.00    +0.000 A 
ATOM      5  S   UNL     1       7.322   5.451  18.409  0.00  0.00    +0.000 S 
ATOM      6  N   UNL     1       6.055   3.959  16.626  0.00  0.00    +0.000 N 
ATOM      7  C   UNL     1       5.751   3.515  15.365  0.00  0.00    +0.000 A 
ATOM      8  C   UNL     1       6.333   4.028  14.272  0.00  0.00    +0.000 A 
ATOM      9  I   UNL     1       5.900   3.363  12.390  0.00  0.00    +0.000 I 
ATOM     10  H   UNL     1       8.246   6.231  15.909  0.00  0.00    +0.000 HD
ATOM     11  H   UNL     1       5.599   3.543  17.433  0.00  0.00    +0.000 HD
ENDROOT
TORSDOF 0
ENDMDL
MODEL 5
REMARK VINA RESULT:      -4.7      1.284      1.294
REMARK  Name = 
REMARK  0 active torsions:
REMARK  status: ('A' for Active; 'I' for Inactive)
REMARK                            x       y       z     vdW  Elec       q    Type
REMARK                         _______ _______ _______ _____ _____    ______ ____
ROOT
ATOM      1  O   UNL     1       4.208   2.274  20.369  0.00  0.00    +0.000 OA
ATOM      2  C   UNL     1       4.325   3.007  19.392  0.00  0.00    +0.000 A 
ATOM      3  N   UNL     1       5.549   3.527  19.045  0.00  0.00    +0.000 N 
ATOM      4  C   UNL     1       5.783   4.358  17.988  0.00  0.00    +0.000 A 
ATOM      5  S   UNL     1       7.295   4.956  17.653  0.00  0.00    +0.000 S 
ATOM      6  N   UNL     1       4.700   4.673  17.217  0.00  0.00    +0.000 N 
ATOM      7  C   UNL     1       3.438   4.205  17.475  0.00  0.00    +0.000 A 
ATOM      8  C   UNL     1       3.179   3.396  18.513  0.00  0.00    +0.000 A 
ATOM      9  I   UNL     1       1.300   2.705  18.918  0.00  0.00    +0.000 I 
ATOM     10  H   UNL     1       6.328   3.271  19.637  0.00  0.00    +0.000 HD
ATOM     11  H   UNL     1       4.858   5.290  16.425  0.00  0.00    +0.000 HD
ENDROOT
TORSDOF 0
ENDMDL
MODEL 6
REMARK VINA RESULT:      -4.7      1.804      2.295
REMARK  Name = 
REMARK  0 active torsions:
REMARK  status: ('A' for Active; 'I' for Inactive)
REMARK                            x       y       z     vdW  Elec       q    Type
REMARK                         _______ _______ _______ _____ _____    ______ ____
ROOT
ATOM      1  O   UNL     1       1.187   3.543  17.757  0.00  0.00    +0.000 OA
ATOM      2  C   UNL     1       2.389   3.545  18.007  0.00  0.00    +0.000 A 
ATOM      3  N   UNL     1       3.314   3.761  17.012  0.00  0.00    +0.000 N 
ATOM      4  C   UNL     1       4.668   3.772  17.182  0.00  0.00    +0.000 A 
ATOM      5  S   UNL     1       5.713   4.023  15.917  0.00  0.00    +0.000 S 
ATOM      6  N   UNL     1       5.118   3.562  18.455  0.00  0.00    +0.000 N 
ATOM      7  C   UNL     1       4.280   3.340  19.517  0.00  0.00    +0.000 A 
ATOM      8  C   UNL     1       2.947   3.315  19.376  0.00  0.00    +0.000 A 
ATOM      9  I   UNL     1       1.688   2.969  20.946  0.00  0.00    +0.000 I 
ATOM     10  H   UNL     1       2.943   3.915  16.084  0.00  0.00    +0.000 HD
ATOM     11  H   UNL     1       6.124   3.568  18.597  0.00  0.00    +0.000 HD
ENDROOT
TORSDOF 0
ENDMDL
MODEL 7
REMARK VINA RESULT:      -4.6      1.612      1.612
REMARK  Name = 
REMARK  0 active torsions:
REMARK  status: ('A' for Active; 'I' for Inactive)
REMARK                            x       y       z     vdW  Elec       q    Type
REMARK                         _______ _______ _______ _____ _____    ______ ____
ROOT
ATOM      1  O   UNL     1       3.279   1.992  18.058  0.00  0.00    +0.000 OA
ATOM      2  C   UNL     1       3.819   3.039  18.403  0.00  0.00    +0.000 A 
ATOM      3  N   UNL     1       5.074   3.366  17.947  0.00  0.00    +0.000 N 
ATOM      4  C   UNL     1       5.765   4.496  18.278  0.00  0.00    +0.000 A 
ATOM      5  S   UNL     1       7.288   4.801  17.695  0.00  0.00    +0.000 S 
ATOM      6  N   UNL     1       5.130   5.365  19.121  0.00  0.00    +0.000 N 
ATOM      7  C   UNL     1       3.878   5.134  19.629  0.00  0.00    +0.000 A 
ATOM      8  C   UNL     1       3.183   4.028  19.328  0.00  0.00    +0.000 A 
ATOM      9  I   UNL     1       1.324   3.665  20.090  0.00  0.00    +0.000 I 
ATOM     10  H   UNL     1       5.510   2.700  17.324  0.00  0.00    +0.000 HD
ATOM     11  H   UNL     1       5.631   6.211  19.376  0.00  0.00    +0.000 HD
ENDROOT
TORSDOF 0
ENDMDL
MODEL 8
REMARK VINA RESULT:      -4.5      3.431      3.763
REMARK  Name = 
REMARK  0 active torsions:
REMARK  status: ('A' for Active; 'I' for Inactive)
REMARK                            x       y       z     vdW  Elec       q    Type
REMARK                         _______ _______ _______ _____ _____    ______ ____
ROOT
ATOM      1  O   UNL     1       6.825   5.048  19.868  0.00  0.00    +0.000 OA
ATOM      2  C   UNL     1       6.058   4.766  18.952  0.00  0.00    +0.000 A 
ATOM      3  N   UNL     1       5.212   3.687  19.050  0.00  0.00    +0.000 N 
ATOM      4  C   UNL     1       4.332   3.283  18.088  0.00  0.00    +0.000 A 
ATOM      5  S   UNL     1       3.360   1.952  18.285  0.00  0.00    +0.000 S 
ATOM      6  N   UNL     1       4.297   4.037  16.949  0.00  0.00    +0.000 N 
ATOM      7  C   UNL     1       5.096   5.133  16.753  0.00  0.00    +0.000 A 
ATOM      8  C   UNL     1       5.975   5.545  17.677  0.00  0.00    +0.000 A 
ATOM      9  I   UNL     1       7.183   7.167  17.391  0.00  0.00    +0.000 I 
ATOM     10  H   UNL     1       5.265   3.155  19.908  0.00  0.00    +0.000 HD
ATOM     11  H   UNL     1       3.646   3.749  16.224  0.00  0.00    +0.000 HD
ENDROOT
TORSDOF 0
ENDMDL
MODEL 9
REMARK VINA RESULT:      -4.4      1.425      1.432
REMARK  Name = 
REMARK  0 active torsions:
REMARK  status: ('A' for Active; 'I' for Inactive)
REMARK                            x       y       z     vdW  Elec       q    Type
REMARK                         _______ _______ _______ _____ _____    ______ ____
ROOT
ATOM      1  O   UNL     1       3.364   1.403  18.621  0.00  0.00    +0.000 OA
ATOM      2  C   UNL     1       3.565   2.543  18.212  0.00  0.00    +0.000 A 
ATOM      3  N   UNL     1       4.559   2.797  17.298  0.00  0.00    +0.000 N 
ATOM      4  C   UNL     1       4.870   4.025  16.790  0.00  0.00    +0.000 A 
ATOM      5  S   UNL     1       6.104   4.243  15.701  0.00  0.00    +0.000 S 
ATOM      6  N   UNL     1       4.107   5.070  17.229  0.00  0.00    +0.000 N 
ATOM      7  C   UNL     1       3.091   4.923  18.137  0.00  0.00    +0.000 A 
ATOM      8  C   UNL     1       2.771   3.730  18.659  0.00  0.00    +0.000 A 
ATOM      9  I   UNL     1       1.270   3.501  20.024  0.00  0.00    +0.000 I 
ATOM     10  H   UNL     1       5.101   1.999  16.994  0.00  0.00    +0.000 HD
ATOM     11  H   UNL     1       4.326   5.991  16.860  0.00  0.00    +0.000 HD
ENDROOT
TORSDOF 0
ENDMDL
