MODEL 1
REMARK VINA RESULT:      -8.5      0.000      0.000
REMARK  Name = 
REMARK  7 active torsions:
REMARK  status: ('A' for Active; 'I' for Inactive)
REMARK    1  A    between atoms: C_1  and  C_2
REMARK    2  A    between atoms: C_5  and  O_6
REMARK    3  A    between atoms: O_6  and  C_7
REMARK    4  A    between atoms: C_7  and  C_8
REMARK    5  A    between atoms: C_20  and  C_21
REMARK    6  A    between atoms: N_23  and  C_24
REMARK    7  A    between atoms: C_29  and  C_30
REMARK                            x       y       z     vdW  Elec       q    Type
REMARK                         _______ _______ _______ _____ _____    ______ ____
ROOT
ATOM      1  C   UNL     1       3.350   4.874  19.636  0.00  0.00    +0.000 A 
ATOM      2  C   UNL     1       3.093   3.611  20.134  0.00  0.00    +0.000 A 
ATOM      3  C   UNL     1       1.966   3.769  20.948  0.00  0.00    +0.000 A 
ATOM      4  N   UNL     1       1.528   5.026  20.974  0.00  0.00    +0.000 NA
ATOM      5  N   UNL     1       2.326   5.687  20.082  0.00  0.00    +0.000 N 
ATOM      6  C   UNL     1       2.035   7.008  19.759  0.00  0.00    +0.000 A 
ATOM      7  N   UNL     1       2.541   7.650  18.732  0.00  0.00    +0.000 NA
ATOM      8  N   UNL     1       2.082   8.953  18.690  0.00  0.00    +0.000 NA
ATOM      9  C   UNL     1       1.337   9.274  19.734  0.00  0.00    +0.000 A 
ATOM     10  N   UNL     1       0.806  10.511  19.981  0.00  0.00    +0.000 N 
ATOM     11  C   UNL     1       0.840  11.016  21.358  0.00  0.00    +0.000 C 
ATOM     12  C   UNL     1      -0.305  12.010  21.535  0.00  0.00    +0.000 C 
ATOM     13  C   UNL     1      -0.205  13.151  20.516  0.00  0.00    +0.000 C 
ATOM     14  C   UNL     1      -0.104  12.580  19.090  0.00  0.00    +0.000 C 
ATOM     15  C   UNL     1       1.009  11.536  18.959  0.00  0.00    +0.000 C 
ATOM     16  S   UNL     1       1.008   7.913  20.755  0.00  0.00    +0.000 S 
ENDROOT
BRANCH  13  17
ATOM     17  C   UNL     1       0.960  14.074  20.874  0.00  0.00    +0.000 C 
ATOM     18  O   UNL     1       1.498  14.079  21.976  0.00  0.00    +0.000 OA
ATOM     19  N   UNL     1       1.322  14.929  19.862  0.00  0.00    +0.000 N 
ATOM     20  H   UNL     1       0.668  15.041  19.100  0.00  0.00    +0.000 HD
BRANCH  19  21
ATOM     21  C   UNL     1       2.391  15.916  20.004  0.00  0.00    +0.000 C 
ATOM     22  C   UNL     1       3.666  15.489  19.251  0.00  0.00    +0.000 C 
ATOM     23  C   UNL     1       3.456  15.446  17.738  0.00  0.00    +0.000 C 
ATOM     24  C   UNL     1       2.917  16.770  17.203  0.00  0.00    +0.000 C 
ATOM     25  C   UNL     1       1.685  17.256  17.966  0.00  0.00    +0.000 C 
ATOM     26  C   UNL     1       1.941  17.299  19.483  0.00  0.00    +0.000 C 
ATOM     27  C   UNL     1       0.728  17.845  20.239  0.00  0.00    +0.000 C 
ENDBRANCH  19  21
ENDBRANCH  13  17
BRANCH   1  28
ATOM     28  C   UNL     1       4.524   5.382  18.882  0.00  0.00    +0.000 C 
BRANCH  28  29
ATOM     29  O   UNL     1       5.335   4.262  18.532  0.00  0.00    +0.000 OA
BRANCH  29  34
ATOM     30  C   UNL     1       7.196   4.728  13.255  0.00  0.00    +0.000 C 
ATOM     31  C   UNL     1       6.658   4.584  14.639  0.00  0.00    +0.000 A 
ATOM     32  C   UNL     1       5.314   4.311  14.900  0.00  0.00    +0.000 A 
ATOM     33  C   UNL     1       4.872   4.194  16.215  0.00  0.00    +0.000 A 
ATOM     34  C   UNL     1       5.787   4.383  17.231  0.00  0.00    +0.000 A 
ATOM     35  N   UNL     1       7.100   4.634  17.019  0.00  0.00    +0.000 NA
ATOM     36  C   UNL     1       7.499   4.731  15.736  0.00  0.00    +0.000 A 
ENDBRANCH  29  34
ENDBRANCH  28  29
ENDBRANCH   1  28
TORSDOF 5
ENDMDL
MODEL 2
REMARK VINA RESULT:      -8.4      1.355      1.843
REMARK  Name = 
REMARK  7 active torsions:
REMARK  status: ('A' for Active; 'I' for Inactive)
REMARK    1  A    between atoms: C_1  and  C_2
REMARK    2  A    between atoms: C_5  and  O_6
REMARK    3  A    between atoms: O_6  and  C_7
REMARK    4  A    between atoms: C_7  and  C_8
REMARK    5  A    between atoms: C_20  and  C_21
REMARK    6  A    between atoms: N_23  and  C_24
REMARK    7  A    between atoms: C_29  and  C_30
REMARK                            x       y       z     vdW  Elec       q    Type
REMARK                         _______ _______ _______ _____ _____    ______ ____
ROOT
ATOM      1  C   UNL     1       4.194   5.284  18.762  0.00  0.00    +0.000 A 
ATOM      2  C   UNL     1       4.347   3.995  19.235  0.00  0.00    +0.000 A 
ATOM      3  C   UNL     1       3.410   3.879  20.267  0.00  0.00    +0.000 A 
ATOM      4  N   UNL     1       2.707   4.995  20.446  0.00  0.00    +0.000 NA
ATOM      5  N   UNL     1       3.126   5.829  19.448  0.00  0.00    +0.000 N 
ATOM      6  C   UNL     1       2.476   7.044  19.259  0.00  0.00    +0.000 A 
ATOM      7  N   UNL     1       2.594   7.790  18.185  0.00  0.00    +0.000 NA
ATOM      8  N   UNL     1       1.846   8.946  18.305  0.00  0.00    +0.000 NA
ATOM      9  C   UNL     1       1.282   9.079  19.493  0.00  0.00    +0.000 A 
ATOM     10  N   UNL     1       0.541  10.153  19.906  0.00  0.00    +0.000 N 
ATOM     11  C   UNL     1       0.744  10.648  21.272  0.00  0.00    +0.000 C 
ATOM     12  C   UNL     1      -0.538  11.341  21.728  0.00  0.00    +0.000 C 
ATOM     13  C   UNL     1      -0.920  12.476  20.770  0.00  0.00    +0.000 C 
ATOM     14  C   UNL     1      -0.989  11.949  19.325  0.00  0.00    +0.000 C 
ATOM     15  C   UNL     1       0.283  11.200  18.919  0.00  0.00    +0.000 C 
ATOM     16  S   UNL     1       1.498   7.676  20.487  0.00  0.00    +0.000 S 
ENDROOT
BRANCH  13  17
ATOM     17  C   UNL     1       0.047  13.649  20.933  0.00  0.00    +0.000 C 
ATOM     18  O   UNL     1       1.019  13.619  21.681  0.00  0.00    +0.000 OA
ATOM     19  N   UNL     1      -0.296  14.757  20.198  0.00  0.00    +0.000 N 
ATOM     20  H   UNL     1      -1.235  14.789  19.827  0.00  0.00    +0.000 HD
BRANCH  19  21
ATOM     21  C   UNL     1       0.475  15.998  20.231  0.00  0.00    +0.000 C 
ATOM     22  C   UNL     1       0.799  16.508  18.813  0.00  0.00    +0.000 C 
ATOM     23  C   UNL     1      -0.458  16.921  18.048  0.00  0.00    +0.000 C 
ATOM     24  C   UNL     1      -1.286  17.941  18.825  0.00  0.00    +0.000 C 
ATOM     25  C   UNL     1      -1.576  17.495  20.258  0.00  0.00    +0.000 C 
ATOM     26  C   UNL     1      -0.285  17.103  20.998  0.00  0.00    +0.000 C 
ATOM     27  C   UNL     1      -0.571  16.717  22.452  0.00  0.00    +0.000 C 
ENDBRANCH  19  21
ENDBRANCH  13  17
BRANCH   1  28
ATOM     28  C   UNL     1       5.035   6.058  17.813  0.00  0.00    +0.000 C 
BRANCH  28  29
ATOM     29  O   UNL     1       6.236   5.320  17.594  0.00  0.00    +0.000 OA
BRANCH  29  34
ATOM     30  C   UNL     1       6.718   3.878  12.188  0.00  0.00    +0.000 C 
ATOM     31  C   UNL     1       6.558   4.221  13.631  0.00  0.00    +0.000 A 
ATOM     32  C   UNL     1       5.570   3.652  14.437  0.00  0.00    +0.000 A 
ATOM     33  C   UNL     1       5.469   4.018  15.775  0.00  0.00    +0.000 A 
ATOM     34  C   UNL     1       6.346   4.967  16.261  0.00  0.00    +0.000 A 
ATOM     35  N   UNL     1       7.326   5.531  15.517  0.00  0.00    +0.000 NA
ATOM     36  C   UNL     1       7.405   5.148  14.229  0.00  0.00    +0.000 A 
ENDBRANCH  29  34
ENDBRANCH  28  29
ENDBRANCH   1  28
TORSDOF 5
ENDMDL
MODEL 3
REMARK VINA RESULT:      -8.2      1.393      1.703
REMARK  Name = 
REMARK  7 active torsions:
REMARK  status: ('A' for Active; 'I' for Inactive)
REMARK    1  A    between atoms: C_1  and  C_2
REMARK    2  A    between atoms: C_5  and  O_6
REMARK    3  A    between atoms: O_6  and  C_7
REMARK    4  A    between atoms: C_7  and  C_8
REMARK    5  A    between atoms: C_20  and  C_21
REMARK    6  A    between atoms: N_23  and  C_24
REMARK    7  A    between atoms: C_29  and  C_30
REMARK                            x       y       z     vdW  Elec       q    Type
REMARK                         _______ _______ _______ _____ _____    ______ ____
ROOT
ATOM      1  C   UNL     1       4.142   5.573  18.429  0.00  0.00    +0.000 A 
ATOM      2  C   UNL     1       4.397   4.251  18.738  0.00  0.00    +0.000 A 
ATOM      3  C   UNL     1       3.544   3.962  19.808  0.00  0.00    +0.000 A 
ATOM      4  N   UNL     1       2.796   5.005  20.160  0.00  0.00    +0.000 NA
ATOM      5  N   UNL     1       3.097   5.971  19.240  0.00  0.00    +0.000 N 
ATOM      6  C   UNL     1       2.370   7.156  19.236  0.00  0.00    +0.000 A 
ATOM      7  N   UNL     1       2.371   8.024  18.251  0.00  0.00    +0.000 NA
ATOM      8  N   UNL     1       1.572   9.111  18.552  0.00  0.00    +0.000 NA
ATOM      9  C   UNL     1       1.087   9.074  19.782  0.00  0.00    +0.000 A 
ATOM     10  N   UNL     1       0.321  10.048  20.364  0.00  0.00    +0.000 N 
ATOM     11  C   UNL     1       0.593  10.398  21.762  0.00  0.00    +0.000 C 
ATOM     12  C   UNL     1      -0.689  10.955  22.377  0.00  0.00    +0.000 C 
ATOM     13  C   UNL     1      -1.199  12.163  21.584  0.00  0.00    +0.000 C 
ATOM     14  C   UNL     1      -1.342  11.798  20.095  0.00  0.00    +0.000 C 
ATOM     15  C   UNL     1      -0.063  11.181  19.523  0.00  0.00    +0.000 C 
ATOM     16  S   UNL     1       1.449   7.585  20.590  0.00  0.00    +0.000 S 
ENDROOT
BRANCH  13  17
ATOM     17  C   UNL     1      -0.288  13.368  21.819  0.00  0.00    +0.000 C 
ATOM     18  O   UNL     1      -0.052  13.824  22.934  0.00  0.00    +0.000 OA
ATOM     19  N   UNL     1       0.210  13.922  20.666  0.00  0.00    +0.000 N 
ATOM     20  H   UNL     1      -0.238  13.658  19.799  0.00  0.00    +0.000 HD
BRANCH  19  21
ATOM     21  C   UNL     1       1.077  15.100  20.662  0.00  0.00    +0.000 C 
ATOM     22  C   UNL     1       2.479  14.779  21.214  0.00  0.00    +0.000 C 
ATOM     23  C   UNL     1       3.243  13.805  20.318  0.00  0.00    +0.000 C 
ATOM     24  C   UNL     1       3.319  14.301  18.876  0.00  0.00    +0.000 C 
ATOM     25  C   UNL     1       1.950  14.686  18.314  0.00  0.00    +0.000 C 
ATOM     26  C   UNL     1       1.220  15.678  19.237  0.00  0.00    +0.000 C 
ATOM     27  C   UNL     1      -0.122  16.110  18.641  0.00  0.00    +0.000 C 
ENDBRANCH  19  21
ENDBRANCH  13  17
BRANCH   1  28
ATOM     28  C   UNL     1       4.870   6.499  17.524  0.00  0.00    +0.000 C 
BRANCH  28  29
ATOM     29  O   UNL     1       6.178   5.969  17.319  0.00  0.00    +0.000 OA
BRANCH  29  34
ATOM     30  C   UNL     1       6.614   3.686  12.207  0.00  0.00    +0.000 C 
ATOM     31  C   UNL     1       6.456   4.264  13.574  0.00  0.00    +0.000 A 
ATOM     32  C   UNL     1       5.294   4.103  14.330  0.00  0.00    +0.000 A 
ATOM     33  C   UNL     1       5.206   4.672  15.597  0.00  0.00    +0.000 A 
ATOM     34  C   UNL     1       6.278   5.411  16.057  0.00  0.00    +0.000 A 
ATOM     35  N   UNL     1       7.426   5.577  15.361  0.00  0.00    +0.000 NA
ATOM     36  C   UNL     1       7.485   5.006  14.143  0.00  0.00    +0.000 A 
ENDBRANCH  29  34
ENDBRANCH  28  29
ENDBRANCH   1  28
TORSDOF 5
ENDMDL
MODEL 4
REMARK VINA RESULT:      -8.2      1.184      1.473
REMARK  Name = 
REMARK  7 active torsions:
REMARK  status: ('A' for Active; 'I' for Inactive)
REMARK    1  A    between atoms: C_1  and  C_2
REMARK    2  A    between atoms: C_5  and  O_6
REMARK    3  A    between atoms: O_6  and  C_7
REMARK    4  A    between atoms: C_7  and  C_8
REMARK    5  A    between atoms: C_20  and  C_21
REMARK    6  A    between atoms: N_23  and  C_24
REMARK    7  A    between atoms: C_29  and  C_30
REMARK                            x       y       z     vdW  Elec       q    Type
REMARK                         _______ _______ _______ _____ _____    ______ ____
ROOT
ATOM      1  C   UNL     1       3.649   5.722  18.235  0.00  0.00    +0.000 A 
ATOM      2  C   UNL     1       3.573   4.435  18.734  0.00  0.00    +0.000 A 
ATOM      3  C   UNL     1       2.621   4.502  19.756  0.00  0.00    +0.000 A 
ATOM      4  N   UNL     1       2.118   5.726  19.905  0.00  0.00    +0.000 NA
ATOM      5  N   UNL     1       2.683   6.456  18.897  0.00  0.00    +0.000 N 
ATOM      6  C   UNL     1       2.253   7.759  18.677  0.00  0.00    +0.000 A 
ATOM      7  N   UNL     1       2.507   8.453  17.592  0.00  0.00    +0.000 NA
ATOM      8  N   UNL     1       1.967   9.722  17.681  0.00  0.00    +0.000 NA
ATOM      9  C   UNL     1       1.422   9.973  18.859  0.00  0.00    +0.000 A 
ATOM     10  N   UNL     1       0.873  11.167  19.243  0.00  0.00    +0.000 N 
ATOM     11  C   UNL     1       1.144  11.647  20.602  0.00  0.00    +0.000 C 
ATOM     12  C   UNL     1      -0.004  12.558  21.028  0.00  0.00    +0.000 C 
ATOM     13  C   UNL     1      -0.176  13.722  20.045  0.00  0.00    +0.000 C 
ATOM     14  C   UNL     1      -0.321  13.185  18.610  0.00  0.00    +0.000 C 
ATOM     15  C   UNL     1       0.808  12.222  18.233  0.00  0.00    +0.000 C 
ATOM     16  S   UNL     1       1.385   8.575  19.881  0.00  0.00    +0.000 S 
ENDROOT
BRANCH  13  17
ATOM     17  C   UNL     1       0.976  14.715  20.199  0.00  0.00    +0.000 C 
ATOM     18  O   UNL     1       1.840  14.613  21.064  0.00  0.00    +0.000 OA
ATOM     19  N   UNL     1       0.932  15.758  19.307  0.00  0.00    +0.000 N 
ATOM     20  H   UNL     1       0.061  15.907  18.818  0.00  0.00    +0.000 HD
BRANCH  19  21
ATOM     21  C   UNL     1       1.920  16.836  19.300  0.00  0.00    +0.000 C 
ATOM     22  C   UNL     1       2.653  16.931  17.948  0.00  0.00    +0.000 C 
ATOM     23  C   UNL     1       1.715  17.336  16.811  0.00  0.00    +0.000 C 
ATOM     24  C   UNL     1       0.969  18.630  17.125  0.00  0.00    +0.000 C 
ATOM     25  C   UNL     1       0.278  18.594  18.488  0.00  0.00    +0.000 C 
ATOM     26  C   UNL     1       1.257  18.197  19.607  0.00  0.00    +0.000 C 
ATOM     27  C   UNL     1       0.578  18.224  20.978  0.00  0.00    +0.000 C 
ENDBRANCH  19  21
ENDBRANCH  13  17
BRANCH   1  28
ATOM     28  C   UNL     1       4.618   6.321  17.283  0.00  0.00    +0.000 C 
BRANCH  28  29
ATOM     29  O   UNL     1       5.787   5.503  17.279  0.00  0.00    +0.000 OA
BRANCH  29  34
ATOM     30  C   UNL     1       7.066   3.895  12.053  0.00  0.00    +0.000 C 
ATOM     31  C   UNL     1       6.690   4.285  13.444  0.00  0.00    +0.000 A 
ATOM     32  C   UNL     1       5.534   3.818  14.071  0.00  0.00    +0.000 A 
ATOM     33  C   UNL     1       5.236   4.224  15.369  0.00  0.00    +0.000 A 
ATOM     34  C   UNL     1       6.094   5.110  15.989  0.00  0.00    +0.000 A 
ATOM     35  N   UNL     1       7.231   5.573  15.421  0.00  0.00    +0.000 NA
ATOM     36  C   UNL     1       7.497   5.154  14.169  0.00  0.00    +0.000 A 
ENDBRANCH  29  34
ENDBRANCH  28  29
ENDBRANCH   1  28
TORSDOF 5
ENDMDL
MODEL 5
REMARK VINA RESULT:      -7.9      2.201      2.852
REMARK  Name = 
REMARK  7 active torsions:
REMARK  status: ('A' for Active; 'I' for Inactive)
REMARK    1  A    between atoms: C_1  and  C_2
REMARK    2  A    between atoms: C_5  and  O_6
REMARK    3  A    between atoms: O_6  and  C_7
REMARK    4  A    between atoms: C_7  and  C_8
REMARK    5  A    between atoms: C_20  and  C_21
REMARK    6  A    between atoms: N_23  and  C_24
REMARK    7  A    between atoms: C_29  and  C_30
REMARK                            x       y       z     vdW  Elec       q    Type
REMARK                         _______ _______ _______ _____ _____    ______ ____
ROOT
ATOM      1  C   UNL     1       4.149   4.160  18.441  0.00  0.00    +0.000 A 
ATOM      2  C   UNL     1       4.321   2.878  18.928  0.00  0.00    +0.000 A 
ATOM      3  C   UNL     1       3.549   2.831  20.094  0.00  0.00    +0.000 A 
ATOM      4  N   UNL     1       2.926   3.982  20.340  0.00  0.00    +0.000 NA
ATOM      5  N   UNL     1       3.219   4.770  19.262  0.00  0.00    +0.000 N 
ATOM      6  C   UNL     1       2.597   6.006  19.134  0.00  0.00    +0.000 A 
ATOM      7  N   UNL     1       2.578   6.718  18.031  0.00  0.00    +0.000 NA
ATOM      8  N   UNL     1       1.904   7.908  18.223  0.00  0.00    +0.000 NA
ATOM      9  C   UNL     1       1.533   8.097  19.478  0.00  0.00    +0.000 A 
ATOM     10  N   UNL     1       0.907   9.214  19.963  0.00  0.00    +0.000 N 
ATOM     11  C   UNL     1       1.335   9.736  21.265  0.00  0.00    +0.000 C 
ATOM     12  C   UNL     1       0.166  10.497  21.887  0.00  0.00    +0.000 C 
ATOM     13  C   UNL     1      -0.312  11.621  20.960  0.00  0.00    +0.000 C 
ATOM     14  C   UNL     1      -0.622  11.058  19.561  0.00  0.00    +0.000 C 
ATOM     15  C   UNL     1       0.543  10.244  18.992  0.00  0.00    +0.000 C 
ATOM     16  S   UNL     1       1.843   6.714  20.474  0.00  0.00    +0.000 S 
ENDROOT
BRANCH  13  17
ATOM     17  C   UNL     1       0.714  12.754  20.936  0.00  0.00    +0.000 C 
ATOM     18  O   UNL     1       1.894  12.598  21.231  0.00  0.00    +0.000 OA
ATOM     19  N   UNL     1       0.184  13.974  20.594  0.00  0.00    +0.000 N 
ATOM     20  H   UNL     1      -0.821  14.064  20.628  0.00  0.00    +0.000 HD
BRANCH  19  21
ATOM     21  C   UNL     1       0.984  15.197  20.540  0.00  0.00    +0.000 C 
ATOM     22  C   UNL     1       1.127  15.723  19.098  0.00  0.00    +0.000 C 
ATOM     23  C   UNL     1      -0.210  16.177  18.516  0.00  0.00    +0.000 C 
ATOM     24  C   UNL     1      -0.900  17.204  19.410  0.00  0.00    +0.000 C 
ATOM     25  C   UNL     1      -1.006  16.741  20.864  0.00  0.00    +0.000 C 
ATOM     26  C   UNL     1       0.362  16.305  21.418  0.00  0.00    +0.000 C 
ATOM     27  C   UNL     1       0.264  15.902  22.891  0.00  0.00    +0.000 C 
ENDBRANCH  19  21
ENDBRANCH  13  17
BRANCH   1  28
ATOM     28  C   UNL     1       4.864   4.870  17.351  0.00  0.00    +0.000 C 
BRANCH  28  29
ATOM     29  O   UNL     1       6.264   4.687  17.556  0.00  0.00    +0.000 OA
BRANCH  29  34
ATOM     30  C   UNL     1       8.759   9.659  18.319  0.00  0.00    +0.000 C 
ATOM     31  C   UNL     1       8.115   8.322  18.162  0.00  0.00    +0.000 A 
ATOM     32  C   UNL     1       8.438   7.230  18.969  0.00  0.00    +0.000 A 
ATOM     33  C   UNL     1       7.806   6.007  18.769  0.00  0.00    +0.000 A 
ATOM     34  C   UNL     1       6.886   5.907  17.744  0.00  0.00    +0.000 A 
ATOM     35  N   UNL     1       6.536   6.945  16.949  0.00  0.00    +0.000 NA
ATOM     36  C   UNL     1       7.157   8.118  17.175  0.00  0.00    +0.000 A 
ENDBRANCH  29  34
ENDBRANCH  28  29
ENDBRANCH   1  28
TORSDOF 5
ENDMDL
MODEL 6
REMARK VINA RESULT:      -7.9      1.046      1.350
REMARK  Name = 
REMARK  7 active torsions:
REMARK  status: ('A' for Active; 'I' for Inactive)
REMARK    1  A    between atoms: C_1  and  C_2
REMARK    2  A    between atoms: C_5  and  O_6
REMARK    3  A    between atoms: O_6  and  C_7
REMARK    4  A    between atoms: C_7  and  C_8
REMARK    5  A    between atoms: C_20  and  C_21
REMARK    6  A    between atoms: N_23  and  C_24
REMARK    7  A    between atoms: C_29  and  C_30
REMARK                            x       y       z     vdW  Elec       q    Type
REMARK                         _______ _______ _______ _____ _____    ______ ____
ROOT
ATOM      1  C   UNL     1       3.500   5.752  19.153  0.00  0.00    +0.000 A 
ATOM      2  C   UNL     1       3.363   4.489  19.693  0.00  0.00    +0.000 A 
ATOM      3  C   UNL     1       2.300   4.598  20.596  0.00  0.00    +0.000 A 
ATOM      4  N   UNL     1       1.789   5.827  20.635  0.00  0.00    +0.000 NA
ATOM      5  N   UNL     1       2.468   6.513  19.668  0.00  0.00    +0.000 N 
ATOM      6  C   UNL     1       2.071   7.806  19.346  0.00  0.00    +0.000 A 
ATOM      7  N   UNL     1       2.450   8.453  18.268  0.00  0.00    +0.000 NA
ATOM      8  N   UNL     1       1.910   9.725  18.241  0.00  0.00    +0.000 NA
ATOM      9  C   UNL     1       1.235  10.025  19.337  0.00  0.00    +0.000 A 
ATOM     10  N   UNL     1       0.650  11.234  19.605  0.00  0.00    +0.000 N 
ATOM     11  C   UNL     1       0.767  11.772  20.964  0.00  0.00    +0.000 C 
ATOM     12  C   UNL     1      -0.419  12.700  21.218  0.00  0.00    +0.000 C 
ATOM     13  C   UNL     1      -0.473  13.820  20.173  0.00  0.00    +0.000 C 
ATOM     14  C   UNL     1      -0.455  13.222  18.754  0.00  0.00    +0.000 C 
ATOM     15  C   UNL     1       0.705  12.245  18.550  0.00  0.00    +0.000 C 
ATOM     16  S   UNL     1       1.076   8.672  20.406  0.00  0.00    +0.000 S 
ENDROOT
BRANCH  13  17
ATOM     17  C   UNL     1       0.658  14.820  20.415  0.00  0.00    +0.000 C 
ATOM     18  O   UNL     1       1.413  14.758  21.379  0.00  0.00    +0.000 OA
ATOM     19  N   UNL     1       0.724  15.820  19.477  0.00  0.00    +0.000 N 
ATOM     20  H   UNL     1      -0.082  15.946  18.882  0.00  0.00    +0.000 HD
BRANCH  19  21
ATOM     21  C   UNL     1       1.712  16.897  19.536  0.00  0.00    +0.000 C 
ATOM     22  C   UNL     1       2.764  16.770  18.417  0.00  0.00    +0.000 C 
ATOM     23  C   UNL     1       2.154  16.959  17.029  0.00  0.00    +0.000 C 
ATOM     24  C   UNL     1       1.388  18.275  16.919  0.00  0.00    +0.000 C 
ATOM     25  C   UNL     1       0.376  18.463  18.049  0.00  0.00    +0.000 C 
ATOM     26  C   UNL     1       1.031  18.279  19.430  0.00  0.00    +0.000 C 
ATOM     27  C   UNL     1       0.030  18.530  20.560  0.00  0.00    +0.000 C 
ENDBRANCH  19  21
ENDBRANCH  13  17
BRANCH   1  28
ATOM     28  C   UNL     1       4.575   6.311  18.293  0.00  0.00    +0.000 C 
BRANCH  28  29
ATOM     29  O   UNL     1       5.622   5.346  18.221  0.00  0.00    +0.000 OA
BRANCH  29  34
ATOM     30  C   UNL     1       6.382   3.735  12.895  0.00  0.00    +0.000 C 
ATOM     31  C   UNL     1       6.223   4.192  14.307  0.00  0.00    +0.000 A 
ATOM     32  C   UNL     1       7.238   4.847  15.007  0.00  0.00    +0.000 A 
ATOM     33  C   UNL     1       7.030   5.243  16.325  0.00  0.00    +0.000 A 
ATOM     34  C   UNL     1       5.816   4.945  16.912  0.00  0.00    +0.000 A 
ATOM     35  N   UNL     1       4.803   4.325  16.264  0.00  0.00    +0.000 NA
ATOM     36  C   UNL     1       5.031   3.963  14.987  0.00  0.00    +0.000 A 
ENDBRANCH  29  34
ENDBRANCH  28  29
ENDBRANCH   1  28
TORSDOF 5
ENDMDL
MODEL 7
REMARK VINA RESULT:      -7.9      1.722      2.029
REMARK  Name = 
REMARK  7 active torsions:
REMARK  status: ('A' for Active; 'I' for Inactive)
REMARK    1  A    between atoms: C_1  and  C_2
REMARK    2  A    between atoms: C_5  and  O_6
REMARK    3  A    between atoms: O_6  and  C_7
REMARK    4  A    between atoms: C_7  and  C_8
REMARK    5  A    between atoms: C_20  and  C_21
REMARK    6  A    between atoms: N_23  and  C_24
REMARK    7  A    between atoms: C_29  and  C_30
REMARK                            x       y       z     vdW  Elec       q    Type
REMARK                         _______ _______ _______ _____ _____    ______ ____
ROOT
ATOM      1  C   UNL     1       3.373   3.661  19.162  0.00  0.00    +0.000 A 
ATOM      2  C   UNL     1       3.113   2.413  19.695  0.00  0.00    +0.000 A 
ATOM      3  C   UNL     1       2.104   2.630  20.639  0.00  0.00    +0.000 A 
ATOM      4  N   UNL     1       1.738   3.908  20.710  0.00  0.00    +0.000 NA
ATOM      5  N   UNL     1       2.455   4.527  19.725  0.00  0.00    +0.000 N 
ATOM      6  C   UNL     1       2.197   5.862  19.432  0.00  0.00    +0.000 A 
ATOM      7  N   UNL     1       2.608   6.477  18.347  0.00  0.00    +0.000 NA
ATOM      8  N   UNL     1       2.215   7.802  18.354  0.00  0.00    +0.000 NA
ATOM      9  C   UNL     1       1.621   8.161  19.479  0.00  0.00    +0.000 A 
ATOM     10  N   UNL     1       1.189   9.424  19.781  0.00  0.00    +0.000 N 
ATOM     11  C   UNL     1       1.416   9.925  21.141  0.00  0.00    +0.000 C 
ATOM     12  C   UNL     1       0.354  10.979  21.449  0.00  0.00    +0.000 C 
ATOM     13  C   UNL     1       0.390  12.113  20.419  0.00  0.00    +0.000 C 
ATOM     14  C   UNL     1       0.287  11.538  18.995  0.00  0.00    +0.000 C 
ATOM     15  C   UNL     1       1.320  10.438  18.736  0.00  0.00    +0.000 C 
ATOM     16  S   UNL     1       1.347   6.819  20.539  0.00  0.00    +0.000 S 
ENDROOT
BRANCH  13  17
ATOM     17  C   UNL     1       1.636  12.974  20.628  0.00  0.00    +0.000 C 
ATOM     18  O   UNL     1       2.614  12.596  21.266  0.00  0.00    +0.000 OA
ATOM     19  N   UNL     1       1.545  14.226  20.073  0.00  0.00    +0.000 N 
ATOM     20  H   UNL     1       0.625  14.543  19.804  0.00  0.00    +0.000 HD
BRANCH  19  21
ATOM     21  C   UNL     1       2.612  15.220  20.181  0.00  0.00    +0.000 C 
ATOM     22  C   UNL     1       3.817  14.865  19.288  0.00  0.00    +0.000 C 
ATOM     23  C   UNL     1       3.468  14.917  17.802  0.00  0.00    +0.000 C 
ATOM     24  C   UNL     1       2.868  16.264  17.407  0.00  0.00    +0.000 C 
ATOM     25  C   UNL     1       1.706  16.678  18.310  0.00  0.00    +0.000 C 
ATOM     26  C   UNL     1       2.101  16.626  19.797  0.00  0.00    +0.000 C 
ATOM     27  C   UNL     1       0.956  17.101  20.695  0.00  0.00    +0.000 C 
ENDBRANCH  19  21
ENDBRANCH  13  17
BRANCH   1  28
ATOM     28  C   UNL     1       4.473   4.107  18.268  0.00  0.00    +0.000 C 
BRANCH  28  29
ATOM     29  O   UNL     1       5.655   4.223  19.057  0.00  0.00    +0.000 OA
BRANCH  29  34
ATOM     30  C   UNL     1       8.496   8.866  17.674  0.00  0.00    +0.000 C 
ATOM     31  C   UNL     1       7.711   7.639  18.000  0.00  0.00    +0.000 A 
ATOM     32  C   UNL     1       6.497   7.335  17.382  0.00  0.00    +0.000 A 
ATOM     33  C   UNL     1       5.810   6.177  17.734  0.00  0.00    +0.000 A 
ATOM     34  C   UNL     1       6.348   5.372  18.718  0.00  0.00    +0.000 A 
ATOM     35  N   UNL     1       7.528   5.625  19.330  0.00  0.00    +0.000 NA
ATOM     36  C   UNL     1       8.175   6.746  18.960  0.00  0.00    +0.000 A 
ENDBRANCH  29  34
ENDBRANCH  28  29
ENDBRANCH   1  28
TORSDOF 5
ENDMDL
MODEL 8
REMARK VINA RESULT:      -7.9      1.151      1.546
REMARK  Name = 
REMARK  7 active torsions:
REMARK  status: ('A' for Active; 'I' for Inactive)
REMARK    1  A    between atoms: C_1  and  C_2
REMARK    2  A    between atoms: C_5  and  O_6
REMARK    3  A    between atoms: O_6  and  C_7
REMARK    4  A    between atoms: C_7  and  C_8
REMARK    5  A    between atoms: C_20  and  C_21
REMARK    6  A    between atoms: N_23  and  C_24
REMARK    7  A    between atoms: C_29  and  C_30
REMARK                            x       y       z     vdW  Elec       q    Type
REMARK                         _______ _______ _______ _____ _____    ______ ____
ROOT
ATOM      1  C   UNL     1       3.236   6.029  19.136  0.00  0.00    +0.000 A 
ATOM      2  C   UNL     1       3.078   4.762  19.664  0.00  0.00    +0.000 A 
ATOM      3  C   UNL     1       2.043   4.890  20.597  0.00  0.00    +0.000 A 
ATOM      4  N   UNL     1       1.569   6.132  20.665  0.00  0.00    +0.000 NA
ATOM      5  N   UNL     1       2.241   6.812  19.689  0.00  0.00    +0.000 N 
ATOM      6  C   UNL     1       1.873   8.120  19.394  0.00  0.00    +0.000 A 
ATOM      7  N   UNL     1       2.241   8.770  18.314  0.00  0.00    +0.000 NA
ATOM      8  N   UNL     1       1.737  10.056  18.318  0.00  0.00    +0.000 NA
ATOM      9  C   UNL     1       1.101  10.362  19.436  0.00  0.00    +0.000 A 
ATOM     10  N   UNL     1       0.558  11.582  19.735  0.00  0.00    +0.000 N 
ATOM     11  C   UNL     1       0.727  12.099  21.097  0.00  0.00    +0.000 C 
ATOM     12  C   UNL     1      -0.424  13.056  21.395  0.00  0.00    +0.000 C 
ATOM     13  C   UNL     1      -0.474  14.191  20.366  0.00  0.00    +0.000 C 
ATOM     14  C   UNL     1      -0.512  13.613  18.940  0.00  0.00    +0.000 C 
ATOM     15  C   UNL     1       0.614  12.605  18.692  0.00  0.00    +0.000 C 
ATOM     16  S   UNL     1       0.932   8.999  20.492  0.00  0.00    +0.000 S 
ENDROOT
BRANCH  13  17
ATOM     17  C   UNL     1       0.691  15.155  20.589  0.00  0.00    +0.000 C 
ATOM     18  O   UNL     1       1.004  15.585  21.695  0.00  0.00    +0.000 OA
ATOM     19  N   UNL     1       1.330  15.531  19.434  0.00  0.00    +0.000 N 
ATOM     20  H   UNL     1       0.852  15.346  18.564  0.00  0.00    +0.000 HD
BRANCH  19  21
ATOM     21  C   UNL     1       2.451  16.469  19.418  0.00  0.00    +0.000 C 
ATOM     22  C   UNL     1       3.727  15.846  20.017  0.00  0.00    +0.000 C 
ATOM     23  C   UNL     1       4.255  14.688  19.171  0.00  0.00    +0.000 C 
ATOM     24  C   UNL     1       4.474  15.100  17.718  0.00  0.00    +0.000 C 
ATOM     25  C   UNL     1       3.246  15.778  17.108  0.00  0.00    +0.000 C 
ATOM     26  C   UNL     1       2.755  16.946  17.980  0.00  0.00    +0.000 C 
ATOM     27  C   UNL     1       1.566  17.662  17.336  0.00  0.00    +0.000 C 
ENDBRANCH  19  21
ENDBRANCH  13  17
BRANCH   1  28
ATOM     28  C   UNL     1       4.303   6.569  18.255  0.00  0.00    +0.000 C 
BRANCH  28  29
ATOM     29  O   UNL     1       5.395   5.652  18.281  0.00  0.00    +0.000 OA
BRANCH  29  34
ATOM     30  C   UNL     1       6.468   3.797  13.090  0.00  0.00    +0.000 C 
ATOM     31  C   UNL     1       6.228   4.316  14.469  0.00  0.00    +0.000 A 
ATOM     32  C   UNL     1       7.227   4.925  15.230  0.00  0.00    +0.000 A 
ATOM     33  C   UNL     1       6.941   5.383  16.512  0.00  0.00    +0.000 A 
ATOM     34  C   UNL     1       5.666   5.190  17.006  0.00  0.00    +0.000 A 
ATOM     35  N   UNL     1       4.668   4.618  16.295  0.00  0.00    +0.000 NA
ATOM     36  C   UNL     1       4.972   4.195  15.053  0.00  0.00    +0.000 A 
ENDBRANCH  29  34
ENDBRANCH  28  29
ENDBRANCH   1  28
TORSDOF 5
ENDMDL
MODEL 9
REMARK VINA RESULT:      -7.9      1.820      2.396
REMARK  Name = 
REMARK  7 active torsions:
REMARK  status: ('A' for Active; 'I' for Inactive)
REMARK    1  A    between atoms: C_1  and  C_2
REMARK    2  A    between atoms: C_5  and  O_6
REMARK    3  A    between atoms: O_6  and  C_7
REMARK    4  A    between atoms: C_7  and  C_8
REMARK    5  A    between atoms: C_20  and  C_21
REMARK    6  A    between atoms: N_23  and  C_24
REMARK    7  A    between atoms: C_29  and  C_30
REMARK                            x       y       z     vdW  Elec       q    Type
REMARK                         _______ _______ _______ _____ _____    ______ ____
ROOT
ATOM      1  C   UNL     1       3.493   3.644  19.654  0.00  0.00    +0.000 A 
ATOM      2  C   UNL     1       3.419   2.555  20.501  0.00  0.00    +0.000 A 
ATOM      3  C   UNL     1       2.617   2.981  21.564  0.00  0.00    +0.000 A 
ATOM      4  N   UNL     1       2.202   4.238  21.418  0.00  0.00    +0.000 NA
ATOM      5  N   UNL     1       2.663   4.612  20.187  0.00  0.00    +0.000 N 
ATOM      6  C   UNL     1       2.274   5.838  19.658  0.00  0.00    +0.000 A 
ATOM      7  N   UNL     1       2.416   6.183  18.400  0.00  0.00    +0.000 NA
ATOM      8  N   UNL     1       1.958   7.469  18.187  0.00  0.00    +0.000 NA
ATOM      9  C   UNL     1       1.590   8.080  19.300  0.00  0.00    +0.000 A 
ATOM     10  N   UNL     1       1.158   9.375  19.391  0.00  0.00    +0.000 N 
ATOM     11  C   UNL     1       1.633  10.185  20.519  0.00  0.00    +0.000 C 
ATOM     12  C   UNL     1       0.600  11.274  20.798  0.00  0.00    +0.000 C 
ATOM     13  C   UNL     1       0.358  12.133  19.553  0.00  0.00    +0.000 C 
ATOM     14  C   UNL     1      -0.005  11.239  18.354  0.00  0.00    +0.000 C 
ATOM     15  C   UNL     1       1.012  10.115  18.139  0.00  0.00    +0.000 C 
ATOM     16  S   UNL     1       1.619   7.023  20.673  0.00  0.00    +0.000 S 
ENDROOT
BRANCH  13  17
ATOM     17  C   UNL     1       1.569  13.027  19.287  0.00  0.00    +0.000 C 
ATOM     18  O   UNL     1       2.555  12.654  18.660  0.00  0.00    +0.000 OA
ATOM     19  N   UNL     1       1.471  14.276  19.851  0.00  0.00    +0.000 N 
ATOM     20  H   UNL     1       0.763  14.406  20.559  0.00  0.00    +0.000 HD
BRANCH  19  21
ATOM     21  C   UNL     1       2.531  15.277  19.744  0.00  0.00    +0.000 C 
ATOM     22  C   UNL     1       2.345  16.177  18.507  0.00  0.00    +0.000 C 
ATOM     23  C   UNL     1       1.087  17.038  18.603  0.00  0.00    +0.000 C 
ATOM     24  C   UNL     1       1.058  17.859  19.890  0.00  0.00    +0.000 C 
ATOM     25  C   UNL     1       1.300  17.007  21.137  0.00  0.00    +0.000 C 
ATOM     26  C   UNL     1       2.582  16.167  21.006  0.00  0.00    +0.000 C 
ATOM     27  C   UNL     1       2.854  15.364  22.280  0.00  0.00    +0.000 C 
ENDBRANCH  19  21
ENDBRANCH  13  17
BRANCH   1  28
ATOM     28  C   UNL     1       4.356   3.874  18.467  0.00  0.00    +0.000 C 
BRANCH  28  29
ATOM     29  O   UNL     1       5.713   3.859  18.906  0.00  0.00    +0.000 OA
BRANCH  29  34
ATOM     30  C   UNL     1       8.255   8.703  17.641  0.00  0.00    +0.000 C 
ATOM     31  C   UNL     1       7.552   7.420  17.933  0.00  0.00    +0.000 A 
ATOM     32  C   UNL     1       6.401   7.019  17.252  0.00  0.00    +0.000 A 
ATOM     33  C   UNL     1       5.788   5.812  17.576  0.00  0.00    +0.000 A 
ATOM     34  C   UNL     1       6.331   5.057  18.595  0.00  0.00    +0.000 A 
ATOM     35  N   UNL     1       7.452   5.404  19.269  0.00  0.00    +0.000 NA
ATOM     36  C   UNL     1       8.029   6.571  18.926  0.00  0.00    +0.000 A 
ENDBRANCH  29  34
ENDBRANCH  28  29
ENDBRANCH   1  28
TORSDOF 5
ENDMDL
