MODEL 1
REMARK VINA RESULT:      -8.9      0.000      0.000
REMARK  Name = 
REMARK  2 active torsions:
REMARK  status: ('A' for Active; 'I' for Inactive)
REMARK    1  A    between atoms: C_2  and  C_3
REMARK    2  A    between atoms: C_21  and  C_22
REMARK                            x       y       z     vdW  Elec       q    Type
REMARK                         _______ _______ _______ _____ _____    ______ ____
ROOT
ATOM      1  C   UNL     1       7.130   6.311  17.654  0.00  0.00    +0.000 A 
ATOM      2  C   UNL     1       7.900   6.206  18.833  0.00  0.00    +0.000 A 
ATOM      3  N   UNL     1       8.561   7.323  19.138  0.00  0.00    +0.000 NA
ATOM      4  N   UNL     1       8.087   8.229  18.237  0.00  0.00    +0.000 N 
ATOM      5  C   UNL     1       8.492   9.568  18.318  0.00  0.00    +0.000 A 
ATOM      6  N   UNL     1       7.983  10.510  17.587  0.00  0.00    +0.000 NA
ATOM      7  C   UNL     1       8.480  11.752  17.861  0.00  0.00    +0.000 A 
ATOM      8  C   UNL     1       9.436  12.036  18.744  0.00  0.00    +0.000 A 
ATOM      9  C   UNL     1      10.033  10.951  19.526  0.00  0.00    +0.000 A 
ATOM     10  O   UNL     1      10.934  11.134  20.331  0.00  0.00    +0.000 OA
ATOM     11  N   UNL     1       9.478   9.732  19.266  0.00  0.00    +0.000 N 
ATOM     12  C   UNL     1       9.745  13.476  18.841  0.00  0.00    +0.000 C 
ATOM     13  C   UNL     1       8.610  14.103  18.018  0.00  0.00    +0.000 C 
ATOM     14  C   UNL     1       7.955  12.978  17.202  0.00  0.00    +0.000 C 
ATOM     15  C   UNL     1       7.211   7.655  17.348  0.00  0.00    +0.000 A 
ATOM     16  H   UNL     1       9.812   8.918  19.773  0.00  0.00    +0.000 HD
ENDROOT
BRANCH   1  18
ATOM     17  O   UNL     1       6.846   4.801  15.910  0.00  0.00    +0.000 OA
ATOM     18  C   UNL     1       6.360   5.319  16.911  0.00  0.00    +0.000 C 
ATOM     19  N   UNL     1       5.094   4.953  17.391  0.00  0.00    +0.000 N 
ATOM     20  C   UNL     1       4.479   5.409  18.635  0.00  0.00    +0.000 C 
ATOM     21  C   UNL     1       4.013   4.243  19.494  0.00  0.00    +0.000 C 
ATOM     22  C   UNL     1       3.104   3.283  18.726  0.00  0.00    +0.000 C 
ATOM     23  C   UNL     1       3.793   2.857  17.417  0.00  0.00    +0.000 C 
ATOM     24  C   UNL     1       4.272   4.050  16.587  0.00  0.00    +0.000 C 
BRANCH  22  25
ATOM     25  C   UNL     1       1.705   3.860  18.508  0.00  0.00    +0.000 C 
ATOM     26  F   UNL     1       1.340   4.711  19.492  0.00  0.00    +0.000 F 
ATOM     27  F   UNL     1       1.594   4.523  17.339  0.00  0.00    +0.000 F 
ATOM     28  F   UNL     1       0.791   2.861  18.491  0.00  0.00    +0.000 F 
ENDBRANCH  22  25
ENDBRANCH   1  18
TORSDOF 2
ENDMDL
MODEL 2
REMARK VINA RESULT:      -8.4      6.165      8.625
REMARK  Name = 
REMARK  2 active torsions:
REMARK  status: ('A' for Active; 'I' for Inactive)
REMARK    1  A    between atoms: C_2  and  C_3
REMARK    2  A    between atoms: C_21  and  C_22
REMARK                            x       y       z     vdW  Elec       q    Type
REMARK                         _______ _______ _______ _____ _____    ______ ____
ROOT
ATOM      1  C   UNL     1       1.185   8.940  20.308  0.00  0.00    +0.000 A 
ATOM      2  C   UNL     1       1.224   7.801  21.141  0.00  0.00    +0.000 A 
ATOM      3  N   UNL     1       1.801   6.744  20.570  0.00  0.00    +0.000 NA
ATOM      4  N   UNL     1       2.299   7.245  19.404  0.00  0.00    +0.000 N 
ATOM      5  C   UNL     1       3.072   6.427  18.569  0.00  0.00    +0.000 A 
ATOM      6  N   UNL     1       3.691   6.867  17.518  0.00  0.00    +0.000 NA
ATOM      7  C   UNL     1       4.432   5.918  16.875  0.00  0.00    +0.000 A 
ATOM      8  C   UNL     1       4.516   4.630  17.208  0.00  0.00    +0.000 A 
ATOM      9  C   UNL     1       3.770   4.142  18.370  0.00  0.00    +0.000 A 
ATOM     10  O   UNL     1       3.776   2.970  18.716  0.00  0.00    +0.000 OA
ATOM     11  N   UNL     1       3.083   5.126  19.021  0.00  0.00    +0.000 N 
ATOM     12  C   UNL     1       5.420   3.851  16.340  0.00  0.00    +0.000 C 
ATOM     13  C   UNL     1       6.109   4.953  15.523  0.00  0.00    +0.000 C 
ATOM     14  C   UNL     1       5.294   6.242  15.707  0.00  0.00    +0.000 C 
ATOM     15  C   UNL     1       1.963   8.566  19.231  0.00  0.00    +0.000 A 
ATOM     16  H   UNL     1       2.549   4.890  19.852  0.00  0.00    +0.000 HD
ENDROOT
BRANCH   1  18
ATOM     17  O   UNL     1       1.093  11.079  21.213  0.00  0.00    +0.000 OA
ATOM     18  C   UNL     1       0.559  10.247  20.486  0.00  0.00    +0.000 C 
ATOM     19  N   UNL     1      -0.620  10.530  19.782  0.00  0.00    +0.000 N 
ATOM     20  C   UNL     1      -1.265   9.664  18.798  0.00  0.00    +0.000 C 
ATOM     21  C   UNL     1      -1.520  10.392  17.487  0.00  0.00    +0.000 C 
ATOM     22  C   UNL     1      -2.287  11.699  17.689  0.00  0.00    +0.000 C 
ATOM     23  C   UNL     1      -1.577  12.556  18.751  0.00  0.00    +0.000 C 
ATOM     24  C   UNL     1      -1.312  11.790  20.049  0.00  0.00    +0.000 C 
BRANCH  22  25
ATOM     25  C   UNL     1      -3.765  11.461  18.001  0.00  0.00    +0.000 C 
ATOM     26  F   UNL     1      -4.087  10.148  17.996  0.00  0.00    +0.000 F 
ATOM     27  F   UNL     1      -4.129  11.959  19.200  0.00  0.00    +0.000 F 
ATOM     28  F   UNL     1      -4.538  12.061  17.066  0.00  0.00    +0.000 F 
ENDBRANCH  22  25
ENDBRANCH   1  18
TORSDOF 2
ENDMDL
MODEL 3
REMARK VINA RESULT:      -8.3      6.457      7.688
REMARK  Name = 
REMARK  2 active torsions:
REMARK  status: ('A' for Active; 'I' for Inactive)
REMARK    1  A    between atoms: C_2  and  C_3
REMARK    2  A    between atoms: C_21  and  C_22
REMARK                            x       y       z     vdW  Elec       q    Type
REMARK                         _______ _______ _______ _____ _____    ______ ____
ROOT
ATOM      1  C   UNL     1       2.414   7.493  18.737  0.00  0.00    +0.000 A 
ATOM      2  C   UNL     1       2.511   8.524  17.778  0.00  0.00    +0.000 A 
ATOM      3  N   UNL     1       1.725   9.569  18.039  0.00  0.00    +0.000 NA
ATOM      4  N   UNL     1       1.229   9.292  19.278  0.00  0.00    +0.000 N 
ATOM      5  C   UNL     1       0.424  10.234  19.932  0.00  0.00    +0.000 A 
ATOM      6  N   UNL     1       0.030  10.101  21.160  0.00  0.00    +0.000 NA
ATOM      7  C   UNL     1      -0.702  11.157  21.623  0.00  0.00    +0.000 A 
ATOM      8  C   UNL     1      -1.060  12.231  20.920  0.00  0.00    +0.000 A 
ATOM      9  C   UNL     1      -0.646  12.339  19.519  0.00  0.00    +0.000 A 
ATOM     10  O   UNL     1      -0.963  13.280  18.806  0.00  0.00    +0.000 OA
ATOM     11  N   UNL     1       0.127  11.294  19.104  0.00  0.00    +0.000 N 
ATOM     12  C   UNL     1      -1.826  13.223  21.699  0.00  0.00    +0.000 C 
ATOM     13  C   UNL     1      -1.676  12.689  23.132  0.00  0.00    +0.000 C 
ATOM     14  C   UNL     1      -1.162  11.245  23.035  0.00  0.00    +0.000 C 
ATOM     15  C   UNL     1       1.643   8.062  19.730  0.00  0.00    +0.000 A 
ATOM     16  H   UNL     1       0.480  11.287  18.152  0.00  0.00    +0.000 HD
ENDROOT
BRANCH   1  18
ATOM     17  O   UNL     1       2.460   5.283  19.457  0.00  0.00    +0.000 OA
ATOM     18  C   UNL     1       2.998   6.156  18.781  0.00  0.00    +0.000 C 
ATOM     19  N   UNL     1       4.140   5.895  18.011  0.00  0.00    +0.000 N 
ATOM     20  C   UNL     1       4.780   6.819  17.078  0.00  0.00    +0.000 C 
ATOM     21  C   UNL     1       4.961   6.196  15.702  0.00  0.00    +0.000 C 
ATOM     22  C   UNL     1       5.687   4.852  15.764  0.00  0.00    +0.000 C 
ATOM     23  C   UNL     1       4.984   3.932  16.778  0.00  0.00    +0.000 C 
ATOM     24  C   UNL     1       4.795   4.595  18.144  0.00  0.00    +0.000 C 
BRANCH  22  25
ATOM     25  C   UNL     1       7.183   5.014  16.038  0.00  0.00    +0.000 C 
ATOM     26  F   UNL     1       7.490   6.244  16.507  0.00  0.00    +0.000 F 
ATOM     27  F   UNL     1       7.648   4.116  16.929  0.00  0.00    +0.000 F 
ATOM     28  F   UNL     1       7.883   4.843  14.892  0.00  0.00    +0.000 F 
ENDBRANCH  22  25
ENDBRANCH   1  18
TORSDOF 2
ENDMDL
MODEL 4
REMARK VINA RESULT:      -8.1      5.658      6.936
REMARK  Name = 
REMARK  2 active torsions:
REMARK  status: ('A' for Active; 'I' for Inactive)
REMARK    1  A    between atoms: C_2  and  C_3
REMARK    2  A    between atoms: C_21  and  C_22
REMARK                            x       y       z     vdW  Elec       q    Type
REMARK                         _______ _______ _______ _____ _____    ______ ____
ROOT
ATOM      1  C   UNL     1       2.350   5.163  19.251  0.00  0.00    +0.000 A 
ATOM      2  C   UNL     1       1.856   4.974  20.560  0.00  0.00    +0.000 A 
ATOM      3  N   UNL     1       1.527   6.111  21.174  0.00  0.00    +0.000 NA
ATOM      4  N   UNL     1       1.650   7.049  20.194  0.00  0.00    +0.000 N 
ATOM      5  C   UNL     1       1.285   8.377  20.451  0.00  0.00    +0.000 A 
ATOM      6  N   UNL     1       1.244   9.294  19.535  0.00  0.00    +0.000 NA
ATOM      7  C   UNL     1       0.811  10.507  19.986  0.00  0.00    +0.000 A 
ATOM      8  C   UNL     1       0.494  10.808  21.245  0.00  0.00    +0.000 A 
ATOM      9  C   UNL     1       0.594   9.771  22.275  0.00  0.00    +0.000 A 
ATOM     10  O   UNL     1       0.348   9.983  23.453  0.00  0.00    +0.000 OA
ATOM     11  N   UNL     1       0.978   8.558  21.782  0.00  0.00    +0.000 N 
ATOM     12  C   UNL     1       0.030  12.197  21.424  0.00  0.00    +0.000 C 
ATOM     13  C   UNL     1      -0.133  12.670  19.972  0.00  0.00    +0.000 C 
ATOM     14  C   UNL     1       0.599  11.663  19.074  0.00  0.00    +0.000 C 
ATOM     15  C   UNL     1       2.122   6.505  19.023  0.00  0.00    +0.000 A 
ATOM     16  H   UNL     1       1.058   7.769  22.416  0.00  0.00    +0.000 HD
ENDROOT
BRANCH   1  18
ATOM     17  O   UNL     1       2.341   3.165  18.063  0.00  0.00    +0.000 OA
ATOM     18  C   UNL     1       2.917   4.226  18.287  0.00  0.00    +0.000 C 
ATOM     19  N   UNL     1       4.091   4.586  17.609  0.00  0.00    +0.000 N 
ATOM     20  C   UNL     1       4.782   5.869  17.705  0.00  0.00    +0.000 C 
ATOM     21  C   UNL     1       5.019   6.486  16.335  0.00  0.00    +0.000 C 
ATOM     22  C   UNL     1       5.728   5.524  15.380  0.00  0.00    +0.000 C 
ATOM     23  C   UNL     1       4.971   4.185  15.340  0.00  0.00    +0.000 C 
ATOM     24  C   UNL     1       4.726   3.603  16.733  0.00  0.00    +0.000 C 
BRANCH  22  25
ATOM     25  C   UNL     1       7.212   5.364  15.716  0.00  0.00    +0.000 C 
ATOM     26  F   UNL     1       7.699   6.416  16.410  0.00  0.00    +0.000 F 
ATOM     27  F   UNL     1       7.463   4.254  16.438  0.00  0.00    +0.000 F 
ATOM     28  F   UNL     1       7.936   5.274  14.576  0.00  0.00    +0.000 F 
ENDBRANCH  22  25
ENDBRANCH   1  18
TORSDOF 2
ENDMDL
MODEL 5
REMARK VINA RESULT:      -7.9      6.219      7.985
REMARK  Name = 
REMARK  2 active torsions:
REMARK  status: ('A' for Active; 'I' for Inactive)
REMARK    1  A    between atoms: C_2  and  C_3
REMARK    2  A    between atoms: C_21  and  C_22
REMARK                            x       y       z     vdW  Elec       q    Type
REMARK                         _______ _______ _______ _____ _____    ______ ____
ROOT
ATOM      1  C   UNL     1       2.220   7.939  18.491  0.00  0.00    +0.000 A 
ATOM      2  C   UNL     1       2.032   8.443  19.796  0.00  0.00    +0.000 A 
ATOM      3  N   UNL     1       1.032   9.321  19.888  0.00  0.00    +0.000 NA
ATOM      4  N   UNL     1       0.447   9.266  18.659  0.00  0.00    +0.000 N 
ATOM      5  C   UNL     1      -0.722   9.999  18.412  0.00  0.00    +0.000 A 
ATOM      6  N   UNL     1      -1.409   9.892  17.317  0.00  0.00    +0.000 NA
ATOM      7  C   UNL     1      -2.542  10.653  17.299  0.00  0.00    +0.000 A 
ATOM      8  C   UNL     1      -2.940  11.489  18.258  0.00  0.00    +0.000 A 
ATOM      9  C   UNL     1      -2.124  11.633  19.466  0.00  0.00    +0.000 A 
ATOM     10  O   UNL     1      -2.411  12.402  20.371  0.00  0.00    +0.000 OA
ATOM     11  N   UNL     1      -1.027  10.820  19.474  0.00  0.00    +0.000 N 
ATOM     12  C   UNL     1      -4.225  12.155  17.969  0.00  0.00    +0.000 C 
ATOM     13  C   UNL     1      -4.713  11.386  16.733  0.00  0.00    +0.000 C 
ATOM     14  C   UNL     1      -3.518  10.597  16.178  0.00  0.00    +0.000 C 
ATOM     15  C   UNL     1       1.126   8.429  17.807  0.00  0.00    +0.000 A 
ATOM     16  H   UNL     1      -0.408  10.833  20.279  0.00  0.00    +0.000 HD
ENDROOT
BRANCH   1  18
ATOM     17  O   UNL     1       4.200   7.555  17.336  0.00  0.00    +0.000 OA
ATOM     18  C   UNL     1       3.245   7.064  17.932  0.00  0.00    +0.000 C 
ATOM     19  N   UNL     1       3.130   5.680  18.129  0.00  0.00    +0.000 N 
ATOM     20  C   UNL     1       2.109   5.006  18.927  0.00  0.00    +0.000 C 
ATOM     21  C   UNL     1       2.725   4.068  19.954  0.00  0.00    +0.000 C 
ATOM     22  C   UNL     1       3.705   3.077  19.322  0.00  0.00    +0.000 C 
ATOM     23  C   UNL     1       4.738   3.842  18.476  0.00  0.00    +0.000 C 
ATOM     24  C   UNL     1       4.089   4.795  17.470  0.00  0.00    +0.000 C 
BRANCH  22  25
ATOM     25  C   UNL     1       2.989   1.974  18.542  0.00  0.00    +0.000 C 
ATOM     26  F   UNL     1       1.852   1.568  19.149  0.00  0.00    +0.000 F 
ATOM     27  F   UNL     1       2.663   2.352  17.289  0.00  0.00    +0.000 F 
ATOM     28  F   UNL     1       3.790   0.888  18.438  0.00  0.00    +0.000 F 
ENDBRANCH  22  25
ENDBRANCH   1  18
TORSDOF 2
ENDMDL
MODEL 6
REMARK VINA RESULT:      -7.8      1.566      2.414
REMARK  Name = 
REMARK  2 active torsions:
REMARK  status: ('A' for Active; 'I' for Inactive)
REMARK    1  A    between atoms: C_2  and  C_3
REMARK    2  A    between atoms: C_21  and  C_22
REMARK                            x       y       z     vdW  Elec       q    Type
REMARK                         _______ _______ _______ _____ _____    ______ ____
ROOT
ATOM      1  C   UNL     1       7.269   6.918  18.008  0.00  0.00    +0.000 A 
ATOM      2  C   UNL     1       6.728   7.760  17.012  0.00  0.00    +0.000 A 
ATOM      3  N   UNL     1       7.140   9.025  17.104  0.00  0.00    +0.000 NA
ATOM      4  N   UNL     1       8.096   8.978  18.074  0.00  0.00    +0.000 N 
ATOM      5  C   UNL     1       8.835  10.129  18.380  0.00  0.00    +0.000 A 
ATOM      6  N   UNL     1       9.848  10.129  19.189  0.00  0.00    +0.000 NA
ATOM      7  C   UNL     1      10.461  11.344  19.307  0.00  0.00    +0.000 A 
ATOM      8  C   UNL     1      10.077  12.476  18.718  0.00  0.00    +0.000 A 
ATOM      9  C   UNL     1       8.900  12.465  17.846  0.00  0.00    +0.000 A 
ATOM     10  O   UNL     1       8.474  13.471  17.297  0.00  0.00    +0.000 OA
ATOM     11  N   UNL     1       8.343  11.227  17.708  0.00  0.00    +0.000 N 
ATOM     12  C   UNL     1      10.955  13.625  19.011  0.00  0.00    +0.000 C 
ATOM     13  C   UNL     1      12.142  12.949  19.713  0.00  0.00    +0.000 C 
ATOM     14  C   UNL     1      11.700  11.532  20.107  0.00  0.00    +0.000 C 
ATOM     15  C   UNL     1       8.210   7.722  18.619  0.00  0.00    +0.000 A 
ATOM     16  H   UNL     1       7.533  11.112  17.107  0.00  0.00    +0.000 HD
ENDROOT
BRANCH   1  18
ATOM     17  O   UNL     1       7.926   4.807  18.727  0.00  0.00    +0.000 OA
ATOM     18  C   UNL     1       7.005   5.521  18.340  0.00  0.00    +0.000 C 
ATOM     19  N   UNL     1       5.690   5.044  18.246  0.00  0.00    +0.000 N 
ATOM     20  C   UNL     1       4.507   5.837  17.923  0.00  0.00    +0.000 C 
ATOM     21  C   UNL     1       3.409   5.662  18.962  0.00  0.00    +0.000 C 
ATOM     22  C   UNL     1       3.065   4.191  19.201  0.00  0.00    +0.000 C 
ATOM     23  C   UNL     1       4.350   3.404  19.512  0.00  0.00    +0.000 C 
ATOM     24  C   UNL     1       5.443   3.619  18.462  0.00  0.00    +0.000 C 
BRANCH  22  25
ATOM     25  C   UNL     1       2.258   3.591  18.048  0.00  0.00    +0.000 C 
ATOM     26  F   UNL     1       3.044   3.167  17.035  0.00  0.00    +0.000 F 
ATOM     27  F   UNL     1       1.500   2.545  18.435  0.00  0.00    +0.000 F 
ATOM     28  F   UNL     1       1.422   4.524  17.535  0.00  0.00    +0.000 F 
ENDBRANCH  22  25
ENDBRANCH   1  18
TORSDOF 2
ENDMDL
MODEL 7
REMARK VINA RESULT:      -7.8      6.648      9.356
REMARK  Name = 
REMARK  2 active torsions:
REMARK  status: ('A' for Active; 'I' for Inactive)
REMARK    1  A    between atoms: C_2  and  C_3
REMARK    2  A    between atoms: C_21  and  C_22
REMARK                            x       y       z     vdW  Elec       q    Type
REMARK                         _______ _______ _______ _____ _____    ______ ____
ROOT
ATOM      1  C   UNL     1       1.046   9.537  20.232  0.00  0.00    +0.000 A 
ATOM      2  C   UNL     1       1.201   9.057  21.550  0.00  0.00    +0.000 A 
ATOM      3  N   UNL     1       1.473   7.753  21.612  0.00  0.00    +0.000 NA
ATOM      4  N   UNL     1       1.666   7.406  20.309  0.00  0.00    +0.000 N 
ATOM      5  C   UNL     1       2.074   6.105  19.988  0.00  0.00    +0.000 A 
ATOM      6  N   UNL     1       2.408   5.739  18.789  0.00  0.00    +0.000 NA
ATOM      7  C   UNL     1       2.827   4.443  18.703  0.00  0.00    +0.000 A 
ATOM      8  C   UNL     1       2.865   3.563  19.703  0.00  0.00    +0.000 A 
ATOM      9  C   UNL     1       2.437   3.981  21.040  0.00  0.00    +0.000 A 
ATOM     10  O   UNL     1       2.417   3.220  21.996  0.00  0.00    +0.000 OA
ATOM     11  N   UNL     1       2.075   5.295  21.103  0.00  0.00    +0.000 N 
ATOM     12  C   UNL     1       3.393   2.242  19.312  0.00  0.00    +0.000 C 
ATOM     13  C   UNL     1       3.932   2.518  17.900  0.00  0.00    +0.000 C 
ATOM     14  C   UNL     1       3.347   3.860  17.437  0.00  0.00    +0.000 C 
ATOM     15  C   UNL     1       1.437   8.462  19.460  0.00  0.00    +0.000 A 
ATOM     16  H   UNL     1       1.781   5.686  21.993  0.00  0.00    +0.000 HD
ENDROOT
BRANCH   1  18
ATOM     17  O   UNL     1       1.424  11.787  19.786  0.00  0.00    +0.000 OA
ATOM     18  C   UNL     1       0.642  10.843  19.721  0.00  0.00    +0.000 C 
ATOM     19  N   UNL     1      -0.623  10.972  19.128  0.00  0.00    +0.000 N 
ATOM     20  C   UNL     1      -1.574   9.890  18.886  0.00  0.00    +0.000 C 
ATOM     21  C   UNL     1      -2.028   9.853  17.434  0.00  0.00    +0.000 C 
ATOM     22  C   UNL     1      -2.564  11.205  16.959  0.00  0.00    +0.000 C 
ATOM     23  C   UNL     1      -1.532  12.305  17.263  0.00  0.00    +0.000 C 
ATOM     24  C   UNL     1      -1.077  12.301  18.724  0.00  0.00    +0.000 C 
BRANCH  22  25
ATOM     25  C   UNL     1      -3.951  11.509  17.528  0.00  0.00    +0.000 C 
ATOM     26  F   UNL     1      -3.892  12.204  18.685  0.00  0.00    +0.000 F 
ATOM     27  F   UNL     1      -4.718  12.216  16.673  0.00  0.00    +0.000 F 
ATOM     28  F   UNL     1      -4.605  10.355  17.793  0.00  0.00    +0.000 F 
ENDBRANCH  22  25
ENDBRANCH   1  18
TORSDOF 2
ENDMDL
MODEL 8
REMARK VINA RESULT:      -7.7      7.177      9.909
REMARK  Name = 
REMARK  2 active torsions:
REMARK  status: ('A' for Active; 'I' for Inactive)
REMARK    1  A    between atoms: C_2  and  C_3
REMARK    2  A    between atoms: C_21  and  C_22
REMARK                            x       y       z     vdW  Elec       q    Type
REMARK                         _______ _______ _______ _____ _____    ______ ____
ROOT
ATOM      1  C   UNL     1       0.809   9.235  21.225  0.00  0.00    +0.000 A 
ATOM      2  C   UNL     1       1.135   9.652  19.916  0.00  0.00    +0.000 A 
ATOM      3  N   UNL     1       1.839   8.752  19.230  0.00  0.00    +0.000 NA
ATOM      4  N   UNL     1       1.833   7.658  20.043  0.00  0.00    +0.000 N 
ATOM      5  C   UNL     1       2.406   6.459  19.600  0.00  0.00    +0.000 A 
ATOM      6  N   UNL     1       2.319   5.344  20.257  0.00  0.00    +0.000 NA
ATOM      7  C   UNL     1       2.901   4.283  19.625  0.00  0.00    +0.000 A 
ATOM      8  C   UNL     1       3.559   4.325  18.467  0.00  0.00    +0.000 A 
ATOM      9  C   UNL     1       3.689   5.603  17.764  0.00  0.00    +0.000 A 
ATOM     10  O   UNL     1       4.304   5.722  16.715  0.00  0.00    +0.000 OA
ATOM     11  N   UNL     1       3.052   6.632  18.396  0.00  0.00    +0.000 N 
ATOM     12  C   UNL     1       4.054   3.009  18.017  0.00  0.00    +0.000 C 
ATOM     13  C   UNL     1       3.360   2.054  18.999  0.00  0.00    +0.000 C 
ATOM     14  C   UNL     1       2.823   2.898  20.164  0.00  0.00    +0.000 C 
ATOM     15  C   UNL     1       1.204   7.913  21.238  0.00  0.00    +0.000 A 
ATOM     16  H   UNL     1       3.069   7.556  17.976  0.00  0.00    +0.000 HD
ENDROOT
BRANCH   1  18
ATOM     17  O   UNL     1       0.522   9.712  23.482  0.00  0.00    +0.000 OA
ATOM     18  C   UNL     1       0.162   9.936  22.330  0.00  0.00    +0.000 C 
ATOM     19  N   UNL     1      -0.830  10.883  22.037  0.00  0.00    +0.000 N 
ATOM     20  C   UNL     1      -1.240  11.317  20.704  0.00  0.00    +0.000 C 
ATOM     21  C   UNL     1      -1.194  12.831  20.565  0.00  0.00    +0.000 C 
ATOM     22  C   UNL     1      -1.985  13.540  21.666  0.00  0.00    +0.000 C 
ATOM     23  C   UNL     1      -1.527  13.025  23.042  0.00  0.00    +0.000 C 
ATOM     24  C   UNL     1      -1.561  11.499  23.143  0.00  0.00    +0.000 C 
BRANCH  22  25
ATOM     25  C   UNL     1      -3.496  13.430  21.457  0.00  0.00    +0.000 C 
ATOM     26  F   UNL     1      -3.829  13.337  20.150  0.00  0.00    +0.000 F 
ATOM     27  F   UNL     1      -4.030  12.363  22.085  0.00  0.00    +0.000 F 
ATOM     28  F   UNL     1      -4.111  14.532  21.944  0.00  0.00    +0.000 F 
ENDBRANCH  22  25
ENDBRANCH   1  18
TORSDOF 2
ENDMDL
MODEL 9
REMARK VINA RESULT:      -7.7      5.771      7.217
REMARK  Name = 
REMARK  2 active torsions:
REMARK  status: ('A' for Active; 'I' for Inactive)
REMARK    1  A    between atoms: C_2  and  C_3
REMARK    2  A    between atoms: C_21  and  C_22
REMARK                            x       y       z     vdW  Elec       q    Type
REMARK                         _______ _______ _______ _____ _____    ______ ____
ROOT
ATOM      1  C   UNL     1       2.997   7.800  18.061  0.00  0.00    +0.000 A 
ATOM      2  C   UNL     1       2.627   8.809  17.146  0.00  0.00    +0.000 A 
ATOM      3  N   UNL     1       1.629   9.580  17.579  0.00  0.00    +0.000 NA
ATOM      4  N   UNL     1       1.453   9.177  18.869  0.00  0.00    +0.000 N 
ATOM      5  C   UNL     1       0.534   9.846  19.688  0.00  0.00    +0.000 A 
ATOM      6  N   UNL     1       0.410   9.611  20.957  0.00  0.00    +0.000 NA
ATOM      7  C   UNL     1      -0.506  10.409  21.581  0.00  0.00    +0.000 A 
ATOM      8  C   UNL     1      -1.273  11.328  20.994  0.00  0.00    +0.000 A 
ATOM      9  C   UNL     1      -1.153  11.544  19.551  0.00  0.00    +0.000 A 
ATOM     10  O   UNL     1      -1.845  12.347  18.942  0.00  0.00    +0.000 OA
ATOM     11  N   UNL     1      -0.193  10.768  18.968  0.00  0.00    +0.000 N 
ATOM     12  C   UNL     1      -2.148  12.056  21.932  0.00  0.00    +0.000 C 
ATOM     13  C   UNL     1      -1.609  11.598  23.295  0.00  0.00    +0.000 C 
ATOM     14  C   UNL     1      -0.725  10.366  23.051  0.00  0.00    +0.000 C 
ATOM     15  C   UNL     1       2.275   8.124  19.192  0.00  0.00    +0.000 A 
ATOM     16  H   UNL     1      -0.021  10.859  17.972  0.00  0.00    +0.000 HD
ENDROOT
BRANCH   1  18
ATOM     17  O   UNL     1       5.116   6.924  17.678  0.00  0.00    +0.000 OA
ATOM     18  C   UNL     1       3.941   6.692  17.949  0.00  0.00    +0.000 C 
ATOM     19  N   UNL     1       3.483   5.390  18.197  0.00  0.00    +0.000 N 
ATOM     20  C   UNL     1       2.145   5.019  18.649  0.00  0.00    +0.000 C 
ATOM     21  C   UNL     1       2.192   4.141  19.890  0.00  0.00    +0.000 C 
ATOM     22  C   UNL     1       3.092   2.919  19.703  0.00  0.00    +0.000 C 
ATOM     23  C   UNL     1       4.476   3.369  19.204  0.00  0.00    +0.000 C 
ATOM     24  C   UNL     1       4.395   4.270  17.970  0.00  0.00    +0.000 C 
BRANCH  22  25
ATOM     25  C   UNL     1       2.448   1.857  18.810  0.00  0.00    +0.000 C 
ATOM     26  F   UNL     1       2.027   2.363  17.630  0.00  0.00    +0.000 F 
ATOM     27  F   UNL     1       3.283   0.835  18.535  0.00  0.00    +0.000 F 
ATOM     28  F   UNL     1       1.362   1.334  19.424  0.00  0.00    +0.000 F 
ENDBRANCH  22  25
ENDBRANCH   1  18
TORSDOF 2
ENDMDL
