MODEL 1
REMARK VINA RESULT:      -6.9      0.000      0.000
REMARK  Name = 
REMARK  4 active torsions:
REMARK  status: ('A' for Active; 'I' for Inactive)
REMARK    1  A    between atoms: C_7  and  S_8
REMARK    2  A    between atoms: N_10  and  S_11
REMARK    3  A    between atoms: S_11  and  N_14
REMARK    4  A    between atoms: C_18  and  S_19
REMARK                            x       y       z     vdW  Elec       q    Type
REMARK                         _______ _______ _______ _____ _____    ______ ____
ROOT
ATOM      1  O   UNL     1       6.826   5.476  18.639  0.00  0.00    +0.000 OA
ATOM      2  C   UNL     1       6.038   4.588  18.353  0.00  0.00    +0.000 C 
ATOM      3  N   UNL     1       5.839   4.049  17.119  0.00  0.00    +0.000 N 
ATOM      4  C   UNL     1       6.505   4.478  16.010  0.00  0.00    +0.000 A 
ATOM      5  N   UNL     1       7.476   5.348  15.883  0.00  0.00    +0.000 NA
ATOM      6  N   UNL     1       7.830   5.522  14.555  0.00  0.00    +0.000 NA
ATOM      7  C   UNL     1       7.093   4.784  13.754  0.00  0.00    +0.000 A 
ATOM      8  S   UNL     1       5.954   3.786  14.550  0.00  0.00    +0.000 S 
ATOM      9  N   UNL     1       5.241   4.099  19.391  0.00  0.00    +0.000 N 
ATOM     10  H   UNL     1       5.154   3.312  16.997  0.00  0.00    +0.000 HD
ATOM     11  H   UNL     1       5.494   4.471  20.302  0.00  0.00    +0.000 HD
ENDROOT
BRANCH   9  12
ATOM     12  S   UNL     1       4.307   2.754  19.430  0.00  0.00    +0.000 S 
ATOM     13  O   UNL     1       4.160   2.259  18.080  0.00  0.00    +0.000 OA
ATOM     14  O   UNL     1       4.797   1.912  20.489  0.00  0.00    +0.000 OA
BRANCH  12  15
ATOM     15  N   UNL     1       2.810   3.379  19.844  0.00  0.00    +0.000 N 
ATOM     16  C   UNL     1       2.687   4.758  19.535  0.00  0.00    +0.000 A 
ATOM     17  N   UNL     1       2.680   5.634  20.511  0.00  0.00    +0.000 NA
ATOM     18  N   UNL     1       2.521   6.922  20.034  0.00  0.00    +0.000 NA
ATOM     19  C   UNL     1       2.339   6.939  18.732  0.00  0.00    +0.000 A 
ATOM     20  S   UNL     1       2.387   5.399  17.982  0.00  0.00    +0.000 S 
ATOM     21  H   UNL     1       2.733   3.304  20.860  0.00  0.00    +0.000 HD
BRANCH  19  22
ATOM     22  S   UNL     1       2.065   8.429  17.874  0.00  0.00    +0.000 S 
ATOM     23  H   UNL     1       0.969   8.791  18.559  0.00  0.00    +0.000 HD
ENDBRANCH  19  22
ENDBRANCH  12  15
ENDBRANCH   9  12
BRANCH   7  24
ATOM     24  S   UNL     1       7.280   4.847  12.024  0.00  0.00    +0.000 S 
ATOM     25  H   UNL     1       6.359   3.914  11.748  0.00  0.00    +0.000 HD
ENDBRANCH   7  24
TORSDOF 4
ENDMDL
MODEL 2
REMARK VINA RESULT:      -6.3      2.556      5.911
REMARK  Name = 
REMARK  4 active torsions:
REMARK  status: ('A' for Active; 'I' for Inactive)
REMARK    1  A    between atoms: C_7  and  S_8
REMARK    2  A    between atoms: N_10  and  S_11
REMARK    3  A    between atoms: S_11  and  N_14
REMARK    4  A    between atoms: C_18  and  S_19
REMARK                            x       y       z     vdW  Elec       q    Type
REMARK                         _______ _______ _______ _____ _____    ______ ____
ROOT
ATOM      1  O   UNL     1       2.206   4.919  21.211  0.00  0.00    +0.000 OA
ATOM      2  C   UNL     1       2.556   4.886  20.041  0.00  0.00    +0.000 C 
ATOM      3  N   UNL     1       2.545   5.927  19.165  0.00  0.00    +0.000 N 
ATOM      4  C   UNL     1       2.096   7.170  19.498  0.00  0.00    +0.000 A 
ATOM      5  N   UNL     1       1.704   7.652  20.652  0.00  0.00    +0.000 NA
ATOM      6  N   UNL     1       1.278   8.965  20.533  0.00  0.00    +0.000 NA
ATOM      7  C   UNL     1       1.356   9.392  19.293  0.00  0.00    +0.000 A 
ATOM      8  S   UNL     1       2.002   8.257  18.186  0.00  0.00    +0.000 S 
ATOM      9  N   UNL     1       2.980   3.650  19.549  0.00  0.00    +0.000 N 
ATOM     10  H   UNL     1       2.859   5.784  18.211  0.00  0.00    +0.000 HD
ATOM     11  H   UNL     1       3.053   2.935  20.267  0.00  0.00    +0.000 HD
ENDROOT
BRANCH   9  12
ATOM     12  S   UNL     1       3.765   3.309  18.152  0.00  0.00    +0.000 S 
ATOM     13  O   UNL     1       3.482   1.939  17.790  0.00  0.00    +0.000 OA
ATOM     14  O   UNL     1       3.519   4.393  17.237  0.00  0.00    +0.000 OA
BRANCH  12  15
ATOM     15  N   UNL     1       5.367   3.325  18.638  0.00  0.00    +0.000 N 
ATOM     16  C   UNL     1       6.065   4.473  18.184  0.00  0.00    +0.000 A 
ATOM     17  N   UNL     1       6.957   4.345  17.231  0.00  0.00    +0.000 NA
ATOM     18  N   UNL     1       7.561   5.553  16.938  0.00  0.00    +0.000 NA
ATOM     19  C   UNL     1       7.149   6.510  17.740  0.00  0.00    +0.000 A 
ATOM     20  S   UNL     1       5.968   6.027  18.883  0.00  0.00    +0.000 S 
ATOM     21  H   UNL     1       5.815   2.522  18.193  0.00  0.00    +0.000 HD
BRANCH  19  22
ATOM     22  S   UNL     1       7.785   8.127  17.624  0.00  0.00    +0.000 S 
ATOM     23  H   UNL     1       8.465   8.099  18.780  0.00  0.00    +0.000 HD
ENDBRANCH  19  22
ENDBRANCH  12  15
ENDBRANCH   9  12
BRANCH   7  24
ATOM     24  S   UNL     1       0.829  10.990  18.841  0.00  0.00    +0.000 S 
ATOM     25  H   UNL     1       1.406  10.992  17.631  0.00  0.00    +0.000 HD
ENDBRANCH   7  24
TORSDOF 4
ENDMDL
MODEL 3
REMARK VINA RESULT:      -6.0      3.399      7.240
REMARK  Name = 
REMARK  4 active torsions:
REMARK  status: ('A' for Active; 'I' for Inactive)
REMARK    1  A    between atoms: C_7  and  S_8
REMARK    2  A    between atoms: N_10  and  S_11
REMARK    3  A    between atoms: S_11  and  N_14
REMARK    4  A    between atoms: C_18  and  S_19
REMARK                            x       y       z     vdW  Elec       q    Type
REMARK                         _______ _______ _______ _____ _____    ______ ____
ROOT
ATOM      1  O   UNL     1       2.578   7.808  18.829  0.00  0.00    +0.000 OA
ATOM      2  C   UNL     1       2.133   7.057  19.683  0.00  0.00    +0.000 C 
ATOM      3  N   UNL     1       1.256   7.385  20.671  0.00  0.00    +0.000 N 
ATOM      4  C   UNL     1       0.778   8.649  20.845  0.00  0.00    +0.000 A 
ATOM      5  N   UNL     1       0.941   9.728  20.119  0.00  0.00    +0.000 NA
ATOM      6  N   UNL     1       0.312  10.822  20.690  0.00  0.00    +0.000 NA
ATOM      7  C   UNL     1      -0.274  10.510  21.825  0.00  0.00    +0.000 A 
ATOM      8  S   UNL     1      -0.155   8.859  22.259  0.00  0.00    +0.000 S 
ATOM      9  N   UNL     1       2.594   5.738  19.660  0.00  0.00    +0.000 N 
ATOM     10  H   UNL     1       0.953   6.676  21.330  0.00  0.00    +0.000 HD
ATOM     11  H   UNL     1       3.172   5.529  18.852  0.00  0.00    +0.000 HD
ENDROOT
BRANCH   9  12
ATOM     12  S   UNL     1       2.013   4.428  20.453  0.00  0.00    +0.000 S 
ATOM     13  O   UNL     1       2.580   4.408  21.782  0.00  0.00    +0.000 OA
ATOM     14  O   UNL     1       0.589   4.386  20.243  0.00  0.00    +0.000 OA
BRANCH  12  15
ATOM     15  N   UNL     1       2.747   3.167  19.632  0.00  0.00    +0.000 N 
ATOM     16  C   UNL     1       3.684   3.615  18.665  0.00  0.00    +0.000 A 
ATOM     17  N   UNL     1       3.390   3.510  17.392  0.00  0.00    +0.000 NA
ATOM     18  N   UNL     1       4.424   3.962  16.594  0.00  0.00    +0.000 NA
ATOM     19  C   UNL     1       5.472   4.310  17.308  0.00  0.00    +0.000 A 
ATOM     20  S   UNL     1       5.268   4.155  19.002  0.00  0.00    +0.000 S 
ATOM     21  H   UNL     1       2.010   2.686  19.115  0.00  0.00    +0.000 HD
BRANCH  19  22
ATOM     22  S   UNL     1       6.937   4.873  16.554  0.00  0.00    +0.000 S 
ATOM     23  H   UNL     1       7.618   5.075  17.692  0.00  0.00    +0.000 HD
ENDBRANCH  19  22
ENDBRANCH  12  15
ENDBRANCH   9  12
BRANCH   7  24
ATOM     24  S   UNL     1      -1.092  11.706  22.791  0.00  0.00    +0.000 S 
ATOM     25  H   UNL     1      -2.080  10.901  23.207  0.00  0.00    +0.000 HD
ENDBRANCH   7  24
TORSDOF 4
ENDMDL
MODEL 4
REMARK VINA RESULT:      -5.9      3.677      7.737
REMARK  Name = 
REMARK  4 active torsions:
REMARK  status: ('A' for Active; 'I' for Inactive)
REMARK    1  A    between atoms: C_7  and  S_8
REMARK    2  A    between atoms: N_10  and  S_11
REMARK    3  A    between atoms: S_11  and  N_14
REMARK    4  A    between atoms: C_18  and  S_19
REMARK                            x       y       z     vdW  Elec       q    Type
REMARK                         _______ _______ _______ _____ _____    ______ ____
ROOT
ATOM      1  O   UNL     1       1.997   9.651  17.460  0.00  0.00    +0.000 OA
ATOM      2  C   UNL     1       2.042   8.736  18.266  0.00  0.00    +0.000 C 
ATOM      3  N   UNL     1       1.432   8.698  19.482  0.00  0.00    +0.000 N 
ATOM      4  C   UNL     1       0.694   9.734  19.971  0.00  0.00    +0.000 A 
ATOM      5  N   UNL     1       0.335  10.862  19.410  0.00  0.00    +0.000 NA
ATOM      6  N   UNL     1      -0.381  11.659  20.289  0.00  0.00    +0.000 NA
ATOM      7  C   UNL     1      -0.505  11.093  21.469  0.00  0.00    +0.000 A 
ATOM      8  S   UNL     1       0.186   9.532  21.589  0.00  0.00    +0.000 S 
ATOM      9  N   UNL     1       2.823   7.631  17.917  0.00  0.00    +0.000 N 
ATOM     10  H   UNL     1       1.540   7.881  20.073  0.00  0.00    +0.000 HD
ATOM     11  H   UNL     1       3.179   7.675  16.967  0.00  0.00    +0.000 HD
ENDROOT
BRANCH   9  12
ATOM     12  S   UNL     1       2.881   6.148  18.609  0.00  0.00    +0.000 S 
ATOM     13  O   UNL     1       2.508   6.276  20.000  0.00  0.00    +0.000 OA
ATOM     14  O   UNL     1       2.204   5.229  17.732  0.00  0.00    +0.000 OA
BRANCH  12  15
ATOM     15  N   UNL     1       4.524   5.827  18.613  0.00  0.00    +0.000 N 
ATOM     16  C   UNL     1       4.960   5.189  17.423  0.00  0.00    +0.000 A 
ATOM     17  N   UNL     1       5.299   3.923  17.462  0.00  0.00    +0.000 NA
ATOM     18  N   UNL     1       5.728   3.475  16.227  0.00  0.00    +0.000 NA
ATOM     19  C   UNL     1       5.765   4.448  15.343  0.00  0.00    +0.000 A 
ATOM     20  S   UNL     1       5.242   5.970  15.932  0.00  0.00    +0.000 S 
ATOM     21  H   UNL     1       4.691   5.163  19.371  0.00  0.00    +0.000 HD
BRANCH  19  22
ATOM     22  S   UNL     1       6.315   4.173  13.714  0.00  0.00    +0.000 S 
ATOM     23  H   UNL     1       7.362   3.402  14.043  0.00  0.00    +0.000 HD
ENDBRANCH  19  22
ENDBRANCH  12  15
ENDBRANCH   9  12
BRANCH   7  24
ATOM     24  S   UNL     1      -1.307  11.897  22.789  0.00  0.00    +0.000 S 
ATOM     25  H   UNL     1      -0.915  11.037  23.739  0.00  0.00    +0.000 HD
ENDBRANCH   7  24
TORSDOF 4
ENDMDL
MODEL 5
REMARK VINA RESULT:      -5.9      1.626      5.789
REMARK  Name = 
REMARK  4 active torsions:
REMARK  status: ('A' for Active; 'I' for Inactive)
REMARK    1  A    between atoms: C_7  and  S_8
REMARK    2  A    between atoms: N_10  and  S_11
REMARK    3  A    between atoms: S_11  and  N_14
REMARK    4  A    between atoms: C_18  and  S_19
REMARK                            x       y       z     vdW  Elec       q    Type
REMARK                         _______ _______ _______ _____ _____    ______ ____
ROOT
ATOM      1  O   UNL     1       1.875   4.670  21.523  0.00  0.00    +0.000 OA
ATOM      2  C   UNL     1       2.614   4.534  20.560  0.00  0.00    +0.000 C 
ATOM      3  N   UNL     1       2.909   5.479  19.626  0.00  0.00    +0.000 N 
ATOM      4  C   UNL     1       2.367   6.729  19.644  0.00  0.00    +0.000 A 
ATOM      5  N   UNL     1       1.593   7.309  20.528  0.00  0.00    +0.000 NA
ATOM      6  N   UNL     1       1.231   8.584  20.125  0.00  0.00    +0.000 NA
ATOM      7  C   UNL     1       1.739   8.887  18.951  0.00  0.00    +0.000 A 
ATOM      8  S   UNL     1       2.736   7.674  18.271  0.00  0.00    +0.000 S 
ATOM      9  N   UNL     1       3.189   3.272  20.385  0.00  0.00    +0.000 N 
ATOM     10  H   UNL     1       3.538   5.253  18.864  0.00  0.00    +0.000 HD
ATOM     11  H   UNL     1       3.007   2.638  21.157  0.00  0.00    +0.000 HD
ENDROOT
BRANCH   9  12
ATOM     12  S   UNL     1       4.416   2.825  19.396  0.00  0.00    +0.000 S 
ATOM     13  O   UNL     1       5.264   1.898  20.110  0.00  0.00    +0.000 OA
ATOM     14  O   UNL     1       3.847   2.490  18.117  0.00  0.00    +0.000 OA
BRANCH  12  15
ATOM     15  N   UNL     1       5.301   4.241  19.274  0.00  0.00    +0.000 N 
ATOM     16  C   UNL     1       5.985   4.354  18.037  0.00  0.00    +0.000 A 
ATOM     17  N   UNL     1       7.289   4.217  18.012  0.00  0.00    +0.000 NA
ATOM     18  N   UNL     1       7.791   4.389  16.735  0.00  0.00    +0.000 NA
ATOM     19  C   UNL     1       6.848   4.725  15.883  0.00  0.00    +0.000 A 
ATOM     20  S   UNL     1       5.275   4.816  16.556  0.00  0.00    +0.000 S 
ATOM     21  H   UNL     1       6.021   4.199  19.998  0.00  0.00    +0.000 HD
BRANCH  19  22
ATOM     22  S   UNL     1       7.211   5.051  14.211  0.00  0.00    +0.000 S 
ATOM     23  H   UNL     1       8.413   5.606  14.430  0.00  0.00    +0.000 HD
ENDBRANCH  19  22
ENDBRANCH  12  15
ENDBRANCH   9  12
BRANCH   7  24
ATOM     24  S   UNL     1       1.398  10.406  18.172  0.00  0.00    +0.000 S 
ATOM     25  H   UNL     1       0.405  10.769  18.995  0.00  0.00    +0.000 HD
ENDBRANCH   7  24
TORSDOF 4
ENDMDL
MODEL 6
REMARK VINA RESULT:      -5.9      2.966      5.515
REMARK  Name = 
REMARK  4 active torsions:
REMARK  status: ('A' for Active; 'I' for Inactive)
REMARK    1  A    between atoms: C_7  and  S_8
REMARK    2  A    between atoms: N_10  and  S_11
REMARK    3  A    between atoms: S_11  and  N_14
REMARK    4  A    between atoms: C_18  and  S_19
REMARK                            x       y       z     vdW  Elec       q    Type
REMARK                         _______ _______ _______ _____ _____    ______ ____
ROOT
ATOM      1  O   UNL     1       4.842   7.241  15.863  0.00  0.00    +0.000 OA
ATOM      2  C   UNL     1       4.987   6.744  16.969  0.00  0.00    +0.000 C 
ATOM      3  N   UNL     1       4.181   6.929  18.050  0.00  0.00    +0.000 N 
ATOM      4  C   UNL     1       3.092   7.747  18.028  0.00  0.00    +0.000 A 
ATOM      5  N   UNL     1       2.543   8.408  17.039  0.00  0.00    +0.000 NA
ATOM      6  N   UNL     1       1.465   9.164  17.471  0.00  0.00    +0.000 NA
ATOM      7  C   UNL     1       1.274   9.045  18.766  0.00  0.00    +0.000 A 
ATOM      8  S   UNL     1       2.349   7.967  19.550  0.00  0.00    +0.000 S 
ATOM      9  N   UNL     1       6.108   5.930  17.148  0.00  0.00    +0.000 N 
ATOM     10  H   UNL     1       4.399   6.464  18.924  0.00  0.00    +0.000 HD
ATOM     11  H   UNL     1       6.620   5.756  16.289  0.00  0.00    +0.000 HD
ENDROOT
BRANCH   9  12
ATOM     12  S   UNL     1       6.451   4.903  18.378  0.00  0.00    +0.000 S 
ATOM     13  O   UNL     1       7.811   4.439  18.220  0.00  0.00    +0.000 OA
ATOM     14  O   UNL     1       6.005   5.519  19.600  0.00  0.00    +0.000 OA
BRANCH  12  15
ATOM     15  N   UNL     1       5.483   3.586  18.016  0.00  0.00    +0.000 N 
ATOM     16  C   UNL     1       4.580   3.266  19.061  0.00  0.00    +0.000 A 
ATOM     17  N   UNL     1       4.786   2.187  19.777  0.00  0.00    +0.000 NA
ATOM     18  N   UNL     1       3.796   2.013  20.726  0.00  0.00    +0.000 NA
ATOM     19  C   UNL     1       2.856   2.927  20.622  0.00  0.00    +0.000 A 
ATOM     20  S   UNL     1       3.122   4.090  19.392  0.00  0.00    +0.000 S 
ATOM     21  H   UNL     1       6.107   2.783  17.919  0.00  0.00    +0.000 HD
BRANCH  19  22
ATOM     22  S   UNL     1       1.461   2.916  21.664  0.00  0.00    +0.000 S 
ATOM     23  H   UNL     1       1.589   1.642  22.064  0.00  0.00    +0.000 HD
ENDBRANCH  19  22
ENDBRANCH  12  15
ENDBRANCH   9  12
BRANCH   7  24
ATOM     24  S   UNL     1       0.024   9.932  19.592  0.00  0.00    +0.000 S 
ATOM     25  H   UNL     1       0.625  11.127  19.516  0.00  0.00    +0.000 HD
ENDBRANCH   7  24
TORSDOF 4
ENDMDL
MODEL 7
REMARK VINA RESULT:      -5.9      4.096      5.350
REMARK  Name = 
REMARK  4 active torsions:
REMARK  status: ('A' for Active; 'I' for Inactive)
REMARK    1  A    between atoms: C_7  and  S_8
REMARK    2  A    between atoms: N_10  and  S_11
REMARK    3  A    between atoms: S_11  and  N_14
REMARK    4  A    between atoms: C_18  and  S_19
REMARK                            x       y       z     vdW  Elec       q    Type
REMARK                         _______ _______ _______ _____ _____    ______ ____
ROOT
ATOM      1  O   UNL     1       8.216   6.407  19.234  0.00  0.00    +0.000 OA
ATOM      2  C   UNL     1       7.660   6.740  18.199  0.00  0.00    +0.000 C 
ATOM      3  N   UNL     1       7.683   7.976  17.629  0.00  0.00    +0.000 N 
ATOM      4  C   UNL     1       8.333   9.035  18.188  0.00  0.00    +0.000 A 
ATOM      5  N   UNL     1       9.105   9.099  19.244  0.00  0.00    +0.000 NA
ATOM      6  N   UNL     1       9.524  10.397  19.487  0.00  0.00    +0.000 NA
ATOM      7  C   UNL     1       9.029  11.241  18.610  0.00  0.00    +0.000 A 
ATOM      8  S   UNL     1       8.064  10.522  17.393  0.00  0.00    +0.000 S 
ATOM      9  N   UNL     1       6.900   5.761  17.553  0.00  0.00    +0.000 N 
ATOM     10  H   UNL     1       7.181   8.139  16.763  0.00  0.00    +0.000 HD
ATOM     11  H   UNL     1       6.992   4.840  17.972  0.00  0.00    +0.000 HD
ENDROOT
BRANCH   9  12
ATOM     12  S   UNL     1       6.271   5.773  16.041  0.00  0.00    +0.000 S 
ATOM     13  O   UNL     1       5.529   7.001  15.864  0.00  0.00    +0.000 OA
ATOM     14  O   UNL     1       7.317   5.390  15.130  0.00  0.00    +0.000 OA
BRANCH  12  15
ATOM     15  N   UNL     1       5.120   4.561  16.131  0.00  0.00    +0.000 N 
ATOM     16  C   UNL     1       4.482   4.504  17.397  0.00  0.00    +0.000 A 
ATOM     17  N   UNL     1       4.756   3.510  18.207  0.00  0.00    +0.000 NA
ATOM     18  N   UNL     1       4.024   3.594  19.377  0.00  0.00    +0.000 NA
ATOM     19  C   UNL     1       3.181   4.604  19.351  0.00  0.00    +0.000 A 
ATOM     20  S   UNL     1       3.242   5.551  17.925  0.00  0.00    +0.000 S 
ATOM     21  H   UNL     1       5.618   3.676  16.020  0.00  0.00    +0.000 HD
BRANCH  19  22
ATOM     22  S   UNL     1       2.100   4.915  20.680  0.00  0.00    +0.000 S 
ATOM     23  H   UNL     1       0.981   4.527  20.050  0.00  0.00    +0.000 HD
ENDBRANCH  19  22
ENDBRANCH  12  15
ENDBRANCH   9  12
BRANCH   7  24
ATOM     24  S   UNL     1       9.342  12.951  18.709  0.00  0.00    +0.000 S 
ATOM     25  H   UNL     1      10.678  12.850  18.735  0.00  0.00    +0.000 HD
ENDBRANCH   7  24
TORSDOF 4
ENDMDL
MODEL 8
REMARK VINA RESULT:      -5.9      1.849      6.517
REMARK  Name = 
REMARK  4 active torsions:
REMARK  status: ('A' for Active; 'I' for Inactive)
REMARK    1  A    between atoms: C_7  and  S_8
REMARK    2  A    between atoms: N_10  and  S_11
REMARK    3  A    between atoms: S_11  and  N_14
REMARK    4  A    between atoms: C_18  and  S_19
REMARK                            x       y       z     vdW  Elec       q    Type
REMARK                         _______ _______ _______ _____ _____    ______ ____
ROOT
ATOM      1  O   UNL     1       4.073   2.883  19.126  0.00  0.00    +0.000 OA
ATOM      2  C   UNL     1       4.734   3.897  18.969  0.00  0.00    +0.000 C 
ATOM      3  N   UNL     1       4.366   5.163  19.307  0.00  0.00    +0.000 N 
ATOM      4  C   UNL     1       3.154   5.458  19.855  0.00  0.00    +0.000 A 
ATOM      5  N   UNL     1       2.184   4.672  20.252  0.00  0.00    +0.000 NA
ATOM      6  N   UNL     1       1.098   5.399  20.710  0.00  0.00    +0.000 NA
ATOM      7  C   UNL     1       1.303   6.694  20.616  0.00  0.00    +0.000 A 
ATOM      8  S   UNL     1       2.846   7.130  20.018  0.00  0.00    +0.000 S 
ATOM      9  N   UNL     1       5.979   3.744  18.354  0.00  0.00    +0.000 N 
ATOM     10  H   UNL     1       4.999   5.935  19.129  0.00  0.00    +0.000 HD
ATOM     11  H   UNL     1       6.238   2.773  18.207  0.00  0.00    +0.000 HD
ENDROOT
BRANCH   9  12
ATOM     12  S   UNL     1       7.215   4.813  18.246  0.00  0.00    +0.000 S 
ATOM     13  O   UNL     1       7.245   5.602  19.457  0.00  0.00    +0.000 OA
ATOM     14  O   UNL     1       8.376   4.095  17.789  0.00  0.00    +0.000 OA
BRANCH  12  15
ATOM     15  N   UNL     1       6.678   5.851  17.047  0.00  0.00    +0.000 N 
ATOM     16  C   UNL     1       6.696   5.257  15.759  0.00  0.00    +0.000 A 
ATOM     17  N   UNL     1       7.596   5.644  14.888  0.00  0.00    +0.000 NA
ATOM     18  N   UNL     1       7.448   4.987  13.681  0.00  0.00    +0.000 NA
ATOM     19  C   UNL     1       6.396   4.198  13.683  0.00  0.00    +0.000 A 
ATOM     20  S   UNL     1       5.531   4.162  15.162  0.00  0.00    +0.000 S 
ATOM     21  H   UNL     1       7.340   6.628  17.014  0.00  0.00    +0.000 HD
BRANCH  19  22
ATOM     22  S   UNL     1       5.945   3.284  12.271  0.00  0.00    +0.000 S 
ATOM     23  H   UNL     1       6.099   4.287  11.394  0.00  0.00    +0.000 HD
ENDBRANCH  19  22
ENDBRANCH  12  15
ENDBRANCH   9  12
BRANCH   7  24
ATOM     24  S   UNL     1       0.079   7.849  21.064  0.00  0.00    +0.000 S 
ATOM     25  H   UNL     1      -0.305   7.221  22.184  0.00  0.00    +0.000 HD
ENDBRANCH   7  24
TORSDOF 4
ENDMDL
MODEL 9
REMARK VINA RESULT:      -5.8      2.286      2.893
REMARK  Name = 
REMARK  4 active torsions:
REMARK  status: ('A' for Active; 'I' for Inactive)
REMARK    1  A    between atoms: C_7  and  S_8
REMARK    2  A    between atoms: N_10  and  S_11
REMARK    3  A    between atoms: S_11  and  N_14
REMARK    4  A    between atoms: C_18  and  S_19
REMARK                            x       y       z     vdW  Elec       q    Type
REMARK                         _______ _______ _______ _____ _____    ______ ____
ROOT
ATOM      1  O   UNL     1       7.913   7.061  16.274  0.00  0.00    +0.000 OA
ATOM      2  C   UNL     1       7.262   6.188  16.827  0.00  0.00    +0.000 C 
ATOM      3  N   UNL     1       6.740   5.075  16.243  0.00  0.00    +0.000 N 
ATOM      4  C   UNL     1       6.864   4.812  14.911  0.00  0.00    +0.000 A 
ATOM      5  N   UNL     1       7.535   5.441  13.979  0.00  0.00    +0.000 NA
ATOM      6  N   UNL     1       7.346   4.856  12.737  0.00  0.00    +0.000 NA
ATOM      7  C   UNL     1       6.528   3.829  12.802  0.00  0.00    +0.000 A 
ATOM      8  S   UNL     1       5.969   3.461  14.377  0.00  0.00    +0.000 S 
ATOM      9  N   UNL     1       7.005   6.367  18.188  0.00  0.00    +0.000 N 
ATOM     10  H   UNL     1       6.213   4.414  16.803  0.00  0.00    +0.000 HD
ATOM     11  H   UNL     1       7.492   7.163  18.588  0.00  0.00    +0.000 HD
ENDROOT
BRANCH   9  12
ATOM     12  S   UNL     1       6.427   5.291  19.280  0.00  0.00    +0.000 S 
ATOM     13  O   UNL     1       6.155   4.046  18.596  0.00  0.00    +0.000 OA
ATOM     14  O   UNL     1       7.281   5.341  20.437  0.00  0.00    +0.000 OA
BRANCH  12  15
ATOM     15  N   UNL     1       4.927   5.937  19.648  0.00  0.00    +0.000 N 
ATOM     16  C   UNL     1       3.855   5.111  19.222  0.00  0.00    +0.000 A 
ATOM     17  N   UNL     1       3.124   5.488  18.200  0.00  0.00    +0.000 NA
ATOM     18  N   UNL     1       2.109   4.585  17.944  0.00  0.00    +0.000 NA
ATOM     19  C   UNL     1       2.082   3.618  18.835  0.00  0.00    +0.000 A 
ATOM     20  S   UNL     1       3.311   3.708  20.026  0.00  0.00    +0.000 S 
ATOM     21  H   UNL     1       4.846   6.808  19.121  0.00  0.00    +0.000 HD
BRANCH  19  22
ATOM     22  S   UNL     1       0.872   2.368  18.778  0.00  0.00    +0.000 S 
ATOM     23  H   UNL     1       1.222   1.881  17.578  0.00  0.00    +0.000 HD
ENDBRANCH  19  22
ENDBRANCH  12  15
ENDBRANCH   9  12
BRANCH   7  24
ATOM     24  S   UNL     1       6.062   2.940  11.379  0.00  0.00    +0.000 S 
ATOM     25  H   UNL     1       5.137   2.181  11.983  0.00  0.00    +0.000 HD
ENDBRANCH   7  24
TORSDOF 4
ENDMDL
