MODEL 1
REMARK VINA RESULT:      -7.9      0.000      0.000
REMARK  Name = 
REMARK  8 active torsions:
REMARK  status: ('A' for Active; 'I' for Inactive)
REMARK    1  A    between atoms: C_1  and  C_2
REMARK    2  A    between atoms: C_7  and  O_8
REMARK    3  A    between atoms: O_8  and  C_9
REMARK    4  A    between atoms: C_9  and  C_10
REMARK    5  A    between atoms: N_12  and  N_13
REMARK    6  A    between atoms: C_14  and  C_15
REMARK    7  A    between atoms: C_18  and  S_19
REMARK    8  A    between atoms: S_19  and  C_20
REMARK                            x       y       z     vdW  Elec       q    Type
REMARK                         _______ _______ _______ _____ _____    ______ ____
ROOT
ATOM      1  N   UNL     1       9.166   9.828  18.969  0.00  0.00    +0.000 NA
ATOM      2  C   UNL     1       8.528   9.504  17.892  0.00  0.00    +0.000 C 
ENDROOT
BRANCH   2   3
ATOM      3  C   UNL     1       7.871   8.228  17.892  0.00  0.00    +0.000 A 
ATOM      4  C   UNL     1       8.137   7.087  18.625  0.00  0.00    +0.000 A 
ATOM      5  C   UNL     1       7.227   6.104  18.185  0.00  0.00    +0.000 A 
ATOM      6  C   UNL     1       6.424   6.695  17.223  0.00  0.00    +0.000 A 
ATOM      7  O   UNL     1       6.829   7.997  17.046  0.00  0.00    +0.000 OA
BRANCH   6   8
ATOM      8  S   UNL     1       5.179   6.002  16.223  0.00  0.00    +0.000 S 
BRANCH   8   9
ATOM      9  C   UNL     1       4.121   5.287  17.433  0.00  0.00    +0.000 A 
ATOM     10  N   UNL     1       3.854   4.003  17.511  0.00  0.00    +0.000 NA
ATOM     11  C   UNL     1       2.947   3.769  18.534  0.00  0.00    +0.000 A 
ATOM     12  C   UNL     1       2.432   2.513  18.917  0.00  0.00    +0.000 A 
ATOM     13  C   UNL     1       1.513   2.426  19.969  0.00  0.00    +0.000 A 
ATOM     14  C   UNL     1       1.102   3.571  20.644  0.00  0.00    +0.000 A 
ATOM     15  C   UNL     1       1.596   4.829  20.285  0.00  0.00    +0.000 A 
ATOM     16  C   UNL     1       2.518   4.904  19.226  0.00  0.00    +0.000 A 
ATOM     17  S   UNL     1       3.289   6.287  18.554  0.00  0.00    +0.000 S 
ENDBRANCH   8   9
ENDBRANCH   6   8
ENDBRANCH   2   3
BRANCH   1  20
ATOM     18  C   UNL     1       9.792  11.744  20.206  0.00  0.00    +0.000 C 
ATOM     19  O   UNL     1      10.380  12.823  20.287  0.00  0.00    +0.000 OA
ATOM     20  N   UNL     1       9.815  11.012  19.032  0.00  0.00    +0.000 N 
ATOM     21  H   UNL     1      10.324  11.394  18.241  0.00  0.00    +0.000 HD
BRANCH  18  22
ATOM     22  C   UNL     1       9.041  11.111  21.389  0.00  0.00    +0.000 C 
BRANCH  22  23
ATOM     23  O   UNL     1       8.029  11.966  21.885  0.00  0.00    +0.000 OA
BRANCH  23  30
ATOM     24  C   UNL     1       8.863  14.997  22.368  0.00  0.00    +0.000 C 
ATOM     25  C   UNL     1       8.536  13.933  23.378  0.00  0.00    +0.000 A 
ATOM     26  C   UNL     1       8.612  14.331  24.733  0.00  0.00    +0.000 A 
ATOM     27  C   UNL     1       8.341  13.451  25.778  0.00  0.00    +0.000 A 
ATOM     28  C   UNL     1       7.989  12.143  25.490  0.00  0.00    +0.000 A 
ATOM     29  C   UNL     1       7.908  11.728  24.160  0.00  0.00    +0.000 A 
ATOM     30  C   UNL     1       8.176  12.604  23.089  0.00  0.00    +0.000 A 
ENDBRANCH  23  30
ENDBRANCH  22  23
ENDBRANCH  18  22
ENDBRANCH   1  20
TORSDOF 7
ENDMDL
MODEL 2
REMARK VINA RESULT:      -7.8      5.443      8.514
REMARK  Name = 
REMARK  8 active torsions:
REMARK  status: ('A' for Active; 'I' for Inactive)
REMARK    1  A    between atoms: C_1  and  C_2
REMARK    2  A    between atoms: C_7  and  O_8
REMARK    3  A    between atoms: O_8  and  C_9
REMARK    4  A    between atoms: C_9  and  C_10
REMARK    5  A    between atoms: N_12  and  N_13
REMARK    6  A    between atoms: C_14  and  C_15
REMARK    7  A    between atoms: C_18  and  S_19
REMARK    8  A    between atoms: S_19  and  C_20
REMARK                            x       y       z     vdW  Elec       q    Type
REMARK                         _______ _______ _______ _____ _____    ______ ____
ROOT
ATOM      1  N   UNL     1       1.782   6.936  20.784  0.00  0.00    +0.000 NA
ATOM      2  C   UNL     1       1.046   5.893  20.992  0.00  0.00    +0.000 C 
ENDROOT
BRANCH   2   3
ATOM      3  C   UNL     1       1.250   4.777  20.112  0.00  0.00    +0.000 A 
ATOM      4  C   UNL     1       0.707   3.507  20.140  0.00  0.00    +0.000 A 
ATOM      5  C   UNL     1       1.297   2.792  19.078  0.00  0.00    +0.000 A 
ATOM      6  C   UNL     1       2.154   3.665  18.428  0.00  0.00    +0.000 A 
ATOM      7  O   UNL     1       2.122   4.880  19.071  0.00  0.00    +0.000 OA
BRANCH   6   8
ATOM      8  S   UNL     1       3.252   3.381  17.107  0.00  0.00    +0.000 S 
BRANCH   8   9
ATOM      9  C   UNL     1       4.573   4.469  17.513  0.00  0.00    +0.000 A 
ATOM     10  N   UNL     1       4.890   5.536  16.814  0.00  0.00    +0.000 NA
ATOM     11  C   UNL     1       6.007   6.147  17.363  0.00  0.00    +0.000 A 
ATOM     12  C   UNL     1       6.632   7.317  16.886  0.00  0.00    +0.000 A 
ATOM     13  C   UNL     1       7.763   7.822  17.538  0.00  0.00    +0.000 A 
ATOM     14  C   UNL     1       8.278   7.177  18.659  0.00  0.00    +0.000 A 
ATOM     15  C   UNL     1       7.678   6.014  19.153  0.00  0.00    +0.000 A 
ATOM     16  C   UNL     1       6.543   5.517  18.489  0.00  0.00    +0.000 A 
ATOM     17  S   UNL     1       5.600   4.123  18.845  0.00  0.00    +0.000 S 
ENDBRANCH   8   9
ENDBRANCH   6   8
ENDBRANCH   2   3
BRANCH   1  20
ATOM     18  C   UNL     1       1.303   9.242  20.998  0.00  0.00    +0.000 C 
ATOM     19  O   UNL     1       1.159  10.247  21.695  0.00  0.00    +0.000 OA
ATOM     20  N   UNL     1       1.634   8.026  21.570  0.00  0.00    +0.000 N 
ATOM     21  H   UNL     1       1.760   7.990  22.576  0.00  0.00    +0.000 HD
BRANCH  18  22
ATOM     22  C   UNL     1       1.085   9.243  19.476  0.00  0.00    +0.000 C 
BRANCH  22  23
ATOM     23  O   UNL     1       0.653  10.506  19.009  0.00  0.00    +0.000 OA
BRANCH  23  30
ATOM     24  C   UNL     1      -1.447  12.291  20.597  0.00  0.00    +0.000 C 
ATOM     25  C   UNL     1      -1.642  11.498  19.335  0.00  0.00    +0.000 A 
ATOM     26  C   UNL     1      -2.940  11.547  18.775  0.00  0.00    +0.000 A 
ATOM     27  C   UNL     1      -3.268  10.858  17.610  0.00  0.00    +0.000 A 
ATOM     28  C   UNL     1      -2.301  10.096  16.976  0.00  0.00    +0.000 A 
ATOM     29  C   UNL     1      -1.014  10.032  17.512  0.00  0.00    +0.000 A 
ATOM     30  C   UNL     1      -0.661  10.725  18.688  0.00  0.00    +0.000 A 
ENDBRANCH  23  30
ENDBRANCH  22  23
ENDBRANCH  18  22
ENDBRANCH   1  20
TORSDOF 7
ENDMDL
MODEL 3
REMARK VINA RESULT:      -7.8      6.138      9.438
REMARK  Name = 
REMARK  8 active torsions:
REMARK  status: ('A' for Active; 'I' for Inactive)
REMARK    1  A    between atoms: C_1  and  C_2
REMARK    2  A    between atoms: C_7  and  O_8
REMARK    3  A    between atoms: O_8  and  C_9
REMARK    4  A    between atoms: C_9  and  C_10
REMARK    5  A    between atoms: N_12  and  N_13
REMARK    6  A    between atoms: C_14  and  C_15
REMARK    7  A    between atoms: C_18  and  S_19
REMARK    8  A    between atoms: S_19  and  C_20
REMARK                            x       y       z     vdW  Elec       q    Type
REMARK                         _______ _______ _______ _____ _____    ______ ____
ROOT
ATOM      1  N   UNL     1       5.667   5.479  19.084  0.00  0.00    +0.000 NA
ATOM      2  C   UNL     1       4.526   4.946  19.377  0.00  0.00    +0.000 C 
ENDROOT
BRANCH   2   3
ATOM      3  C   UNL     1       3.413   5.843  19.510  0.00  0.00    +0.000 A 
ATOM      4  C   UNL     1       2.295   5.766  20.319  0.00  0.00    +0.000 A 
ATOM      5  C   UNL     1       1.491   6.880  20.004  0.00  0.00    +0.000 A 
ATOM      6  C   UNL     1       2.167   7.607  19.037  0.00  0.00    +0.000 A 
ATOM      7  O   UNL     1       3.343   6.962  18.737  0.00  0.00    +0.000 OA
BRANCH   6   8
ATOM      8  S   UNL     1       1.675   9.026  18.157  0.00  0.00    +0.000 S 
BRANCH   8   9
ATOM      9  C   UNL     1       0.776   9.904  19.387  0.00  0.00    +0.000 A 
ATOM     10  N   UNL     1       0.559   9.454  20.602  0.00  0.00    +0.000 NA
ATOM     11  C   UNL     1      -0.224  10.355  21.308  0.00  0.00    +0.000 A 
ATOM     12  C   UNL     1      -0.656  10.212  22.643  0.00  0.00    +0.000 A 
ATOM     13  C   UNL     1      -1.453  11.202  23.230  0.00  0.00    +0.000 A 
ATOM     14  C   UNL     1      -1.823  12.331  22.506  0.00  0.00    +0.000 A 
ATOM     15  C   UNL     1      -1.410  12.498  21.180  0.00  0.00    +0.000 A 
ATOM     16  C   UNL     1      -0.610  11.496  20.602  0.00  0.00    +0.000 A 
ATOM     17  S   UNL     1       0.041  11.411  19.012  0.00  0.00    +0.000 S 
ENDBRANCH   8   9
ENDBRANCH   6   8
ENDBRANCH   2   3
BRANCH   1  20
ATOM     18  C   UNL     1       7.526   4.769  17.805  0.00  0.00    +0.000 C 
ATOM     19  O   UNL     1       8.526   4.064  17.666  0.00  0.00    +0.000 OA
ATOM     20  N   UNL     1       6.759   4.691  18.954  0.00  0.00    +0.000 N 
ATOM     21  H   UNL     1       7.042   4.034  19.673  0.00  0.00    +0.000 HD
BRANCH  18  22
ATOM     22  C   UNL     1       7.082   5.804  16.758  0.00  0.00    +0.000 C 
BRANCH  22  23
ATOM     23  O   UNL     1       7.670   5.556  15.495  0.00  0.00    +0.000 OA
BRANCH  23  30
ATOM     24  C   UNL     1       4.857   4.100  15.775  0.00  0.00    +0.000 C 
ATOM     25  C   UNL     1       5.739   4.228  14.566  0.00  0.00    +0.000 A 
ATOM     26  C   UNL     1       5.255   3.614  13.387  0.00  0.00    +0.000 A 
ATOM     27  C   UNL     1       5.968   3.647  12.191  0.00  0.00    +0.000 A 
ATOM     28  C   UNL     1       7.190   4.297  12.146  0.00  0.00    +0.000 A 
ATOM     29  C   UNL     1       7.687   4.909  13.297  0.00  0.00    +0.000 A 
ATOM     30  C   UNL     1       6.980   4.889  14.517  0.00  0.00    +0.000 A 
ENDBRANCH  23  30
ENDBRANCH  22  23
ENDBRANCH  18  22
ENDBRANCH   1  20
TORSDOF 7
ENDMDL
MODEL 4
REMARK VINA RESULT:      -7.7      5.950      9.041
REMARK  Name = 
REMARK  8 active torsions:
REMARK  status: ('A' for Active; 'I' for Inactive)
REMARK    1  A    between atoms: C_1  and  C_2
REMARK    2  A    between atoms: C_7  and  O_8
REMARK    3  A    between atoms: O_8  and  C_9
REMARK    4  A    between atoms: C_9  and  C_10
REMARK    5  A    between atoms: N_12  and  N_13
REMARK    6  A    between atoms: C_14  and  C_15
REMARK    7  A    between atoms: C_18  and  S_19
REMARK    8  A    between atoms: S_19  and  C_20
REMARK                            x       y       z     vdW  Elec       q    Type
REMARK                         _______ _______ _______ _____ _____    ______ ____
ROOT
ATOM      1  N   UNL     1       2.999   4.837  19.872  0.00  0.00    +0.000 NA
ATOM      2  C   UNL     1       1.946   5.273  20.484  0.00  0.00    +0.000 C 
ENDROOT
BRANCH   2   3
ATOM      3  C   UNL     1       1.727   6.691  20.455  0.00  0.00    +0.000 A 
ATOM      4  C   UNL     1       1.360   7.559  21.465  0.00  0.00    +0.000 A 
ATOM      5  C   UNL     1       1.223   8.832  20.875  0.00  0.00    +0.000 A 
ATOM      6  C   UNL     1       1.540   8.692  19.533  0.00  0.00    +0.000 A 
ATOM      7  O   UNL     1       1.845   7.376  19.283  0.00  0.00    +0.000 OA
BRANCH   6   8
ATOM      8  S   UNL     1       1.472   9.856  18.240  0.00  0.00    +0.000 S 
BRANCH   8   9
ATOM      9  C   UNL     1      -0.214  10.353  18.310  0.00  0.00    +0.000 A 
ATOM     10  N   UNL     1      -1.152   9.891  17.514  0.00  0.00    +0.000 NA
ATOM     11  C   UNL     1      -2.357  10.519  17.786  0.00  0.00    +0.000 A 
ATOM     12  C   UNL     1      -3.585  10.278  17.137  0.00  0.00    +0.000 A 
ATOM     13  C   UNL     1      -4.728  10.995  17.513  0.00  0.00    +0.000 A 
ATOM     14  C   UNL     1      -4.662  11.947  18.526  0.00  0.00    +0.000 A 
ATOM     15  C   UNL     1      -3.457  12.207  19.186  0.00  0.00    +0.000 A 
ATOM     16  C   UNL     1      -2.316  11.481  18.800  0.00  0.00    +0.000 A 
ATOM     17  S   UNL     1      -0.710  11.577  19.408  0.00  0.00    +0.000 S 
ENDBRANCH   8   9
ENDBRANCH   6   8
ENDBRANCH   2   3
BRANCH   1  20
ATOM     18  C   UNL     1       3.684   2.901  18.699  0.00  0.00    +0.000 C 
ATOM     19  O   UNL     1       3.941   1.696  18.675  0.00  0.00    +0.000 OA
ATOM     20  N   UNL     1       3.271   3.513  19.870  0.00  0.00    +0.000 N 
ATOM     21  H   UNL     1       3.182   2.940  20.703  0.00  0.00    +0.000 HD
BRANCH  18  22
ATOM     22  C   UNL     1       3.842   3.813  17.472  0.00  0.00    +0.000 C 
BRANCH  22  23
ATOM     23  O   UNL     1       5.187   3.879  17.038  0.00  0.00    +0.000 OA
BRANCH  23  30
ATOM     24  C   UNL     1       5.089   6.715  15.601  0.00  0.00    +0.000 C 
ATOM     25  C   UNL     1       5.971   6.255  16.726  0.00  0.00    +0.000 A 
ATOM     26  C   UNL     1       6.891   7.213  17.214  0.00  0.00    +0.000 A 
ATOM     27  C   UNL     1       7.775   6.926  18.251  0.00  0.00    +0.000 A 
ATOM     28  C   UNL     1       7.764   5.666  18.826  0.00  0.00    +0.000 A 
ATOM     29  C   UNL     1       6.866   4.705  18.359  0.00  0.00    +0.000 A 
ATOM     30  C   UNL     1       5.961   4.976  17.313  0.00  0.00    +0.000 A 
ENDBRANCH  23  30
ENDBRANCH  22  23
ENDBRANCH  18  22
ENDBRANCH   1  20
TORSDOF 7
ENDMDL
MODEL 5
REMARK VINA RESULT:      -7.7      6.217      9.578
REMARK  Name = 
REMARK  8 active torsions:
REMARK  status: ('A' for Active; 'I' for Inactive)
REMARK    1  A    between atoms: C_1  and  C_2
REMARK    2  A    between atoms: C_7  and  O_8
REMARK    3  A    between atoms: O_8  and  C_9
REMARK    4  A    between atoms: C_9  and  C_10
REMARK    5  A    between atoms: N_12  and  N_13
REMARK    6  A    between atoms: C_14  and  C_15
REMARK    7  A    between atoms: C_18  and  S_19
REMARK    8  A    between atoms: S_19  and  C_20
REMARK                            x       y       z     vdW  Elec       q    Type
REMARK                         _______ _______ _______ _____ _____    ______ ____
ROOT
ATOM      1  N   UNL     1       4.166   7.342  17.783  0.00  0.00    +0.000 NA
ATOM      2  C   UNL     1       2.931   7.578  17.477  0.00  0.00    +0.000 C 
ENDROOT
BRANCH   2   3
ATOM      3  C   UNL     1       2.210   8.459  18.351  0.00  0.00    +0.000 A 
ATOM      4  C   UNL     1       1.565   8.202  19.545  0.00  0.00    +0.000 A 
ATOM      5  C   UNL     1       0.966   9.413  19.950  0.00  0.00    +0.000 A 
ATOM      6  C   UNL     1       1.296  10.365  19.000  0.00  0.00    +0.000 A 
ATOM      7  O   UNL     1       2.056   9.772  18.020  0.00  0.00    +0.000 OA
BRANCH   6   8
ATOM      8  S   UNL     1       0.792  12.026  18.857  0.00  0.00    +0.000 S 
BRANCH   8   9
ATOM      9  C   UNL     1      -0.953  11.849  18.726  0.00  0.00    +0.000 A 
ATOM     10  N   UNL     1      -1.814  12.422  19.536  0.00  0.00    +0.000 NA
ATOM     11  C   UNL     1      -3.105  12.042  19.201  0.00  0.00    +0.000 A 
ATOM     12  C   UNL     1      -4.288  12.460  19.845  0.00  0.00    +0.000 A 
ATOM     13  C   UNL     1      -5.530  11.989  19.401  0.00  0.00    +0.000 A 
ATOM     14  C   UNL     1      -5.607  11.109  18.326  0.00  0.00    +0.000 A 
ATOM     15  C   UNL     1      -4.450  10.678  17.670  0.00  0.00    +0.000 A 
ATOM     16  C   UNL     1      -3.209  11.158  18.124  0.00  0.00    +0.000 A 
ATOM     17  S   UNL     1      -1.630  10.810  17.538  0.00  0.00    +0.000 S 
ENDBRANCH   8   9
ENDBRANCH   6   8
ENDBRANCH   2   3
BRANCH   1  20
ATOM     18  C   UNL     1       5.602   5.472  17.592  0.00  0.00    +0.000 C 
ATOM     19  O   UNL     1       6.273   4.702  16.906  0.00  0.00    +0.000 OA
ATOM     20  N   UNL     1       4.900   6.512  17.008  0.00  0.00    +0.000 N 
ATOM     21  H   UNL     1       4.960   6.622  16.001  0.00  0.00    +0.000 HD
BRANCH  18  22
ATOM     22  C   UNL     1       5.451   5.320  19.115  0.00  0.00    +0.000 C 
BRANCH  22  23
ATOM     23  O   UNL     1       5.012   4.023  19.470  0.00  0.00    +0.000 OA
BRANCH  23  30
ATOM     24  C   UNL     1       3.478   1.391  18.556  0.00  0.00    +0.000 C 
ATOM     25  C   UNL     1       2.935   2.613  19.240  0.00  0.00    +0.000 A 
ATOM     26  C   UNL     1       1.547   2.596  19.514  0.00  0.00    +0.000 A 
ATOM     27  C   UNL     1       0.904   3.661  20.140  0.00  0.00    +0.000 A 
ATOM     28  C   UNL     1       1.637   4.778  20.505  0.00  0.00    +0.000 A 
ATOM     29  C   UNL     1       3.007   4.817  20.243  0.00  0.00    +0.000 A 
ATOM     30  C   UNL     1       3.677   3.748  19.614  0.00  0.00    +0.000 A 
ENDBRANCH  23  30
ENDBRANCH  22  23
ENDBRANCH  18  22
ENDBRANCH   1  20
TORSDOF 7
ENDMDL
MODEL 6
REMARK VINA RESULT:      -7.7      6.488     10.018
REMARK  Name = 
REMARK  8 active torsions:
REMARK  status: ('A' for Active; 'I' for Inactive)
REMARK    1  A    between atoms: C_1  and  C_2
REMARK    2  A    between atoms: C_7  and  O_8
REMARK    3  A    between atoms: O_8  and  C_9
REMARK    4  A    between atoms: C_9  and  C_10
REMARK    5  A    between atoms: N_12  and  N_13
REMARK    6  A    between atoms: C_14  and  C_15
REMARK    7  A    between atoms: C_18  and  S_19
REMARK    8  A    between atoms: S_19  and  C_20
REMARK                            x       y       z     vdW  Elec       q    Type
REMARK                         _______ _______ _______ _____ _____    ______ ____
ROOT
ATOM      1  N   UNL     1       2.719   7.665  18.457  0.00  0.00    +0.000 NA
ATOM      2  C   UNL     1       2.039   8.764  18.419  0.00  0.00    +0.000 C 
ENDROOT
BRANCH   2   3
ATOM      3  C   UNL     1       1.366   9.146  19.628  0.00  0.00    +0.000 A 
ATOM      4  C   UNL     1       1.005   8.390  20.727  0.00  0.00    +0.000 A 
ATOM      5  C   UNL     1       0.312   9.252  21.600  0.00  0.00    +0.000 A 
ATOM      6  C   UNL     1       0.306  10.506  21.012  0.00  0.00    +0.000 A 
ATOM      7  O   UNL     1       0.951  10.432  19.800  0.00  0.00    +0.000 OA
BRANCH   6   8
ATOM      8  S   UNL     1      -0.468  11.979  21.524  0.00  0.00    +0.000 S 
BRANCH   8   9
ATOM      9  C   UNL     1      -1.896  11.997  20.499  0.00  0.00    +0.000 A 
ATOM     10  N   UNL     1      -1.935  11.505  19.281  0.00  0.00    +0.000 NA
ATOM     11  C   UNL     1      -3.185  11.722  18.721  0.00  0.00    +0.000 A 
ATOM     12  C   UNL     1      -3.597  11.329  17.431  0.00  0.00    +0.000 A 
ATOM     13  C   UNL     1      -4.894  11.622  16.992  0.00  0.00    +0.000 A 
ATOM     14  C   UNL     1      -5.784  12.298  17.821  0.00  0.00    +0.000 A 
ATOM     15  C   UNL     1      -5.401  12.701  19.104  0.00  0.00    +0.000 A 
ATOM     16  C   UNL     1      -4.096  12.401  19.534  0.00  0.00    +0.000 A 
ATOM     17  S   UNL     1      -3.337  12.765  21.034  0.00  0.00    +0.000 S 
ENDBRANCH   8   9
ENDBRANCH   6   8
ENDBRANCH   2   3
BRANCH   1  20
ATOM     18  C   UNL     1       4.334   6.256  17.455  0.00  0.00    +0.000 C 
ATOM     19  O   UNL     1       4.935   5.852  16.459  0.00  0.00    +0.000 OA
ATOM     20  N   UNL     1       3.369   7.242  17.349  0.00  0.00    +0.000 N 
ATOM     21  H   UNL     1       3.176   7.624  16.429  0.00  0.00    +0.000 HD
BRANCH  18  22
ATOM     22  C   UNL     1       4.565   5.679  18.862  0.00  0.00    +0.000 C 
BRANCH  22  23
ATOM     23  O   UNL     1       4.293   4.291  18.910  0.00  0.00    +0.000 OA
BRANCH  23  30
ATOM     24  C   UNL     1       1.370   4.271  17.657  0.00  0.00    +0.000 C 
ATOM     25  C   UNL     1       1.827   3.776  19.000  0.00  0.00    +0.000 A 
ATOM     26  C   UNL     1       0.818   3.227  19.826  0.00  0.00    +0.000 A 
ATOM     27  C   UNL     1       1.093   2.733  21.098  0.00  0.00    +0.000 A 
ATOM     28  C   UNL     1       2.391   2.780  21.580  0.00  0.00    +0.000 A 
ATOM     29  C   UNL     1       3.402   3.318  20.783  0.00  0.00    +0.000 A 
ATOM     30  C   UNL     1       3.145   3.820  19.491  0.00  0.00    +0.000 A 
ENDBRANCH  23  30
ENDBRANCH  22  23
ENDBRANCH  18  22
ENDBRANCH   1  20
TORSDOF 7
ENDMDL
MODEL 7
REMARK VINA RESULT:      -7.6      4.861      9.349
REMARK  Name = 
REMARK  8 active torsions:
REMARK  status: ('A' for Active; 'I' for Inactive)
REMARK    1  A    between atoms: C_1  and  C_2
REMARK    2  A    between atoms: C_7  and  O_8
REMARK    3  A    between atoms: O_8  and  C_9
REMARK    4  A    between atoms: C_9  and  C_10
REMARK    5  A    between atoms: N_12  and  N_13
REMARK    6  A    between atoms: C_14  and  C_15
REMARK    7  A    between atoms: C_18  and  S_19
REMARK    8  A    between atoms: S_19  and  C_20
REMARK                            x       y       z     vdW  Elec       q    Type
REMARK                         _______ _______ _______ _____ _____    ______ ____
ROOT
ATOM      1  N   UNL     1       3.315   6.079  19.644  0.00  0.00    +0.000 NA
ATOM      2  C   UNL     1       2.191   6.674  19.878  0.00  0.00    +0.000 C 
ENDROOT
BRANCH   2   3
ATOM      3  C   UNL     1       1.964   7.914  19.191  0.00  0.00    +0.000 A 
ATOM      4  C   UNL     1       2.495   8.390  18.007  0.00  0.00    +0.000 A 
ATOM      5  C   UNL     1       1.980   9.690  17.828  0.00  0.00    +0.000 A 
ATOM      6  C   UNL     1       1.133   9.941  18.895  0.00  0.00    +0.000 A 
ATOM      7  O   UNL     1       1.132   8.848  19.729  0.00  0.00    +0.000 OA
BRANCH   6   8
ATOM      8  S   UNL     1       0.268  11.391  19.319  0.00  0.00    +0.000 S 
BRANCH   8   9
ATOM      9  C   UNL     1       1.590  12.512  19.614  0.00  0.00    +0.000 A 
ATOM     10  N   UNL     1       2.024  12.840  20.811  0.00  0.00    +0.000 NA
ATOM     11  C   UNL     1       3.036  13.782  20.705  0.00  0.00    +0.000 A 
ATOM     12  C   UNL     1       3.744  14.365  21.777  0.00  0.00    +0.000 A 
ATOM     13  C   UNL     1       4.742  15.313  21.523  0.00  0.00    +0.000 A 
ATOM     14  C   UNL     1       5.043  15.687  20.217  0.00  0.00    +0.000 A 
ATOM     15  C   UNL     1       4.357  15.127  19.135  0.00  0.00    +0.000 A 
ATOM     16  C   UNL     1       3.357  14.175  19.403  0.00  0.00    +0.000 A 
ATOM     17  S   UNL     1       2.345  13.324  18.303  0.00  0.00    +0.000 S 
ENDBRANCH   8   9
ENDBRANCH   6   8
ENDBRANCH   2   3
BRANCH   1  20
ATOM     18  C   UNL     1       3.929   3.798  19.515  0.00  0.00    +0.000 C 
ATOM     19  O   UNL     1       4.193   2.726  20.061  0.00  0.00    +0.000 OA
ATOM     20  N   UNL     1       3.597   4.912  20.267  0.00  0.00    +0.000 N 
ATOM     21  H   UNL     1       3.573   4.818  21.276  0.00  0.00    +0.000 HD
BRANCH  18  22
ATOM     22  C   UNL     1       3.989   3.997  17.992  0.00  0.00    +0.000 C 
BRANCH  22  23
ATOM     23  O   UNL     1       5.323   4.024  17.520  0.00  0.00    +0.000 OA
BRANCH  23  30
ATOM     24  C   UNL     1       5.046   6.696  15.818  0.00  0.00    +0.000 C 
ATOM     25  C   UNL     1       6.018   6.371  16.917  0.00  0.00    +0.000 A 
ATOM     26  C   UNL     1       6.942   7.392  17.239  0.00  0.00    +0.000 A 
ATOM     27  C   UNL     1       7.904   7.230  18.233  0.00  0.00    +0.000 A 
ATOM     28  C   UNL     1       7.968   6.035  18.930  0.00  0.00    +0.000 A 
ATOM     29  C   UNL     1       7.067   5.013  18.627  0.00  0.00    +0.000 A 
ATOM     30  C   UNL     1       6.083   5.158  17.627  0.00  0.00    +0.000 A 
ENDBRANCH  23  30
ENDBRANCH  22  23
ENDBRANCH  18  22
ENDBRANCH   1  20
TORSDOF 7
ENDMDL
MODEL 8
REMARK VINA RESULT:      -7.6      5.958      9.813
REMARK  Name = 
REMARK  8 active torsions:
REMARK  status: ('A' for Active; 'I' for Inactive)
REMARK    1  A    between atoms: C_1  and  C_2
REMARK    2  A    between atoms: C_7  and  O_8
REMARK    3  A    between atoms: O_8  and  C_9
REMARK    4  A    between atoms: C_9  and  C_10
REMARK    5  A    between atoms: N_12  and  N_13
REMARK    6  A    between atoms: C_14  and  C_15
REMARK    7  A    between atoms: C_18  and  S_19
REMARK    8  A    between atoms: S_19  and  C_20
REMARK                            x       y       z     vdW  Elec       q    Type
REMARK                         _______ _______ _______ _____ _____    ______ ____
ROOT
ATOM      1  N   UNL     1       3.700   6.548  17.690  0.00  0.00    +0.000 NA
ATOM      2  C   UNL     1       3.483   7.805  17.478  0.00  0.00    +0.000 C 
ENDROOT
BRANCH   2   3
ATOM      3  C   UNL     1       2.396   8.401  18.202  0.00  0.00    +0.000 A 
ATOM      4  C   UNL     1       1.447   9.318  17.794  0.00  0.00    +0.000 A 
ATOM      5  C   UNL     1       0.656   9.611  18.923  0.00  0.00    +0.000 A 
ATOM      6  C   UNL     1       1.137   8.837  19.967  0.00  0.00    +0.000 A 
ATOM      7  O   UNL     1       2.208   8.101  19.517  0.00  0.00    +0.000 OA
BRANCH   6   8
ATOM      8  S   UNL     1       0.669   8.802  21.643  0.00  0.00    +0.000 S 
BRANCH   8   9
ATOM      9  C   UNL     1       0.172  10.469  21.900  0.00  0.00    +0.000 A 
ATOM     10  N   UNL     1       0.781  11.508  21.375  0.00  0.00    +0.000 NA
ATOM     11  C   UNL     1       0.181  12.679  21.812  0.00  0.00    +0.000 A 
ATOM     12  C   UNL     1       0.560  13.990  21.455  0.00  0.00    +0.000 A 
ATOM     13  C   UNL     1      -0.135  15.086  21.980  0.00  0.00    +0.000 A 
ATOM     14  C   UNL     1      -1.200  14.894  22.854  0.00  0.00    +0.000 A 
ATOM     15  C   UNL     1      -1.596  13.605  23.226  0.00  0.00    +0.000 A 
ATOM     16  C   UNL     1      -0.891  12.512  22.692  0.00  0.00    +0.000 A 
ATOM     17  S   UNL     1      -1.130  10.830  22.961  0.00  0.00    +0.000 S 
ENDBRANCH   8   9
ENDBRANCH   6   8
ENDBRANCH   2   3
BRANCH   1  20
ATOM     18  C   UNL     1       5.532   5.053  17.717  0.00  0.00    +0.000 C 
ATOM     19  O   UNL     1       6.448   4.468  17.137  0.00  0.00    +0.000 OA
ATOM     20  N   UNL     1       4.701   5.921  17.032  0.00  0.00    +0.000 N 
ATOM     21  H   UNL     1       4.873   6.066  16.042  0.00  0.00    +0.000 HD
BRANCH  18  22
ATOM     22  C   UNL     1       5.213   4.835  19.205  0.00  0.00    +0.000 C 
BRANCH  22  23
ATOM     23  O   UNL     1       4.691   3.542  19.445  0.00  0.00    +0.000 OA
BRANCH  23  30
ATOM     24  C   UNL     1       2.567   3.061  17.127  0.00  0.00    +0.000 C 
ATOM     25  C   UNL     1       2.348   3.123  18.613  0.00  0.00    +0.000 A 
ATOM     26  C   UNL     1       1.012   2.947  19.043  0.00  0.00    +0.000 A 
ATOM     27  C   UNL     1       0.659   2.985  20.390  0.00  0.00    +0.000 A 
ATOM     28  C   UNL     1       1.639   3.205  21.344  0.00  0.00    +0.000 A 
ATOM     29  C   UNL     1       2.963   3.382  20.941  0.00  0.00    +0.000 A 
ATOM     30  C   UNL     1       3.342   3.344  19.584  0.00  0.00    +0.000 A 
ENDBRANCH  23  30
ENDBRANCH  22  23
ENDBRANCH  18  22
ENDBRANCH   1  20
TORSDOF 7
ENDMDL
MODEL 9
REMARK VINA RESULT:      -7.6      6.346      9.700
REMARK  Name = 
REMARK  8 active torsions:
REMARK  status: ('A' for Active; 'I' for Inactive)
REMARK    1  A    between atoms: C_1  and  C_2
REMARK    2  A    between atoms: C_7  and  O_8
REMARK    3  A    between atoms: O_8  and  C_9
REMARK    4  A    between atoms: C_9  and  C_10
REMARK    5  A    between atoms: N_12  and  N_13
REMARK    6  A    between atoms: C_14  and  C_15
REMARK    7  A    between atoms: C_18  and  S_19
REMARK    8  A    between atoms: S_19  and  C_20
REMARK                            x       y       z     vdW  Elec       q    Type
REMARK                         _______ _______ _______ _____ _____    ______ ____
ROOT
ATOM      1  N   UNL     1       3.840   6.794  17.772  0.00  0.00    +0.000 NA
ATOM      2  C   UNL     1       3.114   7.713  17.223  0.00  0.00    +0.000 C 
ENDROOT
BRANCH   2   3
ATOM      3  C   UNL     1       2.349   8.543  18.110  0.00  0.00    +0.000 A 
ATOM      4  C   UNL     1       1.639   8.217  19.250  0.00  0.00    +0.000 A 
ATOM      5  C   UNL     1       1.024   9.404  19.696  0.00  0.00    +0.000 A 
ATOM      6  C   UNL     1       1.409  10.411  18.826  0.00  0.00    +0.000 A 
ATOM      7  O   UNL     1       2.219   9.874  17.854  0.00  0.00    +0.000 OA
BRANCH   6   8
ATOM      8  S   UNL     1       0.920  12.081  18.761  0.00  0.00    +0.000 S 
BRANCH   8   9
ATOM      9  C   UNL     1      -0.832  11.931  18.786  0.00  0.00    +0.000 A 
ATOM     10  N   UNL     1      -1.531  11.309  17.864  0.00  0.00    +0.000 NA
ATOM     11  C   UNL     1      -2.885  11.415  18.144  0.00  0.00    +0.000 A 
ATOM     12  C   UNL     1      -3.936  10.869  17.379  0.00  0.00    +0.000 A 
ATOM     13  C   UNL     1      -5.265  11.061  17.778  0.00  0.00    +0.000 A 
ATOM     14  C   UNL     1      -5.557  11.789  18.927  0.00  0.00    +0.000 A 
ATOM     15  C   UNL     1      -4.535  12.343  19.704  0.00  0.00    +0.000 A 
ATOM     16  C   UNL     1      -3.205  12.143  19.293  0.00  0.00    +0.000 A 
ATOM     17  S   UNL     1      -1.748  12.697  20.021  0.00  0.00    +0.000 S 
ENDBRANCH   8   9
ENDBRANCH   6   8
ENDBRANCH   2   3
BRANCH   1  20
ATOM     18  C   UNL     1       5.348   4.982  17.580  0.00  0.00    +0.000 C 
ATOM     19  O   UNL     1       6.024   4.217  16.891  0.00  0.00    +0.000 OA
ATOM     20  N   UNL     1       4.577   5.970  16.993  0.00  0.00    +0.000 N 
ATOM     21  H   UNL     1       4.590   6.048  15.982  0.00  0.00    +0.000 HD
BRANCH  18  22
ATOM     22  C   UNL     1       5.269   4.875  19.112  0.00  0.00    +0.000 C 
BRANCH  22  23
ATOM     23  O   UNL     1       4.704   3.645  19.523  0.00  0.00    +0.000 OA
BRANCH  23  30
ATOM     24  C   UNL     1       2.961   2.188  17.298  0.00  0.00    +0.000 C 
ATOM     25  C   UNL     1       2.513   2.827  18.582  0.00  0.00    +0.000 A 
ATOM     26  C   UNL     1       1.123   2.780  18.837  0.00  0.00    +0.000 A 
ATOM     27  C   UNL     1       0.564   3.335  19.985  0.00  0.00    +0.000 A 
ATOM     28  C   UNL     1       1.386   3.959  20.909  0.00  0.00    +0.000 A 
ATOM     29  C   UNL     1       2.760   4.019  20.676  0.00  0.00    +0.000 A 
ATOM     30  C   UNL     1       3.347   3.460  19.522  0.00  0.00    +0.000 A 
ENDBRANCH  23  30
ENDBRANCH  22  23
ENDBRANCH  18  22
ENDBRANCH   1  20
TORSDOF 7
ENDMDL
