MODEL 1
REMARK VINA RESULT:      -7.1      0.000      0.000
REMARK  Name = 
REMARK  4 active torsions:
REMARK  status: ('A' for Active; 'I' for Inactive)
REMARK    1  A    between atoms: C_1  and  N_2
REMARK    2  A    between atoms: N_9  and  O_10
REMARK    3  A    between atoms: O_10  and  C_11
REMARK    4  A    between atoms: C_11  and  C_12
REMARK                            x       y       z     vdW  Elec       q    Type
REMARK                         _______ _______ _______ _____ _____    ______ ____
ROOT
ATOM      1  C   UNL     1       1.221   4.247  17.579  0.00  0.00    +0.000 C 
ATOM      2  N   UNL     1       1.439   3.739  18.913  0.00  0.00    +0.000 NA
ATOM      3  C   UNL     1       1.965   4.714  19.853  0.00  0.00    +0.000 C 
ATOM      4  C   UNL     1       1.753   3.902  21.142  0.00  0.00    +0.000 C 
ATOM      5  C   UNL     1       1.775   2.427  20.701  0.00  0.00    +0.000 C 
ATOM      6  C   UNL     1       2.165   2.499  19.217  0.00  0.00    +0.000 C 
ATOM      7  C   UNL     1       3.719   2.499  19.157  0.00  0.00    +0.000 C 
ATOM      8  C   UNL     1       4.317   3.845  19.541  0.00  0.00    +0.000 C 
ATOM      9  N   UNL     1       5.595   3.992  19.780  0.00  0.00    +0.000 NA
ATOM     10  C   UNL     1       3.398   5.037  19.433  0.00  0.00    +0.000 C 
ENDROOT
BRANCH   9  11
ATOM     11  O   UNL     1       5.908   5.362  19.587  0.00  0.00    +0.000 OA
BRANCH  11  12
ATOM     12  C   UNL     1       7.034   5.607  18.748  0.00  0.00    +0.000 C 
BRANCH  12  13
ATOM     13  C   UNL     1       6.618   5.501  17.294  0.00  0.00    +0.000 A 
ATOM     14  C   UNL     1       5.670   6.371  16.766  0.00  0.00    +0.000 A 
ATOM     15  C   UNL     1       5.249   6.267  15.445  0.00  0.00    +0.000 A 
ATOM     16  C   UNL     1       5.775   5.258  14.633  0.00  0.00    +0.000 A 
ATOM     17  C   UNL     1       6.698   4.353  15.137  0.00  0.00    +0.000 A 
ATOM     18  C   UNL     1       7.112   4.467  16.471  0.00  0.00    +0.000 A 
ENDBRANCH  12  13
ENDBRANCH  11  12
ENDBRANCH   9  11
TORSDOF 3
ENDMDL
MODEL 2
REMARK VINA RESULT:      -7.0      1.915      6.043
REMARK  Name = 
REMARK  4 active torsions:
REMARK  status: ('A' for Active; 'I' for Inactive)
REMARK    1  A    between atoms: C_1  and  N_2
REMARK    2  A    between atoms: N_9  and  O_10
REMARK    3  A    between atoms: O_10  and  C_11
REMARK    4  A    between atoms: C_11  and  C_12
REMARK                            x       y       z     vdW  Elec       q    Type
REMARK                         _______ _______ _______ _____ _____    ______ ____
ROOT
ATOM      1  C   UNL     1       7.231   5.191  14.506  0.00  0.00    +0.000 C 
ATOM      2  N   UNL     1       7.346   5.419  15.928  0.00  0.00    +0.000 NA
ATOM      3  C   UNL     1       6.787   4.365  16.757  0.00  0.00    +0.000 C 
ATOM      4  C   UNL     1       7.372   4.823  18.103  0.00  0.00    +0.000 C 
ATOM      5  C   UNL     1       7.588   6.340  17.958  0.00  0.00    +0.000 C 
ATOM      6  C   UNL     1       6.955   6.667  16.598  0.00  0.00    +0.000 C 
ATOM      7  C   UNL     1       5.447   6.945  16.856  0.00  0.00    +0.000 C 
ATOM      8  C   UNL     1       4.651   5.670  17.097  0.00  0.00    +0.000 C 
ATOM      9  N   UNL     1       3.428   5.695  17.558  0.00  0.00    +0.000 NA
ATOM     10  C   UNL     1       5.270   4.393  16.584  0.00  0.00    +0.000 C 
ENDROOT
BRANCH   9  11
ATOM     11  O   UNL     1       2.807   4.476  17.182  0.00  0.00    +0.000 OA
BRANCH  11  12
ATOM     12  C   UNL     1       1.594   4.183  17.870  0.00  0.00    +0.000 C 
BRANCH  12  13
ATOM     13  C   UNL     1       1.910   3.540  19.206  0.00  0.00    +0.000 A 
ATOM     14  C   UNL     1       0.968   3.537  20.229  0.00  0.00    +0.000 A 
ATOM     15  C   UNL     1       1.252   2.984  21.473  0.00  0.00    +0.000 A 
ATOM     16  C   UNL     1       2.515   2.435  21.709  0.00  0.00    +0.000 A 
ATOM     17  C   UNL     1       3.490   2.450  20.722  0.00  0.00    +0.000 A 
ATOM     18  C   UNL     1       3.192   3.013  19.473  0.00  0.00    +0.000 A 
ENDBRANCH  12  13
ENDBRANCH  11  12
ENDBRANCH   9  11
TORSDOF 3
ENDMDL
MODEL 3
REMARK VINA RESULT:      -7.0      1.906      6.141
REMARK  Name = 
REMARK  4 active torsions:
REMARK  status: ('A' for Active; 'I' for Inactive)
REMARK    1  A    between atoms: C_1  and  N_2
REMARK    2  A    between atoms: N_9  and  O_10
REMARK    3  A    between atoms: O_10  and  C_11
REMARK    4  A    between atoms: C_11  and  C_12
REMARK                            x       y       z     vdW  Elec       q    Type
REMARK                         _______ _______ _______ _____ _____    ______ ____
ROOT
ATOM      1  C   UNL     1       7.319   5.293  14.538  0.00  0.00    +0.000 C 
ATOM      2  N   UNL     1       7.421   5.463  15.969  0.00  0.00    +0.000 NA
ATOM      3  C   UNL     1       6.874   4.366  16.749  0.00  0.00    +0.000 C 
ATOM      4  C   UNL     1       7.444   4.775  18.118  0.00  0.00    +0.000 C 
ATOM      5  C   UNL     1       7.637   6.300  18.038  0.00  0.00    +0.000 C 
ATOM      6  C   UNL     1       7.007   6.675  16.689  0.00  0.00    +0.000 C 
ATOM      7  C   UNL     1       5.493   6.919  16.949  0.00  0.00    +0.000 C 
ATOM      8  C   UNL     1       4.716   5.623  17.129  0.00  0.00    +0.000 C 
ATOM      9  N   UNL     1       3.489   5.608  17.583  0.00  0.00    +0.000 NA
ATOM     10  C   UNL     1       5.358   4.378  16.567  0.00  0.00    +0.000 C 
ENDROOT
BRANCH   9  11
ATOM     11  O   UNL     1       2.890   4.398  17.151  0.00  0.00    +0.000 OA
BRANCH  11  12
ATOM     12  C   UNL     1       1.665   4.070  17.801  0.00  0.00    +0.000 C 
BRANCH  12  13
ATOM     13  C   UNL     1       1.952   3.546  19.194  0.00  0.00    +0.000 A 
ATOM     14  C   UNL     1       3.141   2.879  19.467  0.00  0.00    +0.000 A 
ATOM     15  C   UNL     1       3.407   2.361  20.729  0.00  0.00    +0.000 A 
ATOM     16  C   UNL     1       2.455   2.496  21.743  0.00  0.00    +0.000 A 
ATOM     17  C   UNL     1       1.244   3.128  21.497  0.00  0.00    +0.000 A 
ATOM     18  C   UNL     1       0.987   3.643  20.219  0.00  0.00    +0.000 A 
ENDBRANCH  12  13
ENDBRANCH  11  12
ENDBRANCH   9  11
TORSDOF 3
ENDMDL
MODEL 4
REMARK VINA RESULT:      -7.0      0.289      1.174
REMARK  Name = 
REMARK  4 active torsions:
REMARK  status: ('A' for Active; 'I' for Inactive)
REMARK    1  A    between atoms: C_1  and  N_2
REMARK    2  A    between atoms: N_9  and  O_10
REMARK    3  A    between atoms: O_10  and  C_11
REMARK    4  A    between atoms: C_11  and  C_12
REMARK                            x       y       z     vdW  Elec       q    Type
REMARK                         _______ _______ _______ _____ _____    ______ ____
ROOT
ATOM      1  C   UNL     1       1.371   4.860  17.751  0.00  0.00    +0.000 C 
ATOM      2  N   UNL     1       1.598   4.109  18.963  0.00  0.00    +0.000 NA
ATOM      3  C   UNL     1       2.237   4.860  20.030  0.00  0.00    +0.000 C 
ATOM      4  C   UNL     1       2.009   3.849  21.166  0.00  0.00    +0.000 C 
ATOM      5  C   UNL     1       1.895   2.479  20.474  0.00  0.00    +0.000 C 
ATOM      6  C   UNL     1       2.233   2.785  19.008  0.00  0.00    +0.000 C 
ATOM      7  C   UNL     1       3.778   2.683  18.869  0.00  0.00    +0.000 C 
ATOM      8  C   UNL     1       4.497   3.892  19.450  0.00  0.00    +0.000 C 
ATOM      9  N   UNL     1       5.790   3.901  19.644  0.00  0.00    +0.000 NA
ATOM     10  C   UNL     1       3.673   5.148  19.599  0.00  0.00    +0.000 C 
ENDROOT
BRANCH   9  11
ATOM     11  O   UNL     1       6.206   5.257  19.677  0.00  0.00    +0.000 OA
BRANCH  11  12
ATOM     12  C   UNL     1       7.220   5.597  18.736  0.00  0.00    +0.000 C 
BRANCH  12  13
ATOM     13  C   UNL     1       6.678   5.445  17.328  0.00  0.00    +0.000 A 
ATOM     14  C   UNL     1       7.177   4.461  16.481  0.00  0.00    +0.000 A 
ATOM     15  C   UNL     1       6.718   4.329  15.176  0.00  0.00    +0.000 A 
ATOM     16  C   UNL     1       5.747   5.212  14.695  0.00  0.00    +0.000 A 
ATOM     17  C   UNL     1       5.250   6.225  15.503  0.00  0.00    +0.000 A 
ATOM     18  C   UNL     1       5.724   6.350  16.816  0.00  0.00    +0.000 A 
ENDBRANCH  12  13
ENDBRANCH  11  12
ENDBRANCH   9  11
TORSDOF 3
ENDMDL
MODEL 5
REMARK VINA RESULT:      -6.9      1.574      2.474
REMARK  Name = 
REMARK  4 active torsions:
REMARK  status: ('A' for Active; 'I' for Inactive)
REMARK    1  A    between atoms: C_1  and  N_2
REMARK    2  A    between atoms: N_9  and  O_10
REMARK    3  A    between atoms: O_10  and  C_11
REMARK    4  A    between atoms: C_11  and  C_12
REMARK                            x       y       z     vdW  Elec       q    Type
REMARK                         _______ _______ _______ _____ _____    ______ ____
ROOT
ATOM      1  C   UNL     1       3.780   1.548  18.672  0.00  0.00    +0.000 C 
ATOM      2  N   UNL     1       2.623   2.101  19.337  0.00  0.00    +0.000 NA
ATOM      3  C   UNL     1       1.747   2.879  18.479  0.00  0.00    +0.000 C 
ATOM      4  C   UNL     1       0.556   2.999  19.445  0.00  0.00    +0.000 C 
ATOM      5  C   UNL     1       1.162   2.870  20.854  0.00  0.00    +0.000 C 
ATOM      6  C   UNL     1       2.676   2.853  20.598  0.00  0.00    +0.000 C 
ATOM      7  C   UNL     1       3.146   4.335  20.573  0.00  0.00    +0.000 C 
ATOM      8  C   UNL     1       2.775   5.044  19.278  0.00  0.00    +0.000 C 
ATOM      9  N   UNL     1       2.870   6.342  19.147  0.00  0.00    +0.000 NA
ATOM     10  C   UNL     1       2.491   4.155  18.092  0.00  0.00    +0.000 C 
ENDROOT
BRANCH   9  11
ATOM     11  O   UNL     1       2.972   6.623  17.761  0.00  0.00    +0.000 OA
BRANCH  11  12
ATOM     12  C   UNL     1       4.163   7.303  17.373  0.00  0.00    +0.000 C 
BRANCH  12  13
ATOM     13  C   UNL     1       5.190   6.295  16.895  0.00  0.00    +0.000 A 
ATOM     14  C   UNL     1       6.171   5.821  17.760  0.00  0.00    +0.000 A 
ATOM     15  C   UNL     1       7.142   4.924  17.330  0.00  0.00    +0.000 A 
ATOM     16  C   UNL     1       7.147   4.500  15.999  0.00  0.00    +0.000 A 
ATOM     17  C   UNL     1       6.202   4.977  15.101  0.00  0.00    +0.000 A 
ATOM     18  C   UNL     1       5.231   5.884  15.545  0.00  0.00    +0.000 A 
ENDBRANCH  12  13
ENDBRANCH  11  12
ENDBRANCH   9  11
TORSDOF 3
ENDMDL
MODEL 6
REMARK VINA RESULT:      -6.9      1.573      2.620
REMARK  Name = 
REMARK  4 active torsions:
REMARK  status: ('A' for Active; 'I' for Inactive)
REMARK    1  A    between atoms: C_1  and  N_2
REMARK    2  A    between atoms: N_9  and  O_10
REMARK    3  A    between atoms: O_10  and  C_11
REMARK    4  A    between atoms: C_11  and  C_12
REMARK                            x       y       z     vdW  Elec       q    Type
REMARK                         _______ _______ _______ _____ _____    ______ ____
ROOT
ATOM      1  C   UNL     1       4.320   2.050  19.794  0.00  0.00    +0.000 C 
ATOM      2  N   UNL     1       2.928   2.394  19.969  0.00  0.00    +0.000 NA
ATOM      3  C   UNL     1       2.245   2.792  18.749  0.00  0.00    +0.000 C 
ATOM      4  C   UNL     1       0.806   2.758  19.291  0.00  0.00    +0.000 C 
ATOM      5  C   UNL     1       0.937   2.998  20.806  0.00  0.00    +0.000 C 
ATOM      6  C   UNL     1       2.427   3.318  20.995  0.00  0.00    +0.000 C 
ATOM      7  C   UNL     1       2.592   4.849  20.777  0.00  0.00    +0.000 C 
ATOM      8  C   UNL     1       2.533   5.239  19.306  0.00  0.00    +0.000 C 
ATOM      9  N   UNL     1       2.418   6.484  18.924  0.00  0.00    +0.000 NA
ATOM     10  C   UNL     1       2.820   4.138  18.314  0.00  0.00    +0.000 C 
ENDROOT
BRANCH   9  11
ATOM     11  O   UNL     1       2.907   6.569  17.596  0.00  0.00    +0.000 OA
BRANCH  11  12
ATOM     12  C   UNL     1       4.123   7.299  17.449  0.00  0.00    +0.000 C 
BRANCH  12  13
ATOM     13  C   UNL     1       5.220   6.368  16.972  0.00  0.00    +0.000 A 
ATOM     14  C   UNL     1       5.267   5.952  15.645  0.00  0.00    +0.000 A 
ATOM     15  C   UNL     1       6.244   5.072  15.197  0.00  0.00    +0.000 A 
ATOM     16  C   UNL     1       7.191   4.578  16.098  0.00  0.00    +0.000 A 
ATOM     17  C   UNL     1       7.155   4.947  17.436  0.00  0.00    +0.000 A 
ATOM     18  C   UNL     1       6.162   5.833  17.876  0.00  0.00    +0.000 A 
ENDBRANCH  12  13
ENDBRANCH  11  12
ENDBRANCH   9  11
TORSDOF 3
ENDMDL
MODEL 7
REMARK VINA RESULT:      -6.8      1.992      6.156
REMARK  Name = 
REMARK  4 active torsions:
REMARK  status: ('A' for Active; 'I' for Inactive)
REMARK    1  A    between atoms: C_1  and  N_2
REMARK    2  A    between atoms: N_9  and  O_10
REMARK    3  A    between atoms: O_10  and  C_11
REMARK    4  A    between atoms: C_11  and  C_12
REMARK                            x       y       z     vdW  Elec       q    Type
REMARK                         _______ _______ _______ _____ _____    ______ ____
ROOT
ATOM      1  C   UNL     1       7.130   5.223  14.062  0.00  0.00    +0.000 C 
ATOM      2  N   UNL     1       7.255   5.418  15.487  0.00  0.00    +0.000 NA
ATOM      3  C   UNL     1       7.060   4.217  16.281  0.00  0.00    +0.000 C 
ATOM      4  C   UNL     1       7.568   4.767  17.625  0.00  0.00    +0.000 C 
ATOM      5  C   UNL     1       7.344   6.288  17.552  0.00  0.00    +0.000 C 
ATOM      6  C   UNL     1       6.570   6.478  16.239  0.00  0.00    +0.000 C 
ATOM      7  C   UNL     1       5.061   6.311  16.576  0.00  0.00    +0.000 C 
ATOM      8  C   UNL     1       4.667   4.855  16.781  0.00  0.00    +0.000 C 
ATOM      9  N   UNL     1       3.513   4.515  17.295  0.00  0.00    +0.000 NA
ATOM     10  C   UNL     1       5.588   3.824  16.175  0.00  0.00    +0.000 C 
ENDROOT
BRANCH   9  11
ATOM     11  O   UNL     1       3.237   3.188  16.881  0.00  0.00    +0.000 OA
BRANCH  11  12
ATOM     12  C   UNL     1       3.458   2.190  17.874  0.00  0.00    +0.000 C 
BRANCH  12  13
ATOM     13  C   UNL     1       2.697   2.551  19.135  0.00  0.00    +0.000 A 
ATOM     14  C   UNL     1       3.350   2.606  20.362  0.00  0.00    +0.000 A 
ATOM     15  C   UNL     1       2.663   2.901  21.534  0.00  0.00    +0.000 A 
ATOM     16  C   UNL     1       1.285   3.130  21.485  0.00  0.00    +0.000 A 
ATOM     17  C   UNL     1       0.597   3.052  20.283  0.00  0.00    +0.000 A 
ATOM     18  C   UNL     1       1.301   2.751  19.109  0.00  0.00    +0.000 A 
ENDBRANCH  12  13
ENDBRANCH  11  12
ENDBRANCH   9  11
TORSDOF 3
ENDMDL
MODEL 8
REMARK VINA RESULT:      -6.8      1.829      3.076
REMARK  Name = 
REMARK  4 active torsions:
REMARK  status: ('A' for Active; 'I' for Inactive)
REMARK    1  A    between atoms: C_1  and  N_2
REMARK    2  A    between atoms: N_9  and  O_10
REMARK    3  A    between atoms: O_10  and  C_11
REMARK    4  A    between atoms: C_11  and  C_12
REMARK                            x       y       z     vdW  Elec       q    Type
REMARK                         _______ _______ _______ _____ _____    ______ ____
ROOT
ATOM      1  C   UNL     1       4.252   2.113  20.554  0.00  0.00    +0.000 C 
ATOM      2  N   UNL     1       3.074   2.675  19.938  0.00  0.00    +0.000 NA
ATOM      3  C   UNL     1       2.843   2.245  18.569  0.00  0.00    +0.000 C 
ATOM      4  C   UNL     1       1.411   2.785  18.416  0.00  0.00    +0.000 C 
ATOM      5  C   UNL     1       1.310   3.955  19.410  0.00  0.00    +0.000 C 
ATOM      6  C   UNL     1       2.743   4.107  19.939  0.00  0.00    +0.000 C 
ATOM      7  C   UNL     1       3.489   5.055  18.959  0.00  0.00    +0.000 C 
ATOM      8  C   UNL     1       3.874   4.364  17.658  0.00  0.00    +0.000 C 
ATOM      9  N   UNL     1       4.296   5.034  16.617  0.00  0.00    +0.000 NA
ATOM     10  C   UNL     1       3.940   2.857  17.700  0.00  0.00    +0.000 C 
ENDROOT
BRANCH   9  11
ATOM     11  O   UNL     1       5.042   4.138  15.809  0.00  0.00    +0.000 OA
BRANCH  11  12
ATOM     12  C   UNL     1       6.361   4.574  15.489  0.00  0.00    +0.000 C 
BRANCH  12  13
ATOM     13  C   UNL     1       6.937   5.350  16.658  0.00  0.00    +0.000 A 
ATOM     14  C   UNL     1       7.044   6.736  16.600  0.00  0.00    +0.000 A 
ATOM     15  C   UNL     1       7.601   7.462  17.647  0.00  0.00    +0.000 A 
ATOM     16  C   UNL     1       8.081   6.788  18.773  0.00  0.00    +0.000 A 
ATOM     17  C   UNL     1       8.018   5.404  18.850  0.00  0.00    +0.000 A 
ATOM     18  C   UNL     1       7.457   4.683  17.787  0.00  0.00    +0.000 A 
ENDBRANCH  12  13
ENDBRANCH  11  12
ENDBRANCH   9  11
TORSDOF 3
ENDMDL
MODEL 9
REMARK VINA RESULT:      -6.7      1.459      2.663
REMARK  Name = 
REMARK  4 active torsions:
REMARK  status: ('A' for Active; 'I' for Inactive)
REMARK    1  A    between atoms: C_1  and  N_2
REMARK    2  A    between atoms: N_9  and  O_10
REMARK    3  A    between atoms: O_10  and  C_11
REMARK    4  A    between atoms: C_11  and  C_12
REMARK                            x       y       z     vdW  Elec       q    Type
REMARK                         _______ _______ _______ _____ _____    ______ ____
ROOT
ATOM      1  C   UNL     1       2.371   2.852  21.666  0.00  0.00    +0.000 C 
ATOM      2  N   UNL     1       2.536   2.447  20.290  0.00  0.00    +0.000 NA
ATOM      3  C   UNL     1       3.733   2.961  19.647  0.00  0.00    +0.000 C 
ATOM      4  C   UNL     1       3.690   2.083  18.385  0.00  0.00    +0.000 C 
ATOM      5  C   UNL     1       2.207   1.719  18.195  0.00  0.00    +0.000 C 
ATOM      6  C   UNL     1       1.488   2.552  19.266  0.00  0.00    +0.000 C 
ATOM      7  C   UNL     1       1.189   3.940  18.632  0.00  0.00    +0.000 C 
ATOM      8  C   UNL     1       2.426   4.824  18.550  0.00  0.00    +0.000 C 
ATOM      9  N   UNL     1       2.443   5.927  17.848  0.00  0.00    +0.000 NA
ATOM     10  C   UNL     1       3.559   4.469  19.482  0.00  0.00    +0.000 C 
ENDROOT
BRANCH   9  11
ATOM     11  O   UNL     1       3.473   6.749  18.373  0.00  0.00    +0.000 OA
BRANCH  11  12
ATOM     12  C   UNL     1       4.309   7.362  17.394  0.00  0.00    +0.000 C 
BRANCH  12  13
ATOM     13  C   UNL     1       5.327   6.357  16.893  0.00  0.00    +0.000 A 
ATOM     14  C   UNL     1       5.254   5.866  15.593  0.00  0.00    +0.000 A 
ATOM     15  C   UNL     1       6.157   4.918  15.127  0.00  0.00    +0.000 A 
ATOM     16  C   UNL     1       7.149   4.432  15.983  0.00  0.00    +0.000 A 
ATOM     17  C   UNL     1       7.231   4.877  17.295  0.00  0.00    +0.000 A 
ATOM     18  C   UNL     1       6.313   5.830  17.755  0.00  0.00    +0.000 A 
ENDBRANCH  12  13
ENDBRANCH  11  12
ENDBRANCH   9  11
TORSDOF 3
ENDMDL
