MODEL 1
REMARK VINA RESULT:      -6.5      0.000      0.000
REMARK  Name = 
REMARK  4 active torsions:
REMARK  status: ('A' for Active; 'I' for Inactive)
REMARK    1  A    between atoms: C_1  and  C_2
REMARK    2  A    between atoms: C_2  and  N_3
REMARK    3  A    between atoms: N_13  and  C_14
REMARK    4  A    between atoms: C_14  and  C_15
REMARK                            x       y       z     vdW  Elec       q    Type
REMARK                         _______ _______ _______ _____ _____    ______ ____
ROOT
ATOM      1  N   UNL     1       9.190   9.128  18.848  0.00  0.00    +0.000 N 
ATOM      2  C   UNL     1       8.019   8.929  18.162  0.00  0.00    +0.000 C 
ATOM      3  O   UNL     1       7.404   9.845  17.622  0.00  0.00    +0.000 OA
ATOM      4  N   UNL     1       7.562   7.638  18.150  0.00  0.00    +0.000 N 
ATOM      5  C   UNL     1       8.128   6.459  18.805  0.00  0.00    +0.000 C 
ATOM      6  C   UNL     1       7.335   5.284  18.215  0.00  0.00    +0.000 C 
ATOM      7  O   UNL     1       7.957   4.922  16.972  0.00  0.00    +0.000 OA
ATOM      8  C   UNL     1       7.127   4.094  16.177  0.00  0.00    +0.000 C 
ATOM      9  C   UNL     1       5.667   4.526  15.973  0.00  0.00    +0.000 C 
ATOM     10  O   UNL     1       5.035   4.222  14.965  0.00  0.00    +0.000 OA
ATOM     11  N   UNL     1       5.098   5.139  17.081  0.00  0.00    +0.000 N 
ATOM     12  C   UNL     1       5.949   5.908  17.986  0.00  0.00    +0.000 C 
ATOM     13  C   UNL     1       6.330   7.300  17.454  0.00  0.00    +0.000 C 
ATOM     14  H   UNL     1       9.850   8.370  18.772  0.00  0.00    +0.000 HD
ENDROOT
BRANCH   1  16
ATOM     15  C   UNL     1       9.625  11.092  20.265  0.00  0.00    +0.000 C 
ATOM     16  C   UNL     1       9.752  10.464  18.891  0.00  0.00    +0.000 C 
ENDBRANCH   1  16
BRANCH  11  17
ATOM     17  C   UNL     1       3.649   5.283  17.173  0.00  0.00    +0.000 C 
BRANCH  17  18
ATOM     18  C   UNL     1       3.033   4.257  18.091  0.00  0.00    +0.000 A 
ATOM     19  C   UNL     1       2.298   3.174  17.604  0.00  0.00    +0.000 A 
ATOM     20  C   UNL     1       1.686   2.284  18.494  0.00  0.00    +0.000 A 
ATOM     21  C   UNL     1       1.834   2.515  19.850  0.00  0.00    +0.000 A 
ATOM     22  N   UNL     1       2.543   3.542  20.360  0.00  0.00    +0.000 NA
ATOM     23  C   UNL     1       3.115   4.392  19.473  0.00  0.00    +0.000 A 
ENDBRANCH  17  18
ENDBRANCH  11  17
TORSDOF 3
ENDMDL
MODEL 2
REMARK VINA RESULT:      -6.5      0.766      1.131
REMARK  Name = 
REMARK  4 active torsions:
REMARK  status: ('A' for Active; 'I' for Inactive)
REMARK    1  A    between atoms: C_1  and  C_2
REMARK    2  A    between atoms: C_2  and  N_3
REMARK    3  A    between atoms: N_13  and  C_14
REMARK    4  A    between atoms: C_14  and  C_15
REMARK                            x       y       z     vdW  Elec       q    Type
REMARK                         _______ _______ _______ _____ _____    ______ ____
ROOT
ATOM      1  N   UNL     1       9.173   9.139  18.838  0.00  0.00    +0.000 N 
ATOM      2  C   UNL     1       8.013   8.929  18.136  0.00  0.00    +0.000 C 
ATOM      3  O   UNL     1       7.410   9.835  17.567  0.00  0.00    +0.000 OA
ATOM      4  N   UNL     1       7.554   7.639  18.143  0.00  0.00    +0.000 N 
ATOM      5  C   UNL     1       8.105   6.472  18.832  0.00  0.00    +0.000 C 
ATOM      6  C   UNL     1       7.319   5.287  18.253  0.00  0.00    +0.000 C 
ATOM      7  O   UNL     1       7.962   4.898  17.028  0.00  0.00    +0.000 OA
ATOM      8  C   UNL     1       7.143   4.056  16.236  0.00  0.00    +0.000 C 
ATOM      9  C   UNL     1       5.689   4.487  15.998  0.00  0.00    +0.000 C 
ATOM     10  O   UNL     1       5.073   4.163  14.985  0.00  0.00    +0.000 OA
ATOM     11  N   UNL     1       5.102   5.123  17.083  0.00  0.00    +0.000 N 
ATOM     12  C   UNL     1       5.939   5.909  17.987  0.00  0.00    +0.000 C 
ATOM     13  C   UNL     1       6.333   7.289  17.433  0.00  0.00    +0.000 C 
ATOM     14  H   UNL     1       9.832   8.378  18.790  0.00  0.00    +0.000 HD
ENDROOT
BRANCH   1  16
ATOM     15  C   UNL     1       9.766  11.054  20.264  0.00  0.00    +0.000 C 
ATOM     16  C   UNL     1       9.738  10.474  18.863  0.00  0.00    +0.000 C 
ENDBRANCH   1  16
BRANCH  11  17
ATOM     17  C   UNL     1       3.652   5.273  17.147  0.00  0.00    +0.000 C 
BRANCH  17  18
ATOM     18  C   UNL     1       3.093   4.835  18.477  0.00  0.00    +0.000 A 
ATOM     19  C   UNL     1       2.396   5.710  19.312  0.00  0.00    +0.000 A 
ATOM     20  C   UNL     1       1.954   5.280  20.569  0.00  0.00    +0.000 A 
ATOM     21  C   UNL     1       2.232   3.978  20.946  0.00  0.00    +0.000 A 
ATOM     22  N   UNL     1       2.894   3.100  20.165  0.00  0.00    +0.000 NA
ATOM     23  C   UNL     1       3.316   3.549  18.959  0.00  0.00    +0.000 A 
ENDBRANCH  17  18
ENDBRANCH  11  17
TORSDOF 3
ENDMDL
MODEL 3
REMARK VINA RESULT:      -6.2      0.871      1.049
REMARK  Name = 
REMARK  4 active torsions:
REMARK  status: ('A' for Active; 'I' for Inactive)
REMARK    1  A    between atoms: C_1  and  C_2
REMARK    2  A    between atoms: C_2  and  N_3
REMARK    3  A    between atoms: N_13  and  C_14
REMARK    4  A    between atoms: C_14  and  C_15
REMARK                            x       y       z     vdW  Elec       q    Type
REMARK                         _______ _______ _______ _____ _____    ______ ____
ROOT
ATOM      1  N   UNL     1       9.184   9.107  18.957  0.00  0.00    +0.000 N 
ATOM      2  C   UNL     1       8.054   8.925  18.203  0.00  0.00    +0.000 C 
ATOM      3  O   UNL     1       7.489   9.849  17.623  0.00  0.00    +0.000 OA
ATOM      4  N   UNL     1       7.577   7.642  18.168  0.00  0.00    +0.000 N 
ATOM      5  C   UNL     1       8.082   6.456  18.860  0.00  0.00    +0.000 C 
ATOM      6  C   UNL     1       7.306   5.292  18.227  0.00  0.00    +0.000 C 
ATOM      7  O   UNL     1       7.996   4.914  17.025  0.00  0.00    +0.000 OA
ATOM      8  C   UNL     1       7.201   4.097  16.184  0.00  0.00    +0.000 C 
ATOM      9  C   UNL     1       5.764   4.552  15.890  0.00  0.00    +0.000 C 
ATOM     10  O   UNL     1       5.189   4.255  14.847  0.00  0.00    +0.000 OA
ATOM     11  N   UNL     1       5.140   5.180  16.960  0.00  0.00    +0.000 N 
ATOM     12  C   UNL     1       5.947   5.939  17.912  0.00  0.00    +0.000 C 
ATOM     13  C   UNL     1       6.383   7.321  17.400  0.00  0.00    +0.000 C 
ATOM     14  H   UNL     1       9.835   8.338  18.925  0.00  0.00    +0.000 HD
ENDROOT
BRANCH   1  16
ATOM     15  C   UNL     1       9.547  11.078  20.385  0.00  0.00    +0.000 C 
ATOM     16  C   UNL     1       9.766  10.433  19.030  0.00  0.00    +0.000 C 
ENDBRANCH   1  16
BRANCH  11  17
ATOM     17  C   UNL     1       3.690   5.349  16.963  0.00  0.00    +0.000 C 
BRANCH  17  18
ATOM     18  C   UNL     1       3.093   5.110  18.328  0.00  0.00    +0.000 A 
ATOM     19  C   UNL     1       2.944   3.827  18.857  0.00  0.00    +0.000 A 
ATOM     20  C   UNL     1       2.323   3.647  20.099  0.00  0.00    +0.000 A 
ATOM     21  C   UNL     1       1.869   4.770  20.768  0.00  0.00    +0.000 A 
ATOM     22  N   UNL     1       2.002   6.026  20.295  0.00  0.00    +0.000 NA
ATOM     23  C   UNL     1       2.600   6.167  19.088  0.00  0.00    +0.000 A 
ENDBRANCH  17  18
ENDBRANCH  11  17
TORSDOF 3
ENDMDL
MODEL 4
REMARK VINA RESULT:      -6.1      3.578      6.345
REMARK  Name = 
REMARK  4 active torsions:
REMARK  status: ('A' for Active; 'I' for Inactive)
REMARK    1  A    between atoms: C_1  and  C_2
REMARK    2  A    between atoms: C_2  and  N_3
REMARK    3  A    between atoms: N_13  and  C_14
REMARK    4  A    between atoms: C_14  and  C_15
REMARK                            x       y       z     vdW  Elec       q    Type
REMARK                         _______ _______ _______ _____ _____    ______ ____
ROOT
ATOM      1  N   UNL     1       0.236   7.763  21.224  0.00  0.00    +0.000 N 
ATOM      2  C   UNL     1       1.419   7.384  20.644  0.00  0.00    +0.000 C 
ATOM      3  O   UNL     1       2.305   8.187  20.361  0.00  0.00    +0.000 OA
ATOM      4  N   UNL     1       1.532   6.047  20.370  0.00  0.00    +0.000 N 
ATOM      5  C   UNL     1       0.548   4.983  20.569  0.00  0.00    +0.000 C 
ATOM      6  C   UNL     1       1.337   3.689  20.324  0.00  0.00    +0.000 C 
ATOM      7  O   UNL     1       1.995   3.344  21.554  0.00  0.00    +0.000 OA
ATOM      8  C   UNL     1       3.014   2.379  21.365  0.00  0.00    +0.000 C 
ATOM      9  C   UNL     1       4.024   2.613  20.232  0.00  0.00    +0.000 C 
ATOM     10  O   UNL     1       5.172   2.181  20.286  0.00  0.00    +0.000 OA
ATOM     11  N   UNL     1       3.478   3.207  19.102  0.00  0.00    +0.000 N 
ATOM     12  C   UNL     1       2.349   4.123  19.252  0.00  0.00    +0.000 C 
ATOM     13  C   UNL     1       2.742   5.521  19.755  0.00  0.00    +0.000 C 
ATOM     14  H   UNL     1      -0.145   7.091  21.872  0.00  0.00    +0.000 HD
ENDROOT
BRANCH   1  16
ATOM     15  C   UNL     1       0.141   9.398  23.060  0.00  0.00    +0.000 C 
ATOM     16  C   UNL     1       0.045   9.159  21.566  0.00  0.00    +0.000 C 
ENDBRANCH   1  16
BRANCH  11  17
ATOM     17  C   UNL     1       4.203   3.173  17.836  0.00  0.00    +0.000 C 
BRANCH  17  18
ATOM     18  C   UNL     1       4.977   4.445  17.590  0.00  0.00    +0.000 A 
ATOM     19  C   UNL     1       4.529   5.425  16.702  0.00  0.00    +0.000 A 
ATOM     20  C   UNL     1       5.312   6.558  16.453  0.00  0.00    +0.000 A 
ATOM     21  C   UNL     1       6.526   6.666  17.107  0.00  0.00    +0.000 A 
ATOM     22  N   UNL     1       6.990   5.747  17.979  0.00  0.00    +0.000 NA
ATOM     23  C   UNL     1       6.213   4.658  18.192  0.00  0.00    +0.000 A 
ENDBRANCH  17  18
ENDBRANCH  11  17
TORSDOF 3
ENDMDL
MODEL 5
REMARK VINA RESULT:      -6.1      9.832     11.437
REMARK  Name = 
REMARK  4 active torsions:
REMARK  status: ('A' for Active; 'I' for Inactive)
REMARK    1  A    between atoms: C_1  and  C_2
REMARK    2  A    between atoms: C_2  and  N_3
REMARK    3  A    between atoms: N_13  and  C_14
REMARK    4  A    between atoms: C_14  and  C_15
REMARK                            x       y       z     vdW  Elec       q    Type
REMARK                         _______ _______ _______ _____ _____    ______ ____
ROOT
ATOM      1  N   UNL     1      -2.278  11.337  16.409  0.00  0.00    +0.000 N 
ATOM      2  C   UNL     1      -2.685  11.519  17.707  0.00  0.00    +0.000 C 
ATOM      3  O   UNL     1      -3.868  11.610  18.022  0.00  0.00    +0.000 OA
ATOM      4  N   UNL     1      -1.674  11.627  18.625  0.00  0.00    +0.000 N 
ATOM      5  C   UNL     1      -0.229  11.621  18.403  0.00  0.00    +0.000 C 
ATOM      6  C   UNL     1       0.368  11.512  19.813  0.00  0.00    +0.000 C 
ATOM      7  O   UNL     1       0.391  10.120  20.168  0.00  0.00    +0.000 OA
ATOM      8  C   UNL     1       0.593   9.922  21.556  0.00  0.00    +0.000 C 
ATOM      9  C   UNL     1      -0.269  10.738  22.530  0.00  0.00    +0.000 C 
ATOM     10  O   UNL     1      -0.556  10.321  23.649  0.00  0.00    +0.000 OA
ATOM     11  N   UNL     1      -0.551  12.026  22.094  0.00  0.00    +0.000 N 
ATOM     12  C   UNL     1      -0.654  12.287  20.660  0.00  0.00    +0.000 C 
ATOM     13  C   UNL     1      -1.979  11.822  20.034  0.00  0.00    +0.000 C 
ATOM     14  H   UNL     1      -1.453  10.765  16.308  0.00  0.00    +0.000 HD
ENDROOT
BRANCH   1  16
ATOM     15  C   UNL     1      -3.055   9.960  14.524  0.00  0.00    +0.000 C 
ATOM     16  C   UNL     1      -3.287  11.191  15.378  0.00  0.00    +0.000 C 
ENDBRANCH   1  16
BRANCH  11  17
ATOM     17  C   UNL     1      -1.045  13.025  23.036  0.00  0.00    +0.000 C 
BRANCH  17  18
ATOM     18  C   UNL     1      -2.548  13.145  23.001  0.00  0.00    +0.000 A 
ATOM     19  C   UNL     1      -3.191  14.211  22.369  0.00  0.00    +0.000 A 
ATOM     20  C   UNL     1      -4.585  14.320  22.418  0.00  0.00    +0.000 A 
ATOM     21  C   UNL     1      -5.289  13.348  23.107  0.00  0.00    +0.000 A 
ATOM     22  N   UNL     1      -4.707  12.299  23.722  0.00  0.00    +0.000 NA
ATOM     23  C   UNL     1      -3.356  12.226  23.663  0.00  0.00    +0.000 A 
ENDBRANCH  17  18
ENDBRANCH  11  17
TORSDOF 3
ENDMDL
MODEL 6
REMARK VINA RESULT:      -6.0      3.094      5.433
REMARK  Name = 
REMARK  4 active torsions:
REMARK  status: ('A' for Active; 'I' for Inactive)
REMARK    1  A    between atoms: C_1  and  C_2
REMARK    2  A    between atoms: C_2  and  N_3
REMARK    3  A    between atoms: N_13  and  C_14
REMARK    4  A    between atoms: C_14  and  C_15
REMARK                            x       y       z     vdW  Elec       q    Type
REMARK                         _______ _______ _______ _____ _____    ______ ____
ROOT
ATOM      1  N   UNL     1       6.797   3.700  12.226  0.00  0.00    +0.000 N 
ATOM      2  C   UNL     1       5.829   3.662  13.197  0.00  0.00    +0.000 C 
ATOM      3  O   UNL     1       4.785   3.028  13.065  0.00  0.00    +0.000 OA
ATOM      4  N   UNL     1       6.093   4.409  14.313  0.00  0.00    +0.000 N 
ATOM      5  C   UNL     1       7.239   5.275  14.588  0.00  0.00    +0.000 C 
ATOM      6  C   UNL     1       7.099   5.623  16.077  0.00  0.00    +0.000 C 
ATOM      7  O   UNL     1       7.694   4.555  16.830  0.00  0.00    +0.000 OA
ATOM      8  C   UNL     1       7.326   4.591  18.197  0.00  0.00    +0.000 C 
ATOM      9  C   UNL     1       5.838   4.759  18.536  0.00  0.00    +0.000 C 
ATOM     10  O   UNL     1       5.352   4.311  19.571  0.00  0.00    +0.000 OA
ATOM     11  N   UNL     1       5.148   5.584  17.658  0.00  0.00    +0.000 N 
ATOM     12  C   UNL     1       5.574   5.656  16.262  0.00  0.00    +0.000 C 
ATOM     13  C   UNL     1       5.141   4.449  15.414  0.00  0.00    +0.000 C 
ATOM     14  H   UNL     1       7.740   3.746  12.581  0.00  0.00    +0.000 HD
ENDROOT
BRANCH   1  16
ATOM     15  C   UNL     1       7.279   1.563  11.107  0.00  0.00    +0.000 C 
ATOM     16  C   UNL     1       6.605   2.918  11.020  0.00  0.00    +0.000 C 
ENDBRANCH   1  16
BRANCH  11  17
ATOM     17  C   UNL     1       3.842   6.120  18.031  0.00  0.00    +0.000 C 
BRANCH  17  18
ATOM     18  C   UNL     1       2.846   5.030  18.336  0.00  0.00    +0.000 A 
ATOM     19  C   UNL     1       2.155   4.975  19.548  0.00  0.00    +0.000 A 
ATOM     20  C   UNL     1       1.290   3.908  19.816  0.00  0.00    +0.000 A 
ATOM     21  C   UNL     1       1.151   2.925  18.852  0.00  0.00    +0.000 A 
ATOM     22  N   UNL     1       1.793   2.947  17.666  0.00  0.00    +0.000 NA
ATOM     23  C   UNL     1       2.629   3.988  17.439  0.00  0.00    +0.000 A 
ENDBRANCH  17  18
ENDBRANCH  11  17
TORSDOF 3
ENDMDL
MODEL 7
REMARK VINA RESULT:      -6.0      3.031      5.446
REMARK  Name = 
REMARK  4 active torsions:
REMARK  status: ('A' for Active; 'I' for Inactive)
REMARK    1  A    between atoms: C_1  and  C_2
REMARK    2  A    between atoms: C_2  and  N_3
REMARK    3  A    between atoms: N_13  and  C_14
REMARK    4  A    between atoms: C_14  and  C_15
REMARK                            x       y       z     vdW  Elec       q    Type
REMARK                         _______ _______ _______ _____ _____    ______ ____
ROOT
ATOM      1  N   UNL     1       6.616   3.529  12.183  0.00  0.00    +0.000 N 
ATOM      2  C   UNL     1       5.703   3.622  13.203  0.00  0.00    +0.000 C 
ATOM      3  O   UNL     1       4.599   3.086  13.154  0.00  0.00    +0.000 OA
ATOM      4  N   UNL     1       6.097   4.385  14.270  0.00  0.00    +0.000 N 
ATOM      5  C   UNL     1       7.332   5.147  14.446  0.00  0.00    +0.000 C 
ATOM      6  C   UNL     1       7.308   5.567  15.923  0.00  0.00    +0.000 C 
ATOM      7  O   UNL     1       7.841   4.478  16.692  0.00  0.00    +0.000 OA
ATOM      8  C   UNL     1       7.554   4.604  18.073  0.00  0.00    +0.000 C 
ATOM      9  C   UNL     1       6.109   4.927  18.480  0.00  0.00    +0.000 C 
ATOM     10  O   UNL     1       5.642   4.569  19.558  0.00  0.00    +0.000 OA
ATOM     11  N   UNL     1       5.452   5.778  17.602  0.00  0.00    +0.000 N 
ATOM     12  C   UNL     1       5.805   5.753  16.184  0.00  0.00    +0.000 C 
ATOM     13  C   UNL     1       5.215   4.560  15.415  0.00  0.00    +0.000 C 
ATOM     14  H   UNL     1       7.577   3.499  12.487  0.00  0.00    +0.000 HD
ENDROOT
BRANCH   1  16
ATOM     15  C   UNL     1       6.963   1.365  11.064  0.00  0.00    +0.000 C 
ATOM     16  C   UNL     1       6.285   2.721  11.026  0.00  0.00    +0.000 C 
ENDBRANCH   1  16
BRANCH  11  17
ATOM     17  C   UNL     1       4.225   6.451  18.017  0.00  0.00    +0.000 C 
BRANCH  17  18
ATOM     18  C   UNL     1       3.176   5.478  18.494  0.00  0.00    +0.000 A 
ATOM     19  C   UNL     1       2.623   4.512  17.651  0.00  0.00    +0.000 A 
ATOM     20  C   UNL     1       1.604   3.674  18.117  0.00  0.00    +0.000 A 
ATOM     21  C   UNL     1       1.172   3.837  19.421  0.00  0.00    +0.000 A 
ATOM     22  N   UNL     1       1.687   4.751  20.270  0.00  0.00    +0.000 NA
ATOM     23  C   UNL     1       2.665   5.553  19.787  0.00  0.00    +0.000 A 
ENDBRANCH  17  18
ENDBRANCH  11  17
TORSDOF 3
ENDMDL
MODEL 8
REMARK VINA RESULT:      -6.0      3.536      6.328
REMARK  Name = 
REMARK  4 active torsions:
REMARK  status: ('A' for Active; 'I' for Inactive)
REMARK    1  A    between atoms: C_1  and  C_2
REMARK    2  A    between atoms: C_2  and  N_3
REMARK    3  A    between atoms: N_13  and  C_14
REMARK    4  A    between atoms: C_14  and  C_15
REMARK                            x       y       z     vdW  Elec       q    Type
REMARK                         _______ _______ _______ _____ _____    ______ ____
ROOT
ATOM      1  N   UNL     1       0.389   7.870  21.241  0.00  0.00    +0.000 N 
ATOM      2  C   UNL     1       1.559   7.486  20.637  0.00  0.00    +0.000 C 
ATOM      3  O   UNL     1       2.456   8.280  20.366  0.00  0.00    +0.000 OA
ATOM      4  N   UNL     1       1.645   6.155  20.326  0.00  0.00    +0.000 N 
ATOM      5  C   UNL     1       0.644   5.104  20.507  0.00  0.00    +0.000 C 
ATOM      6  C   UNL     1       1.407   3.804  20.219  0.00  0.00    +0.000 C 
ATOM      7  O   UNL     1       2.072   3.414  21.431  0.00  0.00    +0.000 OA
ATOM      8  C   UNL     1       3.072   2.436  21.205  0.00  0.00    +0.000 C 
ATOM      9  C   UNL     1       4.073   2.683  20.067  0.00  0.00    +0.000 C 
ATOM     10  O   UNL     1       5.214   2.229  20.095  0.00  0.00    +0.000 OA
ATOM     11  N   UNL     1       3.525   3.317  18.959  0.00  0.00    +0.000 N 
ATOM     12  C   UNL     1       2.415   4.248  19.147  0.00  0.00    +0.000 C 
ATOM     13  C   UNL     1       2.838   5.626  19.683  0.00  0.00    +0.000 C 
ATOM     14  H   UNL     1       0.004   7.187  21.875  0.00  0.00    +0.000 HD
ENDROOT
BRANCH   1  16
ATOM     15  C   UNL     1      -0.067   9.413  23.102  0.00  0.00    +0.000 C 
ATOM     16  C   UNL     1       0.227   9.260  21.623  0.00  0.00    +0.000 C 
ENDBRANCH   1  16
BRANCH  11  17
ATOM     17  C   UNL     1       4.236   3.305  17.685  0.00  0.00    +0.000 C 
BRANCH  17  18
ATOM     18  C   UNL     1       5.098   4.529  17.503  0.00  0.00    +0.000 A 
ATOM     19  C   UNL     1       6.219   4.771  18.299  0.00  0.00    +0.000 A 
ATOM     20  C   UNL     1       6.952   5.953  18.142  0.00  0.00    +0.000 A 
ATOM     21  C   UNL     1       6.528   6.858  17.185  0.00  0.00    +0.000 A 
ATOM     22  N   UNL     1       5.457   6.658  16.390  0.00  0.00    +0.000 NA
ATOM     23  C   UNL     1       4.765   5.508  16.572  0.00  0.00    +0.000 A 
ENDBRANCH  17  18
ENDBRANCH  11  17
TORSDOF 3
ENDMDL
MODEL 9
REMARK VINA RESULT:      -5.9      2.406      5.333
REMARK  Name = 
REMARK  4 active torsions:
REMARK  status: ('A' for Active; 'I' for Inactive)
REMARK    1  A    between atoms: C_1  and  C_2
REMARK    2  A    between atoms: C_2  and  N_3
REMARK    3  A    between atoms: N_13  and  C_14
REMARK    4  A    between atoms: C_14  and  C_15
REMARK                            x       y       z     vdW  Elec       q    Type
REMARK                         _______ _______ _______ _____ _____    ______ ____
ROOT
ATOM      1  N   UNL     1       5.625   4.309  13.018  0.00  0.00    +0.000 N 
ATOM      2  C   UNL     1       5.678   3.763  14.275  0.00  0.00    +0.000 C 
ATOM      3  O   UNL     1       5.721   2.551  14.469  0.00  0.00    +0.000 OA
ATOM      4  N   UNL     1       5.644   4.665  15.304  0.00  0.00    +0.000 N 
ATOM      5  C   UNL     1       5.513   6.121  15.244  0.00  0.00    +0.000 C 
ATOM      6  C   UNL     1       5.800   6.584  16.679  0.00  0.00    +0.000 C 
ATOM      7  O   UNL     1       7.225   6.693  16.823  0.00  0.00    +0.000 OA
ATOM      8  C   UNL     1       7.624   6.775  18.180  0.00  0.00    +0.000 C 
ATOM      9  C   UNL     1       7.034   5.754  19.164  0.00  0.00    +0.000 C 
ATOM     10  O   UNL     1       7.641   5.397  20.170  0.00  0.00    +0.000 OA
ATOM     11  N   UNL     1       5.717   5.406  18.896  0.00  0.00    +0.000 N 
ATOM     12  C   UNL     1       5.241   5.421  17.515  0.00  0.00    +0.000 C 
ATOM     13  C   UNL     1       5.694   4.209  16.685  0.00  0.00    +0.000 C 
ATOM     14  H   UNL     1       6.113   5.186  12.924  0.00  0.00    +0.000 HD
ENDROOT
BRANCH   1  16
ATOM     15  C   UNL     1       4.302   3.167  11.285  0.00  0.00    +0.000 C 
ATOM     16  C   UNL     1       5.677   3.422  11.872  0.00  0.00    +0.000 C 
ENDBRANCH   1  16
BRANCH  11  17
ATOM     17  C   UNL     1       4.916   4.738  19.917  0.00  0.00    +0.000 C 
BRANCH  17  18
ATOM     18  C   UNL     1       3.734   4.010  19.326  0.00  0.00    +0.000 A 
ATOM     19  C   UNL     1       2.578   4.680  18.921  0.00  0.00    +0.000 A 
ATOM     20  C   UNL     1       1.479   3.959  18.441  0.00  0.00    +0.000 A 
ATOM     21  C   UNL     1       1.580   2.580  18.385  0.00  0.00    +0.000 A 
ATOM     22  N   UNL     1       2.682   1.896  18.758  0.00  0.00    +0.000 NA
ATOM     23  C   UNL     1       3.725   2.622  19.226  0.00  0.00    +0.000 A 
ENDBRANCH  17  18
ENDBRANCH  11  17
TORSDOF 3
ENDMDL
