MODEL 1
REMARK VINA RESULT:      -7.6      0.000      0.000
REMARK  Name = 
REMARK  5 active torsions:
REMARK  status: ('A' for Active; 'I' for Inactive)
REMARK    1  A    between atoms: C_2  and  C_3
REMARK    2  A    between atoms: C_3  and  N_4
REMARK    3  A    between atoms: C_18  and  O_19
REMARK    4  A    between atoms: O_19  and  C_20
REMARK    5  A    between atoms: C_20  and  C_21
REMARK                            x       y       z     vdW  Elec       q    Type
REMARK                         _______ _______ _______ _____ _____    ______ ____
ROOT
ATOM      1  N   UNL     1       2.062   4.010  19.452  0.00  0.00    +0.000 NA
ATOM      2  C   UNL     1       1.732   4.310  18.038  0.00  0.00    +0.000 C 
ATOM      3  C   UNL     1       1.637   5.779  17.658  0.00  0.00    +0.000 C 
ATOM      4  C   UNL     1       2.863   6.561  18.177  0.00  0.00    +0.000 C 
ATOM      5  C   UNL     1       2.805   8.042  17.736  0.00  0.00    +0.000 C 
ATOM      6  C   UNL     1       1.638   8.820  18.349  0.00  0.00    +0.000 C 
ATOM      7  C   UNL     1       1.637   8.718  19.871  0.00  0.00    +0.000 C 
ATOM      8  C   UNL     1       1.612   7.257  20.344  0.00  0.00    +0.000 C 
ATOM      9  C   UNL     1       2.795   6.490  19.726  0.00  0.00    +0.000 C 
ATOM     10  C   UNL     1       2.960   4.995  20.134  0.00  0.00    +0.000 C 
ATOM     11  C   UNL     1       4.479   4.773  19.965  0.00  0.00    +0.000 C 
ATOM     12  C   UNL     1       4.929   5.064  18.555  0.00  0.00    +0.000 A 
ATOM     13  C   UNL     1       6.095   4.434  18.128  0.00  0.00    +0.000 A 
ATOM     14  C   UNL     1       6.455   4.496  16.798  0.00  0.00    +0.000 A 
ATOM     15  C   UNL     1       5.687   5.208  15.880  0.00  0.00    +0.000 A 
ATOM     16  C   UNL     1       4.567   5.921  16.312  0.00  0.00    +0.000 A 
ATOM     17  C   UNL     1       4.172   5.879  17.671  0.00  0.00    +0.000 A 
ENDROOT
BRANCH   1  18
ATOM     18  C   UNL     1       2.537   2.603  19.442  0.00  0.00    +0.000 C 
BRANCH  18  20
ATOM     19  C   UNL     1       4.010   1.088  18.109  0.00  0.00    +0.000 C 
ATOM     20  C   UNL     1       3.043   2.028  18.151  0.00  0.00    +0.000 C 
ENDBRANCH  18  20
ENDBRANCH   1  18
BRANCH  15  21
ATOM     21  O   UNL     1       6.123   5.017  14.606  0.00  0.00    +0.000 OA
BRANCH  21  22
ATOM     22  C   UNL     1       6.272   3.703  14.097  0.00  0.00    +0.000 C 
BRANCH  22  23
ATOM     23  C   UNL     1       6.071   3.808  12.609  0.00  0.00    +0.000 C 
ATOM     24  C   UNL     1       6.006   2.553  11.770  0.00  0.00    +0.000 C 
ATOM     25  C   UNL     1       4.780   3.400  11.951  0.00  0.00    +0.000 C 
ENDBRANCH  22  23
ENDBRANCH  21  22
ENDBRANCH  15  21
TORSDOF 5
ENDMDL
MODEL 2
REMARK VINA RESULT:      -7.0      1.875      3.685
REMARK  Name = 
REMARK  5 active torsions:
REMARK  status: ('A' for Active; 'I' for Inactive)
REMARK    1  A    between atoms: C_2  and  C_3
REMARK    2  A    between atoms: C_3  and  N_4
REMARK    3  A    between atoms: C_18  and  O_19
REMARK    4  A    between atoms: O_19  and  C_20
REMARK    5  A    between atoms: C_20  and  C_21
REMARK                            x       y       z     vdW  Elec       q    Type
REMARK                         _______ _______ _______ _____ _____    ______ ____
ROOT
ATOM      1  N   UNL     1       5.179   5.195  19.761  0.00  0.00    +0.000 NA
ATOM      2  C   UNL     1       5.596   3.864  19.260  0.00  0.00    +0.000 C 
ATOM      3  C   UNL     1       4.485   2.917  18.834  0.00  0.00    +0.000 C 
ATOM      4  C   UNL     1       3.483   3.633  17.902  0.00  0.00    +0.000 C 
ATOM      5  C   UNL     1       2.387   2.658  17.412  0.00  0.00    +0.000 C 
ATOM      6  C   UNL     1       1.481   2.139  18.530  0.00  0.00    +0.000 C 
ATOM      7  C   UNL     1       0.857   3.285  19.320  0.00  0.00    +0.000 C 
ATOM      8  C   UNL     1       1.924   4.229  19.891  0.00  0.00    +0.000 C 
ATOM      9  C   UNL     1       2.822   4.749  18.756  0.00  0.00    +0.000 C 
ATOM     10  C   UNL     1       3.939   5.764  19.142  0.00  0.00    +0.000 C 
ATOM     11  C   UNL     1       4.128   6.563  17.835  0.00  0.00    +0.000 C 
ATOM     12  C   UNL     1       4.508   5.662  16.685  0.00  0.00    +0.000 A 
ATOM     13  C   UNL     1       5.197   6.253  15.629  0.00  0.00    +0.000 A 
ATOM     14  C   UNL     1       5.745   5.458  14.644  0.00  0.00    +0.000 A 
ATOM     15  C   UNL     1       5.592   4.075  14.672  0.00  0.00    +0.000 A 
ATOM     16  C   UNL     1       4.825   3.478  15.674  0.00  0.00    +0.000 A 
ATOM     17  C   UNL     1       4.246   4.266  16.699  0.00  0.00    +0.000 A 
ENDROOT
BRANCH   1  18
ATOM     18  C   UNL     1       6.396   6.038  19.660  0.00  0.00    +0.000 C 
BRANCH  18  20
ATOM     19  C   UNL     1       7.871   6.638  17.735  0.00  0.00    +0.000 C 
ATOM     20  C   UNL     1       7.407   5.712  18.600  0.00  0.00    +0.000 C 
ENDBRANCH  18  20
ENDBRANCH   1  18
BRANCH  15  21
ATOM     21  O   UNL     1       6.333   3.468  13.705  0.00  0.00    +0.000 OA
BRANCH  21  22
ATOM     22  C   UNL     1       6.071   3.735  12.339  0.00  0.00    +0.000 C 
BRANCH  22  23
ATOM     23  C   UNL     1       4.659   3.276  12.090  0.00  0.00    +0.000 C 
ATOM     24  C   UNL     1       3.888   3.824  10.911  0.00  0.00    +0.000 C 
ATOM     25  C   UNL     1       4.306   2.383  10.930  0.00  0.00    +0.000 C 
ENDBRANCH  22  23
ENDBRANCH  21  22
ENDBRANCH  15  21
TORSDOF 5
ENDMDL
MODEL 3
REMARK VINA RESULT:      -7.0      0.758      1.149
REMARK  Name = 
REMARK  5 active torsions:
REMARK  status: ('A' for Active; 'I' for Inactive)
REMARK    1  A    between atoms: C_2  and  C_3
REMARK    2  A    between atoms: C_3  and  N_4
REMARK    3  A    between atoms: C_18  and  O_19
REMARK    4  A    between atoms: O_19  and  C_20
REMARK    5  A    between atoms: C_20  and  C_21
REMARK                            x       y       z     vdW  Elec       q    Type
REMARK                         _______ _______ _______ _____ _____    ______ ____
ROOT
ATOM      1  N   UNL     1       1.946   4.349  19.321  0.00  0.00    +0.000 NA
ATOM      2  C   UNL     1       1.721   4.641  17.886  0.00  0.00    +0.000 C 
ATOM      3  C   UNL     1       1.655   6.108  17.492  0.00  0.00    +0.000 C 
ATOM      4  C   UNL     1       2.841   6.892  18.095  0.00  0.00    +0.000 C 
ATOM      5  C   UNL     1       2.817   8.371  17.644  0.00  0.00    +0.000 C 
ATOM      6  C   UNL     1       1.609   9.153  18.165  0.00  0.00    +0.000 C 
ATOM      7  C   UNL     1       1.497   9.059  19.683  0.00  0.00    +0.000 C 
ATOM      8  C   UNL     1       1.437   7.601  20.161  0.00  0.00    +0.000 C 
ATOM      9  C   UNL     1       2.660   6.830  19.636  0.00  0.00    +0.000 C 
ATOM     10  C   UNL     1       2.793   5.337  20.062  0.00  0.00    +0.000 C 
ATOM     11  C   UNL     1       4.320   5.113  20.006  0.00  0.00    +0.000 C 
ATOM     12  C   UNL     1       4.872   5.395  18.630  0.00  0.00    +0.000 A 
ATOM     13  C   UNL     1       6.065   4.762  18.293  0.00  0.00    +0.000 A 
ATOM     14  C   UNL     1       6.522   4.817  16.992  0.00  0.00    +0.000 A 
ATOM     15  C   UNL     1       5.823   5.525  16.017  0.00  0.00    +0.000 A 
ATOM     16  C   UNL     1       4.676   6.241  16.362  0.00  0.00    +0.000 A 
ATOM     17  C   UNL     1       4.182   6.206  17.690  0.00  0.00    +0.000 A 
ENDROOT
BRANCH   1  18
ATOM     18  C   UNL     1       2.418   2.942  19.353  0.00  0.00    +0.000 C 
BRANCH  18  20
ATOM     19  C   UNL     1       1.509   2.525  21.642  0.00  0.00    +0.000 C 
ATOM     20  C   UNL     1       2.371   2.200  20.657  0.00  0.00    +0.000 C 
ENDBRANCH  18  20
ENDBRANCH   1  18
BRANCH  15  21
ATOM     21  O   UNL     1       6.351   5.327  14.779  0.00  0.00    +0.000 OA
BRANCH  21  22
ATOM     22  C   UNL     1       6.465   4.014  14.260  0.00  0.00    +0.000 C 
BRANCH  22  23
ATOM     23  C   UNL     1       6.157   4.120  12.790  0.00  0.00    +0.000 C 
ATOM     24  C   UNL     1       7.001   3.365  11.789  0.00  0.00    +0.000 C 
ATOM     25  C   UNL     1       5.571   2.970  12.015  0.00  0.00    +0.000 C 
ENDBRANCH  22  23
ENDBRANCH  21  22
ENDBRANCH  15  21
TORSDOF 5
ENDMDL
MODEL 4
REMARK VINA RESULT:      -6.9      2.390      5.960
REMARK  Name = 
REMARK  5 active torsions:
REMARK  status: ('A' for Active; 'I' for Inactive)
REMARK    1  A    between atoms: C_2  and  C_3
REMARK    2  A    between atoms: C_3  and  N_4
REMARK    3  A    between atoms: C_18  and  O_19
REMARK    4  A    between atoms: O_19  and  C_20
REMARK    5  A    between atoms: C_20  and  C_21
REMARK                            x       y       z     vdW  Elec       q    Type
REMARK                         _______ _______ _______ _____ _____    ______ ____
ROOT
ATOM      1  N   UNL     1       4.049   3.467  17.064  0.00  0.00    +0.000 NA
ATOM      2  C   UNL     1       2.597   3.715  16.900  0.00  0.00    +0.000 C 
ATOM      3  C   UNL     1       1.752   3.676  18.164  0.00  0.00    +0.000 C 
ATOM      4  C   UNL     1       2.394   4.528  19.280  0.00  0.00    +0.000 C 
ATOM      5  C   UNL     1       1.506   4.546  20.546  0.00  0.00    +0.000 C 
ATOM      6  C   UNL     1       1.366   3.179  21.218  0.00  0.00    +0.000 C 
ATOM      7  C   UNL     1       2.729   2.571  21.534  0.00  0.00    +0.000 C 
ATOM      8  C   UNL     1       3.609   2.463  20.280  0.00  0.00    +0.000 C 
ATOM      9  C   UNL     1       3.746   3.845  19.620  0.00  0.00    +0.000 C 
ATOM     10  C   UNL     1       4.648   3.940  18.353  0.00  0.00    +0.000 C 
ATOM     11  C   UNL     1       5.122   5.408  18.393  0.00  0.00    +0.000 C 
ATOM     12  C   UNL     1       3.957   6.367  18.372  0.00  0.00    +0.000 A 
ATOM     13  C   UNL     1       4.211   7.649  17.889  0.00  0.00    +0.000 A 
ATOM     14  C   UNL     1       3.158   8.510  17.658  0.00  0.00    +0.000 A 
ATOM     15  C   UNL     1       1.847   8.128  17.931  0.00  0.00    +0.000 A 
ATOM     16  C   UNL     1       1.588   6.881  18.503  0.00  0.00    +0.000 A 
ATOM     17  C   UNL     1       2.647   5.975  18.755  0.00  0.00    +0.000 A 
ENDROOT
BRANCH   1  18
ATOM     18  C   UNL     1       4.669   4.005  15.828  0.00  0.00    +0.000 C 
BRANCH  18  20
ATOM     19  C   UNL     1       6.989   4.665  15.180  0.00  0.00    +0.000 C 
ATOM     20  C   UNL     1       6.118   3.712  15.568  0.00  0.00    +0.000 C 
ENDBRANCH  18  20
ENDBRANCH   1  18
BRANCH  15  21
ATOM     21  O   UNL     1       0.953   9.055  17.491  0.00  0.00    +0.000 OA
BRANCH  21  22
ATOM     22  C   UNL     1       0.661  10.191  18.285  0.00  0.00    +0.000 C 
BRANCH  22  23
ATOM     23  C   UNL     1      -0.832  10.192  18.476  0.00  0.00    +0.000 C 
ATOM     24  C   UNL     1      -1.643  11.391  18.041  0.00  0.00    +0.000 C 
ATOM     25  C   UNL     1      -1.782  10.086  17.312  0.00  0.00    +0.000 C 
ENDBRANCH  22  23
ENDBRANCH  21  22
ENDBRANCH  15  21
TORSDOF 5
ENDMDL
MODEL 5
REMARK VINA RESULT:      -6.8      2.904      6.728
REMARK  Name = 
REMARK  5 active torsions:
REMARK  status: ('A' for Active; 'I' for Inactive)
REMARK    1  A    between atoms: C_2  and  C_3
REMARK    2  A    between atoms: C_3  and  N_4
REMARK    3  A    between atoms: C_18  and  O_19
REMARK    4  A    between atoms: O_19  and  C_20
REMARK    5  A    between atoms: C_20  and  C_21
REMARK                            x       y       z     vdW  Elec       q    Type
REMARK                         _______ _______ _______ _____ _____    ______ ____
ROOT
ATOM      1  N   UNL     1       6.793   6.887  16.293  0.00  0.00    +0.000 NA
ATOM      2  C   UNL     1       5.368   6.930  15.887  0.00  0.00    +0.000 C 
ATOM      3  C   UNL     1       4.948   5.985  14.773  0.00  0.00    +0.000 C 
ATOM      4  C   UNL     1       5.461   4.554  15.046  0.00  0.00    +0.000 C 
ATOM      5  C   UNL     1       4.981   3.573  13.950  0.00  0.00    +0.000 C 
ATOM      6  C   UNL     1       5.559   3.869  12.565  0.00  0.00    +0.000 C 
ATOM      7  C   UNL     1       7.082   3.925  12.596  0.00  0.00    +0.000 C 
ATOM      8  C   UNL     1       7.593   4.951  13.618  0.00  0.00    +0.000 C 
ATOM      9  C   UNL     1       7.011   4.637  15.007  0.00  0.00    +0.000 C 
ATOM     10  C   UNL     1       7.459   5.550  16.188  0.00  0.00    +0.000 C 
ATOM     11  C   UNL     1       7.315   4.611  17.405  0.00  0.00    +0.000 C 
ATOM     12  C   UNL     1       5.902   4.099  17.546  0.00  0.00    +0.000 A 
ATOM     13  C   UNL     1       5.506   3.699  18.820  0.00  0.00    +0.000 A 
ATOM     14  C   UNL     1       4.179   3.409  19.060  0.00  0.00    +0.000 A 
ATOM     15  C   UNL     1       3.234   3.479  18.040  0.00  0.00    +0.000 A 
ATOM     16  C   UNL     1       3.633   3.788  16.738  0.00  0.00    +0.000 A 
ATOM     17  C   UNL     1       4.989   4.088  16.458  0.00  0.00    +0.000 A 
ENDROOT
BRANCH   1  18
ATOM     18  C   UNL     1       6.825   7.520  17.635  0.00  0.00    +0.000 C 
BRANCH  18  20
ATOM     19  C   UNL     1       8.394   9.391  18.162  0.00  0.00    +0.000 C 
ATOM     20  C   UNL     1       8.129   8.069  18.137  0.00  0.00    +0.000 C 
ENDBRANCH  18  20
ENDBRANCH   1  18
BRANCH  15  21
ATOM     21  O   UNL     1       1.970   3.310  18.514  0.00  0.00    +0.000 OA
BRANCH  21  22
ATOM     22  C   UNL     1       1.657   2.178  19.307  0.00  0.00    +0.000 C 
BRANCH  22  23
ATOM     23  C   UNL     1       1.058   2.716  20.579  0.00  0.00    +0.000 C 
ATOM     24  C   UNL     1       1.870   2.706  21.855  0.00  0.00    +0.000 C 
ATOM     25  C   UNL     1       1.525   4.009  21.194  0.00  0.00    +0.000 C 
ENDBRANCH  22  23
ENDBRANCH  21  22
ENDBRANCH  15  21
TORSDOF 5
ENDMDL
MODEL 6
REMARK VINA RESULT:      -6.7      2.315      5.716
REMARK  Name = 
REMARK  5 active torsions:
REMARK  status: ('A' for Active; 'I' for Inactive)
REMARK    1  A    between atoms: C_2  and  C_3
REMARK    2  A    between atoms: C_3  and  N_4
REMARK    3  A    between atoms: C_18  and  O_19
REMARK    4  A    between atoms: O_19  and  C_20
REMARK    5  A    between atoms: C_20  and  C_21
REMARK                            x       y       z     vdW  Elec       q    Type
REMARK                         _______ _______ _______ _____ _____    ______ ____
ROOT
ATOM      1  N   UNL     1       4.383   3.025  17.400  0.00  0.00    +0.000 NA
ATOM      2  C   UNL     1       3.013   3.442  17.016  0.00  0.00    +0.000 C 
ATOM      3  C   UNL     1       2.001   3.576  18.143  0.00  0.00    +0.000 C 
ATOM      4  C   UNL     1       2.586   4.402  19.310  0.00  0.00    +0.000 C 
ATOM      5  C   UNL     1       1.538   4.599  20.430  0.00  0.00    +0.000 C 
ATOM      6  C   UNL     1       1.129   3.298  21.124  0.00  0.00    +0.000 C 
ATOM      7  C   UNL     1       2.342   2.544  21.658  0.00  0.00    +0.000 C 
ATOM      8  C   UNL     1       3.368   2.260  20.551  0.00  0.00    +0.000 C 
ATOM      9  C   UNL     1       3.776   3.577  19.868  0.00  0.00    +0.000 C 
ATOM     10  C   UNL     1       4.852   3.490  18.744  0.00  0.00    +0.000 C 
ATOM     11  C   UNL     1       5.503   4.888  18.800  0.00  0.00    +0.000 C 
ATOM     12  C   UNL     1       4.487   5.982  18.575  0.00  0.00    +0.000 A 
ATOM     13  C   UNL     1       4.971   7.194  18.088  0.00  0.00    +0.000 A 
ATOM     14  C   UNL     1       4.082   8.165  17.675  0.00  0.00    +0.000 A 
ATOM     15  C   UNL     1       2.707   7.964  17.767  0.00  0.00    +0.000 A 
ATOM     16  C   UNL     1       2.210   6.791  18.339  0.00  0.00    +0.000 A 
ATOM     17  C   UNL     1       3.096   5.776  18.775  0.00  0.00    +0.000 A 
ENDROOT
BRANCH   1  18
ATOM     18  C   UNL     1       5.235   3.414  16.249  0.00  0.00    +0.000 C 
BRANCH  18  20
ATOM     19  C   UNL     1       5.596   5.539  14.984  0.00  0.00    +0.000 C 
ATOM     20  C   UNL     1       4.776   4.537  15.365  0.00  0.00    +0.000 C 
ENDBRANCH  18  20
ENDBRANCH   1  18
BRANCH  15  21
ATOM     21  O   UNL     1       2.013   8.968  17.167  0.00  0.00    +0.000 OA
BRANCH  21  22
ATOM     22  C   UNL     1       1.683  10.135  17.898  0.00  0.00    +0.000 C 
BRANCH  22  23
ATOM     23  C   UNL     1       0.260   9.951  18.356  0.00  0.00    +0.000 C 
ATOM     24  C   UNL     1      -0.052   9.902  19.834  0.00  0.00    +0.000 C 
ATOM     25  C   UNL     1      -0.516  11.065  19.006  0.00  0.00    +0.000 C 
ENDBRANCH  22  23
ENDBRANCH  21  22
ENDBRANCH  15  21
TORSDOF 5
ENDMDL
MODEL 7
REMARK VINA RESULT:      -6.7      2.720      6.207
REMARK  Name = 
REMARK  5 active torsions:
REMARK  status: ('A' for Active; 'I' for Inactive)
REMARK    1  A    between atoms: C_2  and  C_3
REMARK    2  A    between atoms: C_3  and  N_4
REMARK    3  A    between atoms: C_18  and  O_19
REMARK    4  A    between atoms: O_19  and  C_20
REMARK    5  A    between atoms: C_20  and  C_21
REMARK                            x       y       z     vdW  Elec       q    Type
REMARK                         _______ _______ _______ _____ _____    ______ ____
ROOT
ATOM      1  N   UNL     1       6.565   5.511  15.036  0.00  0.00    +0.000 NA
ATOM      2  C   UNL     1       7.025   4.306  15.765  0.00  0.00    +0.000 C 
ATOM      3  C   UNL     1       7.563   4.523  17.171  0.00  0.00    +0.000 C 
ATOM      4  C   UNL     1       6.599   5.404  17.996  0.00  0.00    +0.000 C 
ATOM      5  C   UNL     1       7.107   5.574  19.447  0.00  0.00    +0.000 C 
ATOM      6  C   UNL     1       8.425   6.345  19.550  0.00  0.00    +0.000 C 
ATOM      7  C   UNL     1       8.333   7.701  18.858  0.00  0.00    +0.000 C 
ATOM      8  C   UNL     1       7.909   7.562  17.388  0.00  0.00    +0.000 C 
ATOM      9  C   UNL     1       6.580   6.791  17.300  0.00  0.00    +0.000 C 
ATOM     10  C   UNL     1       5.967   6.594  15.881  0.00  0.00    +0.000 C 
ATOM     11  C   UNL     1       4.459   6.475  16.187  0.00  0.00    +0.000 C 
ATOM     12  C   UNL     1       4.172   5.331  17.128  0.00  0.00    +0.000 A 
ATOM     13  C   UNL     1       2.891   4.787  17.080  0.00  0.00    +0.000 A 
ATOM     14  C   UNL     1       2.620   3.621  17.765  0.00  0.00    +0.000 A 
ATOM     15  C   UNL     1       3.600   2.996  18.531  0.00  0.00    +0.000 A 
ATOM     16  C   UNL     1       4.861   3.580  18.663  0.00  0.00    +0.000 A 
ATOM     17  C   UNL     1       5.170   4.779  17.975  0.00  0.00    +0.000 A 
ENDROOT
BRANCH   1  18
ATOM     18  C   UNL     1       5.700   4.990  13.948  0.00  0.00    +0.000 C 
BRANCH  18  20
ATOM     19  C   UNL     1       5.498   3.270  12.148  0.00  0.00    +0.000 C 
ATOM     20  C   UNL     1       6.082   3.699  13.286  0.00  0.00    +0.000 C 
ENDBRANCH  18  20
ENDBRANCH   1  18
BRANCH  15  21
ATOM     21  O   UNL     1       3.180   1.788  18.995  0.00  0.00    +0.000 OA
BRANCH  21  22
ATOM     22  C   UNL     1       2.001   1.699  19.775  0.00  0.00    +0.000 C 
BRANCH  22  23
ATOM     23  C   UNL     1       2.286   2.455  21.045  0.00  0.00    +0.000 C 
ATOM     24  C   UNL     1       1.638   3.801  21.280  0.00  0.00    +0.000 C 
ATOM     25  C   UNL     1       1.247   2.622  22.122  0.00  0.00    +0.000 C 
ENDBRANCH  22  23
ENDBRANCH  21  22
ENDBRANCH  15  21
TORSDOF 5
ENDMDL
MODEL 8
REMARK VINA RESULT:      -6.6      1.866      3.732
REMARK  Name = 
REMARK  5 active torsions:
REMARK  status: ('A' for Active; 'I' for Inactive)
REMARK    1  A    between atoms: C_2  and  C_3
REMARK    2  A    between atoms: C_3  and  N_4
REMARK    3  A    between atoms: C_18  and  O_19
REMARK    4  A    between atoms: O_19  and  C_20
REMARK    5  A    between atoms: C_20  and  C_21
REMARK                            x       y       z     vdW  Elec       q    Type
REMARK                         _______ _______ _______ _____ _____    ______ ____
ROOT
ATOM      1  N   UNL     1       5.198   5.188  19.752  0.00  0.00    +0.000 NA
ATOM      2  C   UNL     1       5.647   3.891  19.193  0.00  0.00    +0.000 C 
ATOM      3  C   UNL     1       4.559   2.931  18.739  0.00  0.00    +0.000 C 
ATOM      4  C   UNL     1       3.527   3.655  17.846  0.00  0.00    +0.000 C 
ATOM      5  C   UNL     1       2.454   2.670  17.327  0.00  0.00    +0.000 C 
ATOM      6  C   UNL     1       1.574   2.081  18.432  0.00  0.00    +0.000 C 
ATOM      7  C   UNL     1       0.927   3.177  19.273  0.00  0.00    +0.000 C 
ATOM      8  C   UNL     1       1.973   4.127  19.872  0.00  0.00    +0.000 C 
ATOM      9  C   UNL     1       2.845   4.717  18.750  0.00  0.00    +0.000 C 
ATOM     10  C   UNL     1       3.937   5.747  19.168  0.00  0.00    +0.000 C 
ATOM     11  C   UNL     1       4.090   6.602  17.892  0.00  0.00    +0.000 C 
ATOM     12  C   UNL     1       4.483   5.760  16.703  0.00  0.00    +0.000 A 
ATOM     13  C   UNL     1       5.144   6.412  15.666  0.00  0.00    +0.000 A 
ATOM     14  C   UNL     1       5.704   5.673  14.644  0.00  0.00    +0.000 A 
ATOM     15  C   UNL     1       5.590   4.286  14.617  0.00  0.00    +0.000 A 
ATOM     16  C   UNL     1       4.850   3.628  15.601  0.00  0.00    +0.000 A 
ATOM     17  C   UNL     1       4.260   4.358  16.662  0.00  0.00    +0.000 A 
ENDROOT
BRANCH   1  18
ATOM     18  C   UNL     1       6.391   6.069  19.674  0.00  0.00    +0.000 C 
BRANCH  18  20
ATOM     19  C   UNL     1       7.868   6.749  17.778  0.00  0.00    +0.000 C 
ATOM     20  C   UNL     1       7.417   5.792  18.614  0.00  0.00    +0.000 C 
ENDBRANCH  18  20
ENDBRANCH   1  18
BRANCH  15  21
ATOM     21  O   UNL     1       6.337   3.740  13.620  0.00  0.00    +0.000 OA
BRANCH  21  22
ATOM     22  C   UNL     1       5.715   3.305  12.425  0.00  0.00    +0.000 C 
BRANCH  22  23
ATOM     23  C   UNL     1       6.353   1.987  12.079  0.00  0.00    +0.000 C 
ATOM     24  C   UNL     1       5.908   1.237  10.844  0.00  0.00    +0.000 C 
ATOM     25  C   UNL     1       7.282   1.837  10.904  0.00  0.00    +0.000 C 
ENDBRANCH  22  23
ENDBRANCH  21  22
ENDBRANCH  15  21
TORSDOF 5
ENDMDL
MODEL 9
REMARK VINA RESULT:      -6.6      2.543      6.684
REMARK  Name = 
REMARK  5 active torsions:
REMARK  status: ('A' for Active; 'I' for Inactive)
REMARK    1  A    between atoms: C_2  and  C_3
REMARK    2  A    between atoms: C_3  and  N_4
REMARK    3  A    between atoms: C_18  and  O_19
REMARK    4  A    between atoms: O_19  and  C_20
REMARK    5  A    between atoms: C_20  and  C_21
REMARK                            x       y       z     vdW  Elec       q    Type
REMARK                         _______ _______ _______ _____ _____    ______ ____
ROOT
ATOM      1  N   UNL     1       4.612   2.700  18.826  0.00  0.00    +0.000 NA
ATOM      2  C   UNL     1       5.192   3.882  19.507  0.00  0.00    +0.000 C 
ATOM      3  C   UNL     1       5.509   5.085  18.633  0.00  0.00    +0.000 C 
ATOM      4  C   UNL     1       4.311   5.432  17.722  0.00  0.00    +0.000 C 
ATOM      5  C   UNL     1       4.603   6.695  16.879  0.00  0.00    +0.000 C 
ATOM      6  C   UNL     1       5.739   6.511  15.869  0.00  0.00    +0.000 C 
ATOM      7  C   UNL     1       5.488   5.312  14.961  0.00  0.00    +0.000 C 
ATOM      8  C   UNL     1       5.275   4.022  15.767  0.00  0.00    +0.000 C 
ATOM      9  C   UNL     1       4.127   4.220  16.771  0.00  0.00    +0.000 C 
ATOM     10  C   UNL     1       3.733   2.993  17.649  0.00  0.00    +0.000 C 
ATOM     11  C   UNL     1       2.245   3.269  17.953  0.00  0.00    +0.000 C 
ATOM     12  C   UNL     1       2.058   4.592  18.654  0.00  0.00    +0.000 A 
ATOM     13  C   UNL     1       0.911   4.732  19.431  0.00  0.00    +0.000 A 
ATOM     14  C   UNL     1       0.774   5.833  20.251  0.00  0.00    +0.000 A 
ATOM     15  C   UNL     1       1.752   6.824  20.290  0.00  0.00    +0.000 A 
ATOM     16  C   UNL     1       2.862   6.742  19.448  0.00  0.00    +0.000 A 
ATOM     17  C   UNL     1       3.031   5.626  18.592  0.00  0.00    +0.000 A 
ENDROOT
BRANCH   1  18
ATOM     18  C   UNL     1       3.991   1.901  19.911  0.00  0.00    +0.000 C 
BRANCH  18  20
ATOM     19  C   UNL     1       2.274   2.505  21.622  0.00  0.00    +0.000 C 
ATOM     20  C   UNL     1       3.533   2.612  21.151  0.00  0.00    +0.000 C 
ENDBRANCH  18  20
ENDBRANCH   1  18
BRANCH  15  21
ATOM     21  O   UNL     1       1.503   7.735  21.269  0.00  0.00    +0.000 OA
BRANCH  21  22
ATOM     22  C   UNL     1       0.960   9.000  20.937  0.00  0.00    +0.000 C 
BRANCH  22  23
ATOM     23  C   UNL     1       0.812   9.743  22.238  0.00  0.00    +0.000 C 
ATOM     24  C   UNL     1      -0.411  10.600  22.478  0.00  0.00    +0.000 C 
ATOM     25  C   UNL     1      -0.207   9.342  23.271  0.00  0.00    +0.000 C 
ENDBRANCH  22  23
ENDBRANCH  21  22
ENDBRANCH  15  21
TORSDOF 5
ENDMDL
