MODEL 1
REMARK VINA RESULT:      -9.8      0.000      0.000
REMARK  Name = 
REMARK  4 active torsions:
REMARK  status: ('A' for Active; 'I' for Inactive)
REMARK    1  A    between atoms: C_1  and  C_2
REMARK    2  A    between atoms: C_5  and  C_6
REMARK    3  A    between atoms: C_14  and  C_15
REMARK    4  A    between atoms: C_18  and  C_19
REMARK                            x       y       z     vdW  Elec       q    Type
REMARK                         _______ _______ _______ _____ _____    ______ ____
ROOT
ATOM      1  C   UNL     1       2.787   5.968  19.497  0.00  0.00    +0.000 A 
ATOM      2  N   UNL     1       3.085   6.798  18.515  0.00  0.00    +0.000 NA
ATOM      3  N   UNL     1       2.369   7.953  18.735  0.00  0.00    +0.000 NA
ATOM      4  C   UNL     1       1.725   7.784  19.870  0.00  0.00    +0.000 A 
ATOM      5  O   UNL     1       1.919   6.534  20.398  0.00  0.00    +0.000 OA
ENDROOT
BRANCH   4   6
ATOM      6  C   UNL     1       0.959   8.727  20.682  0.00  0.00    +0.000 A 
ATOM      7  C   UNL     1       1.102   8.652  22.082  0.00  0.00    +0.000 A 
ATOM      8  C   UNL     1       0.482   9.574  22.917  0.00  0.00    +0.000 A 
ATOM      9  C   UNL     1      -0.302  10.580  22.366  0.00  0.00    +0.000 A 
ATOM     10  C   UNL     1      -0.488  10.675  20.981  0.00  0.00    +0.000 A 
ATOM     11  C   UNL     1      -1.289  11.700  20.456  0.00  0.00    +0.000 A 
ATOM     12  C   UNL     1      -1.495  11.826  19.082  0.00  0.00    +0.000 A 
ATOM     13  C   UNL     1      -0.912  10.916  18.214  0.00  0.00    +0.000 A 
ATOM     14  C   UNL     1      -0.107   9.892  18.719  0.00  0.00    +0.000 A 
ATOM     15  C   UNL     1       0.138   9.741  20.108  0.00  0.00    +0.000 A 
ENDBRANCH   4   6
BRANCH   1  21
ATOM     16  C   UNL     1       1.856   3.681  21.579  0.00  0.00    +0.000 C 
ATOM     17  C   UNL     1       2.908   3.685  20.543  0.00  0.00    +0.000 A 
ATOM     18  O   UNL     1       3.601   2.534  20.367  0.00  0.00    +0.000 OA
ATOM     19  N   UNL     1       4.512   2.693  19.345  0.00  0.00    +0.000 NA
ATOM     20  C   UNL     1       4.356   3.940  18.865  0.00  0.00    +0.000 A 
ATOM     21  C   UNL     1       3.341   4.603  19.618  0.00  0.00    +0.000 A 
BRANCH  20  22
ATOM     22  C   UNL     1       5.219   4.455  17.791  0.00  0.00    +0.000 A 
ATOM     23  C   UNL     1       4.849   4.255  16.451  0.00  0.00    +0.000 A 
ATOM     24  F   UNL     1       3.673   3.690  16.142  0.00  0.00    +0.000 F 
ATOM     25  C   UNL     1       5.654   4.646  15.380  0.00  0.00    +0.000 A 
ATOM     26  C   UNL     1       6.837   5.326  15.623  0.00  0.00    +0.000 A 
ATOM     27  C   UNL     1       7.203   5.605  16.937  0.00  0.00    +0.000 A 
ATOM     28  C   UNL     1       6.414   5.165  18.016  0.00  0.00    +0.000 A 
ATOM     29 CL   UNL     1       7.036   5.533  19.591  0.00  0.00    +0.000 Cl
ENDBRANCH  20  22
ENDBRANCH   1  21
TORSDOF 3
ENDMDL
MODEL 2
REMARK VINA RESULT:      -9.7      1.452      1.739
REMARK  Name = 
REMARK  4 active torsions:
REMARK  status: ('A' for Active; 'I' for Inactive)
REMARK    1  A    between atoms: C_1  and  C_2
REMARK    2  A    between atoms: C_5  and  C_6
REMARK    3  A    between atoms: C_14  and  C_15
REMARK    4  A    between atoms: C_18  and  C_19
REMARK                            x       y       z     vdW  Elec       q    Type
REMARK                         _______ _______ _______ _____ _____    ______ ____
ROOT
ATOM      1  C   UNL     1       2.770   6.137  19.576  0.00  0.00    +0.000 A 
ATOM      2  N   UNL     1       2.965   6.954  18.558  0.00  0.00    +0.000 NA
ATOM      3  N   UNL     1       2.188   8.068  18.783  0.00  0.00    +0.000 NA
ATOM      4  C   UNL     1       1.614   7.893  19.954  0.00  0.00    +0.000 A 
ATOM      5  O   UNL     1       1.914   6.674  20.505  0.00  0.00    +0.000 OA
ENDROOT
BRANCH   4   6
ATOM      6  C   UNL     1       0.830   8.811  20.779  0.00  0.00    +0.000 A 
ATOM      7  C   UNL     1       0.930   8.681  22.178  0.00  0.00    +0.000 A 
ATOM      8  C   UNL     1       0.292   9.574  23.030  0.00  0.00    +0.000 A 
ATOM      9  C   UNL     1      -0.469  10.607  22.495  0.00  0.00    +0.000 A 
ATOM     10  C   UNL     1      -0.612  10.757  21.110  0.00  0.00    +0.000 A 
ATOM     11  C   UNL     1      -1.390  11.808  20.602  0.00  0.00    +0.000 A 
ATOM     12  C   UNL     1      -1.554  11.988  19.228  0.00  0.00    +0.000 A 
ATOM     13  C   UNL     1      -0.951  11.108  18.343  0.00  0.00    +0.000 A 
ATOM     14  C   UNL     1      -0.169  10.058  18.832  0.00  0.00    +0.000 A 
ATOM     15  C   UNL     1       0.034   9.852  20.220  0.00  0.00    +0.000 A 
ENDBRANCH   4   6
BRANCH   1  21
ATOM     16  C   UNL     1       1.660   3.596  21.231  0.00  0.00    +0.000 C 
ATOM     17  C   UNL     1       2.895   3.781  20.444  0.00  0.00    +0.000 A 
ATOM     18  O   UNL     1       3.717   2.709  20.330  0.00  0.00    +0.000 OA
ATOM     19  N   UNL     1       4.797   3.036  19.539  0.00  0.00    +0.000 NA
ATOM     20  C   UNL     1       4.623   4.308  19.134  0.00  0.00    +0.000 A 
ATOM     21  C   UNL     1       3.417   4.814  19.705  0.00  0.00    +0.000 A 
BRANCH  20  22
ATOM     22  C   UNL     1       5.633   4.988  18.310  0.00  0.00    +0.000 A 
ATOM     23  C   UNL     1       6.714   5.632  18.933  0.00  0.00    +0.000 A 
ATOM     24  F   UNL     1       6.889   5.548  20.261  0.00  0.00    +0.000 F 
ATOM     25  C   UNL     1       7.668   6.362  18.223  0.00  0.00    +0.000 A 
ATOM     26  C   UNL     1       7.607   6.408  16.839  0.00  0.00    +0.000 A 
ATOM     27  C   UNL     1       6.589   5.723  16.180  0.00  0.00    +0.000 A 
ATOM     28  C   UNL     1       5.600   5.029  16.902  0.00  0.00    +0.000 A 
ATOM     29 CL   UNL     1       4.365   4.283  15.944  0.00  0.00    +0.000 Cl
ENDBRANCH  20  22
ENDBRANCH   1  21
TORSDOF 3
ENDMDL
MODEL 3
REMARK VINA RESULT:      -9.6      2.001      2.856
REMARK  Name = 
REMARK  4 active torsions:
REMARK  status: ('A' for Active; 'I' for Inactive)
REMARK    1  A    between atoms: C_1  and  C_2
REMARK    2  A    between atoms: C_5  and  C_6
REMARK    3  A    between atoms: C_14  and  C_15
REMARK    4  A    between atoms: C_18  and  C_19
REMARK                            x       y       z     vdW  Elec       q    Type
REMARK                         _______ _______ _______ _____ _____    ______ ____
ROOT
ATOM      1  C   UNL     1       2.422   5.133  19.352  0.00  0.00    +0.000 A 
ATOM      2  N   UNL     1       2.027   5.058  20.609  0.00  0.00    +0.000 NA
ATOM      3  N   UNL     1       1.710   6.337  21.008  0.00  0.00    +0.000 NA
ATOM      4  C   UNL     1       1.870   7.108  19.954  0.00  0.00    +0.000 A 
ATOM      5  O   UNL     1       2.349   6.417  18.871  0.00  0.00    +0.000 OA
ENDROOT
BRANCH   4   6
ATOM      6  C   UNL     1       1.518   8.509  19.735  0.00  0.00    +0.000 A 
ATOM      7  C   UNL     1       1.835   9.075  18.484  0.00  0.00    +0.000 A 
ATOM      8  C   UNL     1       1.449  10.371  18.163  0.00  0.00    +0.000 A 
ATOM      9  C   UNL     1       0.749  11.128  19.095  0.00  0.00    +0.000 A 
ATOM     10  C   UNL     1       0.434  10.610  20.358  0.00  0.00    +0.000 A 
ATOM     11  C   UNL     1      -0.271  11.401  21.277  0.00  0.00    +0.000 A 
ATOM     12  C   UNL     1      -0.602  10.918  22.544  0.00  0.00    +0.000 A 
ATOM     13  C   UNL     1      -0.218   9.637  22.912  0.00  0.00    +0.000 A 
ATOM     14  C   UNL     1       0.480   8.834  22.006  0.00  0.00    +0.000 A 
ATOM     15  C   UNL     1       0.821   9.284  20.706  0.00  0.00    +0.000 A 
ENDBRANCH   4   6
BRANCH   1  21
ATOM     16  C   UNL     1       0.751   2.429  18.784  0.00  0.00    +0.000 C 
ATOM     17  C   UNL     1       2.108   2.840  18.373  0.00  0.00    +0.000 A 
ATOM     18  O   UNL     1       2.793   1.983  17.577  0.00  0.00    +0.000 OA
ATOM     19  N   UNL     1       4.017   2.530  17.255  0.00  0.00    +0.000 NA
ATOM     20  C   UNL     1       4.072   3.746  17.828  0.00  0.00    +0.000 A 
ATOM     21  C   UNL     1       2.866   3.969  18.557  0.00  0.00    +0.000 A 
BRANCH  20  22
ATOM     22  C   UNL     1       5.277   4.582  17.722  0.00  0.00    +0.000 A 
ATOM     23  C   UNL     1       5.957   4.965  18.890  0.00  0.00    +0.000 A 
ATOM     24  F   UNL     1       5.579   4.496  20.088  0.00  0.00    +0.000 F 
ATOM     25  C   UNL     1       7.061   5.818  18.874  0.00  0.00    +0.000 A 
ATOM     26  C   UNL     1       7.569   6.262  17.663  0.00  0.00    +0.000 A 
ATOM     27  C   UNL     1       6.964   5.846  16.480  0.00  0.00    +0.000 A 
ATOM     28  C   UNL     1       5.821   5.026  16.501  0.00  0.00    +0.000 A 
ATOM     29 CL   UNL     1       5.146   4.649  14.951  0.00  0.00    +0.000 Cl
ENDBRANCH  20  22
ENDBRANCH   1  21
TORSDOF 3
ENDMDL
MODEL 4
REMARK VINA RESULT:      -9.5      0.778      2.117
REMARK  Name = 
REMARK  4 active torsions:
REMARK  status: ('A' for Active; 'I' for Inactive)
REMARK    1  A    between atoms: C_1  and  C_2
REMARK    2  A    between atoms: C_5  and  C_6
REMARK    3  A    between atoms: C_14  and  C_15
REMARK    4  A    between atoms: C_18  and  C_19
REMARK                            x       y       z     vdW  Elec       q    Type
REMARK                         _______ _______ _______ _____ _____    ______ ____
ROOT
ATOM      1  C   UNL     1       3.026   6.423  18.759  0.00  0.00    +0.000 A 
ATOM      2  N   UNL     1       3.691   7.190  17.916  0.00  0.00    +0.000 NA
ATOM      3  N   UNL     1       2.974   8.359  17.787  0.00  0.00    +0.000 NA
ATOM      4  C   UNL     1       1.949   8.261  18.605  0.00  0.00    +0.000 A 
ATOM      5  O   UNL     1       1.899   7.045  19.236  0.00  0.00    +0.000 OA
ENDROOT
BRANCH   4   6
ATOM      6  C   UNL     1       0.959   9.255  19.016  0.00  0.00    +0.000 A 
ATOM      7  C   UNL     1       0.281   9.961  18.002  0.00  0.00    +0.000 A 
ATOM      8  C   UNL     1      -0.741  10.852  18.308  0.00  0.00    +0.000 A 
ATOM      9  C   UNL     1      -1.093  11.062  19.636  0.00  0.00    +0.000 A 
ATOM     10  C   UNL     1      -0.428  10.397  20.674  0.00  0.00    +0.000 A 
ATOM     11  C   UNL     1      -0.805  10.633  22.004  0.00  0.00    +0.000 A 
ATOM     12  C   UNL     1      -0.166   9.988  23.063  0.00  0.00    +0.000 A 
ATOM     13  C   UNL     1       0.872   9.106  22.804  0.00  0.00    +0.000 A 
ATOM     14  C   UNL     1       1.257   8.855  21.485  0.00  0.00    +0.000 A 
ATOM     15  C   UNL     1       0.621   9.480  20.382  0.00  0.00    +0.000 A 
ENDBRANCH   4   6
BRANCH   1  21
ATOM     16  C   UNL     1       1.875   4.664  21.211  0.00  0.00    +0.000 C 
ATOM     17  C   UNL     1       2.937   4.383  20.225  0.00  0.00    +0.000 A 
ATOM     18  O   UNL     1       3.530   3.166  20.293  0.00  0.00    +0.000 OA
ATOM     19  N   UNL     1       4.465   3.050  19.286  0.00  0.00    +0.000 NA
ATOM     20  C   UNL     1       4.423   4.190  18.572  0.00  0.00    +0.000 A 
ATOM     21  C   UNL     1       3.459   5.066  19.155  0.00  0.00    +0.000 A 
BRANCH  20  22
ATOM     22  C   UNL     1       5.341   4.415  17.446  0.00  0.00    +0.000 A 
ATOM     23  C   UNL     1       4.946   4.050  16.148  0.00  0.00    +0.000 A 
ATOM     24  F   UNL     1       3.708   3.592  15.913  0.00  0.00    +0.000 F 
ATOM     25  C   UNL     1       5.791   4.163  15.044  0.00  0.00    +0.000 A 
ATOM     26  C   UNL     1       7.050   4.721  15.196  0.00  0.00    +0.000 A 
ATOM     27  C   UNL     1       7.451   5.161  16.455  0.00  0.00    +0.000 A 
ATOM     28  C   UNL     1       6.616   5.000  17.577  0.00  0.00    +0.000 A 
ATOM     29 CL   UNL     1       7.282   5.536  19.083  0.00  0.00    +0.000 Cl
ENDBRANCH  20  22
ENDBRANCH   1  21
TORSDOF 3
ENDMDL
MODEL 5
REMARK VINA RESULT:      -9.3      2.174      4.223
REMARK  Name = 
REMARK  4 active torsions:
REMARK  status: ('A' for Active; 'I' for Inactive)
REMARK    1  A    between atoms: C_1  and  C_2
REMARK    2  A    between atoms: C_5  and  C_6
REMARK    3  A    between atoms: C_14  and  C_15
REMARK    4  A    between atoms: C_18  and  C_19
REMARK                            x       y       z     vdW  Elec       q    Type
REMARK                         _______ _______ _______ _____ _____    ______ ____
ROOT
ATOM      1  C   UNL     1       3.768   6.785  18.173  0.00  0.00    +0.000 A 
ATOM      2  N   UNL     1       4.009   7.533  17.112  0.00  0.00    +0.000 NA
ATOM      3  N   UNL     1       3.007   8.474  17.049  0.00  0.00    +0.000 NA
ATOM      4  C   UNL     1       2.249   8.286  18.108  0.00  0.00    +0.000 A 
ATOM      5  O   UNL     1       2.655   7.210  18.855  0.00  0.00    +0.000 OA
ENDROOT
BRANCH   4   6
ATOM      6  C   UNL     1       1.155   9.088  18.652  0.00  0.00    +0.000 A 
ATOM      7  C   UNL     1       0.273   9.698  17.738  0.00  0.00    +0.000 A 
ATOM      8  C   UNL     1      -0.846  10.396  18.176  0.00  0.00    +0.000 A 
ATOM      9  C   UNL     1      -1.094  10.507  19.539  0.00  0.00    +0.000 A 
ATOM     10  C   UNL     1      -0.230   9.935  20.480  0.00  0.00    +0.000 A 
ATOM     11  C   UNL     1      -0.507  10.068  21.849  0.00  0.00    +0.000 A 
ATOM     12  C   UNL     1       0.331   9.510  22.815  0.00  0.00    +0.000 A 
ATOM     13  C   UNL     1       1.469   8.823  22.422  0.00  0.00    +0.000 A 
ATOM     14  C   UNL     1       1.758   8.676  21.063  0.00  0.00    +0.000 A 
ATOM     15  C   UNL     1       0.922   9.215  20.052  0.00  0.00    +0.000 A 
ENDBRANCH   4   6
BRANCH   1  21
ATOM     16  C   UNL     1       6.993   6.643  18.114  0.00  0.00    +0.000 C 
ATOM     17  C   UNL     1       5.982   5.645  18.514  0.00  0.00    +0.000 A 
ATOM     18  O   UNL     1       6.442   4.462  18.991  0.00  0.00    +0.000 OA
ATOM     19  N   UNL     1       5.378   3.665  19.353  0.00  0.00    +0.000 NA
ATOM     20  C   UNL     1       4.256   4.373  19.130  0.00  0.00    +0.000 A 
ATOM     21  C   UNL     1       4.611   5.643  18.585  0.00  0.00    +0.000 A 
BRANCH  20  22
ATOM     22  C   UNL     1       2.928   3.787  19.365  0.00  0.00    +0.000 A 
ATOM     23  C   UNL     1       2.200   4.157  20.508  0.00  0.00    +0.000 A 
ATOM     24  F   UNL     1       2.659   5.111  21.332  0.00  0.00    +0.000 F 
ATOM     25  C   UNL     1       0.970   3.588  20.836  0.00  0.00    +0.000 A 
ATOM     26  C   UNL     1       0.388   2.668  19.977  0.00  0.00    +0.000 A 
ATOM     27  C   UNL     1       1.046   2.328  18.798  0.00  0.00    +0.000 A 
ATOM     28  C   UNL     1       2.310   2.867  18.494  0.00  0.00    +0.000 A 
ATOM     29 CL   UNL     1       3.028   2.298  17.025  0.00  0.00    +0.000 Cl
ENDBRANCH  20  22
ENDBRANCH   1  21
TORSDOF 3
ENDMDL
MODEL 6
REMARK VINA RESULT:      -9.2      2.224      3.787
REMARK  Name = 
REMARK  4 active torsions:
REMARK  status: ('A' for Active; 'I' for Inactive)
REMARK    1  A    between atoms: C_1  and  C_2
REMARK    2  A    between atoms: C_5  and  C_6
REMARK    3  A    between atoms: C_14  and  C_15
REMARK    4  A    between atoms: C_18  and  C_19
REMARK                            x       y       z     vdW  Elec       q    Type
REMARK                         _______ _______ _______ _____ _____    ______ ____
ROOT
ATOM      1  C   UNL     1       3.264   7.240  18.141  0.00  0.00    +0.000 A 
ATOM      2  N   UNL     1       3.136   8.033  17.094  0.00  0.00    +0.000 NA
ATOM      3  N   UNL     1       2.142   8.937  17.394  0.00  0.00    +0.000 NA
ATOM      4  C   UNL     1       1.766   8.682  18.629  0.00  0.00    +0.000 A 
ATOM      5  O   UNL     1       2.415   7.597  19.159  0.00  0.00    +0.000 OA
ENDROOT
BRANCH   4   6
ATOM      6  C   UNL     1       0.882   9.422  19.528  0.00  0.00    +0.000 A 
ATOM      7  C   UNL     1       1.237   9.484  20.890  0.00  0.00    +0.000 A 
ATOM      8  C   UNL     1       0.502  10.245  21.790  0.00  0.00    +0.000 A 
ATOM      9  C   UNL     1      -0.611  10.948  21.345  0.00  0.00    +0.000 A 
ATOM     10  C   UNL     1      -1.010  10.895  20.004  0.00  0.00    +0.000 A 
ATOM     11  C   UNL     1      -2.140  11.614  19.586  0.00  0.00    +0.000 A 
ATOM     12  C   UNL     1      -2.567  11.584  18.258  0.00  0.00    +0.000 A 
ATOM     13  C   UNL     1      -1.874  10.821  17.331  0.00  0.00    +0.000 A 
ATOM     14  C   UNL     1      -0.743  10.103  17.729  0.00  0.00    +0.000 A 
ATOM     15  C   UNL     1      -0.270  10.120  19.065  0.00  0.00    +0.000 A 
ENDBRANCH   4   6
BRANCH   1  21
ATOM     16  C   UNL     1       6.402   7.327  17.383  0.00  0.00    +0.000 C 
ATOM     17  C   UNL     1       5.544   6.222  17.854  0.00  0.00    +0.000 A 
ATOM     18  O   UNL     1       6.145   5.025  18.064  0.00  0.00    +0.000 OA
ATOM     19  N   UNL     1       5.220   4.119  18.534  0.00  0.00    +0.000 NA
ATOM     20  C   UNL     1       4.048   4.770  18.648  0.00  0.00    +0.000 A 
ATOM     21  C   UNL     1       4.223   6.117  18.212  0.00  0.00    +0.000 A 
BRANCH  20  22
ATOM     22  C   UNL     1       2.828   4.070  19.079  0.00  0.00    +0.000 A 
ATOM     23  C   UNL     1       2.300   4.324  20.355  0.00  0.00    +0.000 A 
ATOM     24  F   UNL     1       2.836   5.268  21.143  0.00  0.00    +0.000 F 
ATOM     25  C   UNL     1       1.192   3.644  20.861  0.00  0.00    +0.000 A 
ATOM     26  C   UNL     1       0.526   2.726  20.064  0.00  0.00    +0.000 A 
ATOM     27  C   UNL     1       0.978   2.499  18.767  0.00  0.00    +0.000 A 
ATOM     28  C   UNL     1       2.126   3.150  18.277  0.00  0.00    +0.000 A 
ATOM     29 CL   UNL     1       2.599   2.713  16.669  0.00  0.00    +0.000 Cl
ENDBRANCH  20  22
ENDBRANCH   1  21
TORSDOF 3
ENDMDL
MODEL 7
REMARK VINA RESULT:      -9.2      1.097      1.999
REMARK  Name = 
REMARK  4 active torsions:
REMARK  status: ('A' for Active; 'I' for Inactive)
REMARK    1  A    between atoms: C_1  and  C_2
REMARK    2  A    between atoms: C_5  and  C_6
REMARK    3  A    between atoms: C_14  and  C_15
REMARK    4  A    between atoms: C_18  and  C_19
REMARK                            x       y       z     vdW  Elec       q    Type
REMARK                         _______ _______ _______ _____ _____    ______ ____
ROOT
ATOM      1  C   UNL     1       2.638   5.803  18.928  0.00  0.00    +0.000 A 
ATOM      2  N   UNL     1       2.092   5.900  17.730  0.00  0.00    +0.000 NA
ATOM      3  N   UNL     1       1.491   7.136  17.662  0.00  0.00    +0.000 NA
ATOM      4  C   UNL     1       1.760   7.746  18.797  0.00  0.00    +0.000 A 
ATOM      5  O   UNL     1       2.461   6.948  19.664  0.00  0.00    +0.000 OA
ENDROOT
BRANCH   4   6
ATOM      6  C   UNL     1       1.536   9.129  19.214  0.00  0.00    +0.000 A 
ATOM      7  C   UNL     1       1.986  10.152  18.356  0.00  0.00    +0.000 A 
ATOM      8  C   UNL     1       1.727  11.488  18.633  0.00  0.00    +0.000 A 
ATOM      9  C   UNL     1       1.022  11.825  19.783  0.00  0.00    +0.000 A 
ATOM     10  C   UNL     1       0.577  10.840  20.672  0.00  0.00    +0.000 A 
ATOM     11  C   UNL     1      -0.129  11.213  21.826  0.00  0.00    +0.000 A 
ATOM     12  C   UNL     1      -0.589  10.259  22.734  0.00  0.00    +0.000 A 
ATOM     13  C   UNL     1      -0.334   8.915  22.506  0.00  0.00    +0.000 A 
ATOM     14  C   UNL     1       0.363   8.526  21.359  0.00  0.00    +0.000 A 
ATOM     15  C   UNL     1       0.832   9.464  20.406  0.00  0.00    +0.000 A 
ENDBRANCH   4   6
BRANCH   1  21
ATOM     16  C   UNL     1       1.841   3.912  21.421  0.00  0.00    +0.000 C 
ATOM     17  C   UNL     1       2.983   3.862  20.488  0.00  0.00    +0.000 A 
ATOM     18  O   UNL     1       3.852   2.833  20.636  0.00  0.00    +0.000 OA
ATOM     19  N   UNL     1       4.831   2.911  19.670  0.00  0.00    +0.000 NA
ATOM     20  C   UNL     1       4.545   3.976  18.900  0.00  0.00    +0.000 A 
ATOM     21  C   UNL     1       3.371   4.610  19.405  0.00  0.00    +0.000 A 
BRANCH  20  22
ATOM     22  C   UNL     1       5.431   4.377  17.796  0.00  0.00    +0.000 A 
ATOM     23  C   UNL     1       5.070   4.071  16.474  0.00  0.00    +0.000 A 
ATOM     24  F   UNL     1       3.883   3.508  16.201  0.00  0.00    +0.000 F 
ATOM     25  C   UNL     1       5.894   4.350  15.383  0.00  0.00    +0.000 A 
ATOM     26  C   UNL     1       7.091   5.020  15.581  0.00  0.00    +0.000 A 
ATOM     27  C   UNL     1       7.451   5.404  16.871  0.00  0.00    +0.000 A 
ATOM     28  C   UNL     1       6.641   5.076  17.974  0.00  0.00    +0.000 A 
ATOM     29 CL   UNL     1       7.255   5.564  19.519  0.00  0.00    +0.000 Cl
ENDBRANCH  20  22
ENDBRANCH   1  21
TORSDOF 3
ENDMDL
MODEL 8
REMARK VINA RESULT:      -9.2      1.861      2.185
REMARK  Name = 
REMARK  4 active torsions:
REMARK  status: ('A' for Active; 'I' for Inactive)
REMARK    1  A    between atoms: C_1  and  C_2
REMARK    2  A    between atoms: C_5  and  C_6
REMARK    3  A    between atoms: C_14  and  C_15
REMARK    4  A    between atoms: C_18  and  C_19
REMARK                            x       y       z     vdW  Elec       q    Type
REMARK                         _______ _______ _______ _____ _____    ______ ____
ROOT
ATOM      1  C   UNL     1       2.650   6.623  18.456  0.00  0.00    +0.000 A 
ATOM      2  N   UNL     1       2.832   7.654  17.653  0.00  0.00    +0.000 NA
ATOM      3  N   UNL     1       2.122   8.707  18.186  0.00  0.00    +0.000 NA
ATOM      4  C   UNL     1       1.601   8.274  19.314  0.00  0.00    +0.000 A 
ATOM      5  O   UNL     1       1.870   6.948  19.538  0.00  0.00    +0.000 OA
ENDROOT
BRANCH   4   6
ATOM      6  C   UNL     1       0.906   8.992  20.381  0.00  0.00    +0.000 A 
ATOM      7  C   UNL     1       1.233   8.661  21.711  0.00  0.00    +0.000 A 
ATOM      8  C   UNL     1       0.687   9.363  22.780  0.00  0.00    +0.000 A 
ATOM      9  C   UNL     1      -0.205  10.400  22.535  0.00  0.00    +0.000 A 
ATOM     10  C   UNL     1      -0.572  10.745  21.228  0.00  0.00    +0.000 A 
ATOM     11  C   UNL     1      -1.478  11.795  21.015  0.00  0.00    +0.000 A 
ATOM     12  C   UNL     1      -1.865  12.165  19.727  0.00  0.00    +0.000 A 
ATOM     13  C   UNL     1      -1.361  11.479  18.633  0.00  0.00    +0.000 A 
ATOM     14  C   UNL     1      -0.454  10.434  18.828  0.00  0.00    +0.000 A 
ATOM     15  C   UNL     1      -0.024  10.038  20.119  0.00  0.00    +0.000 A 
ENDBRANCH   4   6
BRANCH   1  21
ATOM     16  C   UNL     1       1.067   3.811  18.334  0.00  0.00    +0.000 C 
ATOM     17  C   UNL     1       2.503   4.126  18.205  0.00  0.00    +0.000 A 
ATOM     18  O   UNL     1       3.338   3.090  17.943  0.00  0.00    +0.000 OA
ATOM     19  N   UNL     1       4.628   3.557  17.815  0.00  0.00    +0.000 NA
ATOM     20  C   UNL     1       4.584   4.893  17.965  0.00  0.00    +0.000 A 
ATOM     21  C   UNL     1       3.237   5.285  18.224  0.00  0.00    +0.000 A 
BRANCH  20  22
ATOM     22  C   UNL     1       5.812   5.702  17.938  0.00  0.00    +0.000 A 
ATOM     23  C   UNL     1       6.711   5.632  19.015  0.00  0.00    +0.000 A 
ATOM     24  F   UNL     1       6.511   4.764  20.018  0.00  0.00    +0.000 F 
ATOM     25  C   UNL     1       7.856   6.425  19.094  0.00  0.00    +0.000 A 
ATOM     26  C   UNL     1       8.178   7.273  18.046  0.00  0.00    +0.000 A 
ATOM     27  C   UNL     1       7.349   7.318  16.929  0.00  0.00    +0.000 A 
ATOM     28  C   UNL     1       6.168   6.554  16.874  0.00  0.00    +0.000 A 
ATOM     29 CL   UNL     1       5.209   6.768  15.447  0.00  0.00    +0.000 Cl
ENDBRANCH  20  22
ENDBRANCH   1  21
TORSDOF 3
ENDMDL
MODEL 9
REMARK VINA RESULT:      -9.2      1.925      3.964
REMARK  Name = 
REMARK  4 active torsions:
REMARK  status: ('A' for Active; 'I' for Inactive)
REMARK    1  A    between atoms: C_1  and  C_2
REMARK    2  A    between atoms: C_5  and  C_6
REMARK    3  A    between atoms: C_14  and  C_15
REMARK    4  A    between atoms: C_18  and  C_19
REMARK                            x       y       z     vdW  Elec       q    Type
REMARK                         _______ _______ _______ _____ _____    ______ ____
ROOT
ATOM      1  C   UNL     1       3.852   6.679  18.141  0.00  0.00    +0.000 A 
ATOM      2  N   UNL     1       4.097   7.401  17.063  0.00  0.00    +0.000 NA
ATOM      3  N   UNL     1       3.091   8.336  16.970  0.00  0.00    +0.000 NA
ATOM      4  C   UNL     1       2.328   8.171  18.029  0.00  0.00    +0.000 A 
ATOM      5  O   UNL     1       2.733   7.116  18.805  0.00  0.00    +0.000 OA
ENDROOT
BRANCH   4   6
ATOM      6  C   UNL     1       1.227   8.981  18.547  0.00  0.00    +0.000 A 
ATOM      7  C   UNL     1       0.349   9.566  17.612  0.00  0.00    +0.000 A 
ATOM      8  C   UNL     1      -0.775  10.270  18.026  0.00  0.00    +0.000 A 
ATOM      9  C   UNL     1      -1.034  10.412  19.384  0.00  0.00    +0.000 A 
ATOM     10  C   UNL     1      -0.174   9.865  20.345  0.00  0.00    +0.000 A 
ATOM     11  C   UNL     1      -0.462  10.029  21.708  0.00  0.00    +0.000 A 
ATOM     12  C   UNL     1       0.372   9.498  22.693  0.00  0.00    +0.000 A 
ATOM     13  C   UNL     1       1.515   8.805  22.324  0.00  0.00    +0.000 A 
ATOM     14  C   UNL     1       1.814   8.628  20.971  0.00  0.00    +0.000 A 
ATOM     15  C   UNL     1       0.983   9.140  19.942  0.00  0.00    +0.000 A 
ENDBRANCH   4   6
BRANCH   1  21
ATOM     16  C   UNL     1       7.077   6.631  18.313  0.00  0.00    +0.000 C 
ATOM     17  C   UNL     1       6.070   5.595  18.616  0.00  0.00    +0.000 A 
ATOM     18  O   UNL     1       6.530   4.414  19.097  0.00  0.00    +0.000 OA
ATOM     19  N   UNL     1       5.468   3.577  19.362  0.00  0.00    +0.000 NA
ATOM     20  C   UNL     1       4.344   4.258  19.075  0.00  0.00    +0.000 A 
ATOM     21  C   UNL     1       4.699   5.551  18.587  0.00  0.00    +0.000 A 
BRANCH  20  22
ATOM     22  C   UNL     1       3.021   3.628  19.199  0.00  0.00    +0.000 A 
ATOM     23  C   UNL     1       2.650   2.616  18.299  0.00  0.00    +0.000 A 
ATOM     24  F   UNL     1       3.524   2.150  17.394  0.00  0.00    +0.000 F 
ATOM     25  C   UNL     1       1.386   2.026  18.306  0.00  0.00    +0.000 A 
ATOM     26  C   UNL     1       0.465   2.388  19.277  0.00  0.00    +0.000 A 
ATOM     27  C   UNL     1       0.821   3.338  20.231  0.00  0.00    +0.000 A 
ATOM     28  C   UNL     1       2.079   3.967  20.190  0.00  0.00    +0.000 A 
ATOM     29 CL   UNL     1       2.348   5.173  21.404  0.00  0.00    +0.000 Cl
ENDBRANCH  20  22
ENDBRANCH   1  21
TORSDOF 3
ENDMDL
