MODEL 1
REMARK VINA RESULT:      -7.6      0.000      0.000
REMARK  Name = 
REMARK  5 active torsions:
REMARK  status: ('A' for Active; 'I' for Inactive)
REMARK    1  A    between atoms: C_1  and  C_2
REMARK    2  A    between atoms: C_5  and  C_6
REMARK    3  A    between atoms: C_12  and  C_13
REMARK    4  A    between atoms: C_17  and  C_18
REMARK    5  A    between atoms: N_20  and  C_21
REMARK                            x       y       z     vdW  Elec       q    Type
REMARK                         _______ _______ _______ _____ _____    ______ ____
ROOT
ATOM      1  C   UNL     1       2.198   9.746  17.847  0.00  0.00    +0.000 C 
ATOM      2  C   UNL     1       2.123   8.529  18.742  0.00  0.00    +0.000 A 
ATOM      3  N   UNL     1       2.907   7.531  18.432  0.00  0.00    +0.000 NA
ATOM      4  C   UNL     1       2.838   6.406  19.210  0.00  0.00    +0.000 A 
ATOM      5  C   UNL     1       3.513   5.194  19.180  0.00  0.00    +0.000 A 
ATOM      6  C   UNL     1       2.955   4.452  20.264  0.00  0.00    +0.000 A 
ATOM      7  C   UNL     1       3.242   3.071  20.733  0.00  0.00    +0.000 C 
ATOM      8  N   UNL     1       2.015   5.145  20.917  0.00  0.00    +0.000 NA
ATOM      9  N   UNL     1       1.944   6.325  20.274  0.00  0.00    +0.000 N 
ATOM     10  C   UNL     1       1.108   7.381  20.592  0.00  0.00    +0.000 A 
ATOM     11  C   UNL     1       1.159   8.536  19.908  0.00  0.00    +0.000 A 
ENDROOT
BRANCH   5  12
ATOM     12  C   UNL     1       4.525   4.827  18.192  0.00  0.00    +0.000 A 
ATOM     13  C   UNL     1       4.148   4.370  16.921  0.00  0.00    +0.000 A 
ATOM     14  C   UNL     1       5.104   4.133  15.930  0.00  0.00    +0.000 A 
ATOM     15  C   UNL     1       6.457   4.302  16.211  0.00  0.00    +0.000 A 
ATOM     16  C   UNL     1       6.853   4.697  17.485  0.00  0.00    +0.000 A 
ATOM     17  C   UNL     1       5.893   4.965  18.466  0.00  0.00    +0.000 A 
ENDBRANCH   5  12
BRANCH  11  18
ATOM     18  C   UNL     1       0.240   9.665  20.229  0.00  0.00    +0.000 C 
ATOM     19  O   UNL     1      -0.698   9.909  19.478  0.00  0.00    +0.000 OA
ATOM     20  N   UNL     1       0.577  10.379  21.366  0.00  0.00    +0.000 N 
ATOM     21  H   UNL     1       1.463  10.181  21.810  0.00  0.00    +0.000 HD
BRANCH  20  22
ATOM     22  C   UNL     1      -0.162  11.436  21.947  0.00  0.00    +0.000 A 
ATOM     23  C   UNL     1       0.098  12.786  21.701  0.00  0.00    +0.000 A 
ATOM     24  C   UNL     1      -0.663  13.782  22.319  0.00  0.00    +0.000 A 
ATOM     25  C   UNL     1      -1.694  13.440  23.188  0.00  0.00    +0.000 A 
ATOM     26  C   UNL     1      -1.976  12.098  23.428  0.00  0.00    +0.000 A 
ATOM     27  C   UNL     1      -1.219  11.100  22.804  0.00  0.00    +0.000 A 
ENDBRANCH  20  22
ENDBRANCH  11  18
TORSDOF 3
ENDMDL
MODEL 2
REMARK VINA RESULT:      -7.5      0.200      1.347
REMARK  Name = 
REMARK  5 active torsions:
REMARK  status: ('A' for Active; 'I' for Inactive)
REMARK    1  A    between atoms: C_1  and  C_2
REMARK    2  A    between atoms: C_5  and  C_6
REMARK    3  A    between atoms: C_12  and  C_13
REMARK    4  A    between atoms: C_17  and  C_18
REMARK    5  A    between atoms: N_20  and  C_21
REMARK                            x       y       z     vdW  Elec       q    Type
REMARK                         _______ _______ _______ _____ _____    ______ ____
ROOT
ATOM      1  C   UNL     1       2.157   9.872  17.834  0.00  0.00    +0.000 C 
ATOM      2  C   UNL     1       2.133   8.623  18.688  0.00  0.00    +0.000 A 
ATOM      3  N   UNL     1       2.949   7.665  18.337  0.00  0.00    +0.000 NA
ATOM      4  C   UNL     1       2.926   6.513  19.077  0.00  0.00    +0.000 A 
ATOM      5  C   UNL     1       3.643   5.326  18.999  0.00  0.00    +0.000 A 
ATOM      6  C   UNL     1       3.121   4.528  20.062  0.00  0.00    +0.000 A 
ATOM      7  C   UNL     1       3.461   3.144  20.480  0.00  0.00    +0.000 C 
ATOM      8  N   UNL     1       2.164   5.165  20.746  0.00  0.00    +0.000 NA
ATOM      9  N   UNL     1       2.045   6.363  20.144  0.00  0.00    +0.000 N 
ATOM     10  C   UNL     1       1.176   7.378  20.505  0.00  0.00    +0.000 A 
ATOM     11  C   UNL     1       1.181   8.557  19.861  0.00  0.00    +0.000 A 
ENDROOT
BRANCH   5  12
ATOM     12  C   UNL     1       4.658   5.029  17.991  0.00  0.00    +0.000 A 
ATOM     13  C   UNL     1       6.013   5.288  18.246  0.00  0.00    +0.000 A 
ATOM     14  C   UNL     1       7.003   4.896  17.341  0.00  0.00    +0.000 A 
ATOM     15  C   UNL     1       6.647   4.283  16.142  0.00  0.00    +0.000 A 
ATOM     16  C   UNL     1       5.304   4.072  15.845  0.00  0.00    +0.000 A 
ATOM     17  C   UNL     1       4.317   4.436  16.767  0.00  0.00    +0.000 A 
ENDBRANCH   5  12
BRANCH  11  18
ATOM     18  C   UNL     1       0.225   9.640  20.228  0.00  0.00    +0.000 C 
ATOM     19  O   UNL     1      -0.765   9.831  19.530  0.00  0.00    +0.000 OA
ATOM     20  N   UNL     1       0.590  10.380  21.340  0.00  0.00    +0.000 N 
ATOM     21  H   UNL     1       1.509  10.231  21.734  0.00  0.00    +0.000 HD
BRANCH  20  22
ATOM     22  C   UNL     1      -0.167  11.404  21.957  0.00  0.00    +0.000 A 
ATOM     23  C   UNL     1      -1.207  11.160  22.855  0.00  0.00    +0.000 A 
ATOM     24  C   UNL     1      -1.925  12.220  23.419  0.00  0.00    +0.000 A 
ATOM     25  C   UNL     1      -1.607  13.534  23.093  0.00  0.00    +0.000 A 
ATOM     26  C   UNL     1      -0.558  13.791  22.213  0.00  0.00    +0.000 A 
ATOM     27  C   UNL     1       0.164  12.732  21.654  0.00  0.00    +0.000 A 
ENDBRANCH  20  22
ENDBRANCH  11  18
TORSDOF 3
ENDMDL
MODEL 3
REMARK VINA RESULT:      -7.4      1.052      1.156
REMARK  Name = 
REMARK  5 active torsions:
REMARK  status: ('A' for Active; 'I' for Inactive)
REMARK    1  A    between atoms: C_1  and  C_2
REMARK    2  A    between atoms: C_5  and  C_6
REMARK    3  A    between atoms: C_12  and  C_13
REMARK    4  A    between atoms: C_17  and  C_18
REMARK    5  A    between atoms: N_20  and  C_21
REMARK                            x       y       z     vdW  Elec       q    Type
REMARK                         _______ _______ _______ _____ _____    ______ ____
ROOT
ATOM      1  C   UNL     1       2.148   9.042  18.255  0.00  0.00    +0.000 C 
ATOM      2  C   UNL     1       2.344   7.719  18.961  0.00  0.00    +0.000 A 
ATOM      3  N   UNL     1       3.187   6.887  18.411  0.00  0.00    +0.000 NA
ATOM      4  C   UNL     1       3.361   5.671  19.016  0.00  0.00    +0.000 A 
ATOM      5  C   UNL     1       4.162   4.576  18.722  0.00  0.00    +0.000 A 
ATOM      6  C   UNL     1       3.854   3.629  19.745  0.00  0.00    +0.000 A 
ATOM      7  C   UNL     1       4.364   2.250  19.964  0.00  0.00    +0.000 C 
ATOM      8  N   UNL     1       2.942   4.095  20.606  0.00  0.00    +0.000 NA
ATOM      9  N   UNL     1       2.643   5.330  20.158  0.00  0.00    +0.000 N 
ATOM     10  C   UNL     1       1.743   6.211  20.731  0.00  0.00    +0.000 A 
ATOM     11  C   UNL     1       1.562   7.442  20.226  0.00  0.00    +0.000 A 
ENDROOT
BRANCH   5  12
ATOM     12  C   UNL     1       5.059   4.483  17.573  0.00  0.00    +0.000 A 
ATOM     13  C   UNL     1       4.549   4.254  16.287  0.00  0.00    +0.000 A 
ATOM     14  C   UNL     1       5.384   4.284  15.166  0.00  0.00    +0.000 A 
ATOM     15  C   UNL     1       6.751   4.495  15.321  0.00  0.00    +0.000 A 
ATOM     16  C   UNL     1       7.284   4.665  16.595  0.00  0.00    +0.000 A 
ATOM     17  C   UNL     1       6.443   4.667  17.712  0.00  0.00    +0.000 A 
ENDBRANCH   5  12
BRANCH  11  18
ATOM     18  C   UNL     1       0.572   8.383  20.823  0.00  0.00    +0.000 C 
ATOM     19  O   UNL     1      -0.530   7.962  21.160  0.00  0.00    +0.000 OA
ATOM     20  N   UNL     1       0.997   9.698  20.900  0.00  0.00    +0.000 N 
ATOM     21  H   UNL     1       1.862   9.949  20.441  0.00  0.00    +0.000 HD
BRANCH  20  22
ATOM     22  C   UNL     1       0.300  10.776  21.495  0.00  0.00    +0.000 A 
ATOM     23  C   UNL     1       0.422  12.101  21.072  0.00  0.00    +0.000 A 
ATOM     24  C   UNL     1      -0.286  13.122  21.713  0.00  0.00    +0.000 A 
ATOM     25  C   UNL     1      -1.126  12.828  22.783  0.00  0.00    +0.000 A 
ATOM     26  C   UNL     1      -1.271  11.508  23.202  0.00  0.00    +0.000 A 
ATOM     27  C   UNL     1      -0.568  10.486  22.556  0.00  0.00    +0.000 A 
ENDBRANCH  20  22
ENDBRANCH  11  18
TORSDOF 3
ENDMDL
MODEL 4
REMARK VINA RESULT:      -7.3      1.453      1.699
REMARK  Name = 
REMARK  5 active torsions:
REMARK  status: ('A' for Active; 'I' for Inactive)
REMARK    1  A    between atoms: C_1  and  C_2
REMARK    2  A    between atoms: C_5  and  C_6
REMARK    3  A    between atoms: C_12  and  C_13
REMARK    4  A    between atoms: C_17  and  C_18
REMARK    5  A    between atoms: N_20  and  C_21
REMARK                            x       y       z     vdW  Elec       q    Type
REMARK                         _______ _______ _______ _____ _____    ______ ____
ROOT
ATOM      1  C   UNL     1       2.294   9.211  17.878  0.00  0.00    +0.000 C 
ATOM      2  C   UNL     1       2.456   7.917  18.646  0.00  0.00    +0.000 A 
ATOM      3  N   UNL     1       3.280   7.041  18.137  0.00  0.00    +0.000 NA
ATOM      4  C   UNL     1       3.424   5.850  18.798  0.00  0.00    +0.000 A 
ATOM      5  C   UNL     1       4.198   4.723  18.558  0.00  0.00    +0.000 A 
ATOM      6  C   UNL     1       3.865   3.832  19.622  0.00  0.00    +0.000 A 
ATOM      7  C   UNL     1       4.341   2.453  19.906  0.00  0.00    +0.000 C 
ATOM      8  N   UNL     1       2.963   4.360  20.457  0.00  0.00    +0.000 NA
ATOM      9  N   UNL     1       2.695   5.579  19.953  0.00  0.00    +0.000 N 
ATOM     10  C   UNL     1       1.816   6.508  20.482  0.00  0.00    +0.000 A 
ATOM     11  C   UNL     1       1.665   7.718  19.919  0.00  0.00    +0.000 A 
ENDROOT
BRANCH   5  12
ATOM     12  C   UNL     1       5.095   4.555  17.416  0.00  0.00    +0.000 A 
ATOM     13  C   UNL     1       4.581   4.303  16.136  0.00  0.00    +0.000 A 
ATOM     14  C   UNL     1       5.420   4.262  15.019  0.00  0.00    +0.000 A 
ATOM     15  C   UNL     1       6.794   4.424  15.174  0.00  0.00    +0.000 A 
ATOM     16  C   UNL     1       7.329   4.616  16.444  0.00  0.00    +0.000 A 
ATOM     17  C   UNL     1       6.484   4.689  17.556  0.00  0.00    +0.000 A 
ENDBRANCH   5  12
BRANCH  11  18
ATOM     18  C   UNL     1       0.697   8.709  20.470  0.00  0.00    +0.000 C 
ATOM     19  O   UNL     1       0.178   8.500  21.560  0.00  0.00    +0.000 OA
ATOM     20  N   UNL     1       0.439   9.787  19.641  0.00  0.00    +0.000 N 
ATOM     21  H   UNL     1       0.805   9.765  18.698  0.00  0.00    +0.000 HD
BRANCH  20  22
ATOM     22  C   UNL     1      -0.367  10.910  19.944  0.00  0.00    +0.000 A 
ATOM     23  C   UNL     1      -0.051  11.841  20.934  0.00  0.00    +0.000 A 
ATOM     24  C   UNL     1      -0.899  12.922  21.192  0.00  0.00    +0.000 A 
ATOM     25  C   UNL     1      -2.070  13.086  20.459  0.00  0.00    +0.000 A 
ATOM     26  C   UNL     1      -2.387  12.175  19.455  0.00  0.00    +0.000 A 
ATOM     27  C   UNL     1      -1.535  11.096  19.192  0.00  0.00    +0.000 A 
ENDBRANCH  20  22
ENDBRANCH  11  18
TORSDOF 3
ENDMDL
MODEL 5
REMARK VINA RESULT:      -7.2      2.619      4.405
REMARK  Name = 
REMARK  5 active torsions:
REMARK  status: ('A' for Active; 'I' for Inactive)
REMARK    1  A    between atoms: C_1  and  C_2
REMARK    2  A    between atoms: C_5  and  C_6
REMARK    3  A    between atoms: C_12  and  C_13
REMARK    4  A    between atoms: C_17  and  C_18
REMARK    5  A    between atoms: N_20  and  C_21
REMARK                            x       y       z     vdW  Elec       q    Type
REMARK                         _______ _______ _______ _____ _____    ______ ____
ROOT
ATOM      1  C   UNL     1      -0.117   9.884  20.884  0.00  0.00    +0.000 C 
ATOM      2  C   UNL     1       0.851   9.314  19.872  0.00  0.00    +0.000 A 
ATOM      3  N   UNL     1       1.094   8.033  19.960  0.00  0.00    +0.000 NA
ATOM      4  C   UNL     1       1.989   7.497  19.072  0.00  0.00    +0.000 A 
ATOM      5  C   UNL     1       2.466   6.209  18.873  0.00  0.00    +0.000 A 
ATOM      6  C   UNL     1       3.390   6.337  17.792  0.00  0.00    +0.000 A 
ATOM      7  C   UNL     1       4.246   5.317  17.133  0.00  0.00    +0.000 C 
ATOM      8  N   UNL     1       3.477   7.597  17.351  0.00  0.00    +0.000 NA
ATOM      9  N   UNL     1       2.632   8.297  18.131  0.00  0.00    +0.000 N 
ATOM     10  C   UNL     1       2.377   9.654  18.049  0.00  0.00    +0.000 A 
ATOM     11  C   UNL     1       1.471  10.240  18.850  0.00  0.00    +0.000 A 
ENDROOT
BRANCH   5  12
ATOM     12  C   UNL     1       2.086   5.046  19.672  0.00  0.00    +0.000 A 
ATOM     13  C   UNL     1       1.291   4.031  19.120  0.00  0.00    +0.000 A 
ATOM     14  C   UNL     1       1.023   2.859  19.833  0.00  0.00    +0.000 A 
ATOM     15  C   UNL     1       1.506   2.707  21.129  0.00  0.00    +0.000 A 
ATOM     16  C   UNL     1       2.247   3.729  21.716  0.00  0.00    +0.000 A 
ATOM     17  C   UNL     1       2.541   4.887  20.989  0.00  0.00    +0.000 A 
ENDBRANCH   5  12
BRANCH  11  18
ATOM     18  C   UNL     1       1.217  11.707  18.783  0.00  0.00    +0.000 C 
ATOM     19  O   UNL     1       0.099  12.110  18.483  0.00  0.00    +0.000 OA
ATOM     20  N   UNL     1       2.325  12.498  19.033  0.00  0.00    +0.000 N 
ATOM     21  H   UNL     1       3.227  12.047  19.110  0.00  0.00    +0.000 HD
BRANCH  20  22
ATOM     22  C   UNL     1       2.352  13.910  19.119  0.00  0.00    +0.000 A 
ATOM     23  C   UNL     1       1.877  14.625  20.220  0.00  0.00    +0.000 A 
ATOM     24  C   UNL     1       1.921  16.022  20.234  0.00  0.00    +0.000 A 
ATOM     25  C   UNL     1       2.443  16.719  19.150  0.00  0.00    +0.000 A 
ATOM     26  C   UNL     1       2.938  16.017  18.054  0.00  0.00    +0.000 A 
ATOM     27  C   UNL     1       2.901  14.618  18.042  0.00  0.00    +0.000 A 
ENDBRANCH  20  22
ENDBRANCH  11  18
TORSDOF 3
ENDMDL
MODEL 6
REMARK VINA RESULT:      -7.1      1.220      1.534
REMARK  Name = 
REMARK  5 active torsions:
REMARK  status: ('A' for Active; 'I' for Inactive)
REMARK    1  A    between atoms: C_1  and  C_2
REMARK    2  A    between atoms: C_5  and  C_6
REMARK    3  A    between atoms: C_12  and  C_13
REMARK    4  A    between atoms: C_17  and  C_18
REMARK    5  A    between atoms: N_20  and  C_21
REMARK                            x       y       z     vdW  Elec       q    Type
REMARK                         _______ _______ _______ _____ _____    ______ ____
ROOT
ATOM      1  C   UNL     1       1.847   9.467  18.207  0.00  0.00    +0.000 C 
ATOM      2  C   UNL     1       2.114   8.144  18.889  0.00  0.00    +0.000 A 
ATOM      3  N   UNL     1       2.987   7.360  18.314  0.00  0.00    +0.000 NA
ATOM      4  C   UNL     1       3.227   6.144  18.897  0.00  0.00    +0.000 A 
ATOM      5  C   UNL     1       4.073   5.093  18.574  0.00  0.00    +0.000 A 
ATOM      6  C   UNL     1       3.826   4.117  19.587  0.00  0.00    +0.000 A 
ATOM      7  C   UNL     1       4.403   2.761  19.776  0.00  0.00    +0.000 C 
ATOM      8  N   UNL     1       2.907   4.527  20.468  0.00  0.00    +0.000 NA
ATOM      9  N   UNL     1       2.543   5.753  20.044  0.00  0.00    +0.000 N 
ATOM     10  C   UNL     1       1.613   6.583  20.644  0.00  0.00    +0.000 A 
ATOM     11  C   UNL     1       1.366   7.812  20.161  0.00  0.00    +0.000 A 
ENDROOT
BRANCH   5  12
ATOM     12  C   UNL     1       4.956   5.059  17.410  0.00  0.00    +0.000 A 
ATOM     13  C   UNL     1       6.126   5.831  17.381  0.00  0.00    +0.000 A 
ATOM     14  C   UNL     1       7.038   5.715  16.328  0.00  0.00    +0.000 A 
ATOM     15  C   UNL     1       6.768   4.859  15.264  0.00  0.00    +0.000 A 
ATOM     16  C   UNL     1       5.584   4.129  15.247  0.00  0.00    +0.000 A 
ATOM     17  C   UNL     1       4.688   4.223  16.317  0.00  0.00    +0.000 A 
ENDBRANCH   5  12
BRANCH  11  18
ATOM     18  C   UNL     1       0.342   8.696  20.788  0.00  0.00    +0.000 C 
ATOM     19  O   UNL     1      -0.497   8.207  21.536  0.00  0.00    +0.000 OA
ATOM     20  N   UNL     1       0.418  10.026  20.411  0.00  0.00    +0.000 N 
ATOM     21  H   UNL     1       1.052  10.276  19.663  0.00  0.00    +0.000 HD
BRANCH  20  22
ATOM     22  C   UNL     1      -0.367  11.090  20.912  0.00  0.00    +0.000 A 
ATOM     23  C   UNL     1      -1.133  11.931  20.104  0.00  0.00    +0.000 A 
ATOM     24  C   UNL     1      -1.876  12.975  20.664  0.00  0.00    +0.000 A 
ATOM     25  C   UNL     1      -1.864  13.186  22.039  0.00  0.00    +0.000 A 
ATOM     26  C   UNL     1      -1.119  12.342  22.858  0.00  0.00    +0.000 A 
ATOM     27  C   UNL     1      -0.381  11.293  22.299  0.00  0.00    +0.000 A 
ENDBRANCH  20  22
ENDBRANCH  11  18
TORSDOF 3
ENDMDL
MODEL 7
REMARK VINA RESULT:      -7.1      2.108      9.014
REMARK  Name = 
REMARK  5 active torsions:
REMARK  status: ('A' for Active; 'I' for Inactive)
REMARK    1  A    between atoms: C_1  and  C_2
REMARK    2  A    between atoms: C_5  and  C_6
REMARK    3  A    between atoms: C_12  and  C_13
REMARK    4  A    between atoms: C_17  and  C_18
REMARK    5  A    between atoms: N_20  and  C_21
REMARK                            x       y       z     vdW  Elec       q    Type
REMARK                         _______ _______ _______ _____ _____    ______ ____
ROOT
ATOM      1  C   UNL     1       1.593   6.419  20.643  0.00  0.00    +0.000 C 
ATOM      2  C   UNL     1       1.622   7.720  19.871  0.00  0.00    +0.000 A 
ATOM      3  N   UNL     1       0.922   8.705  20.369  0.00  0.00    +0.000 NA
ATOM      4  C   UNL     1       0.909   9.885  19.675  0.00  0.00    +0.000 A 
ATOM      5  C   UNL     1       0.299  11.110  19.906  0.00  0.00    +0.000 A 
ATOM      6  C   UNL     1       0.678  11.911  18.786  0.00  0.00    +0.000 A 
ATOM      7  C   UNL     1       0.321  13.311  18.441  0.00  0.00    +0.000 C 
ATOM      8  N   UNL     1       1.461  11.242  17.932  0.00  0.00    +0.000 NA
ATOM      9  N   UNL     1       1.594  10.015  18.470  0.00  0.00    +0.000 N 
ATOM     10  C   UNL     1       2.326   8.966  17.943  0.00  0.00    +0.000 A 
ATOM     11  C   UNL     1       2.430   7.797  18.596  0.00  0.00    +0.000 A 
ENDROOT
BRANCH   5  12
ATOM     12  C   UNL     1      -0.561  11.412  21.048  0.00  0.00    +0.000 A 
ATOM     13  C   UNL     1      -1.610  12.334  20.927  0.00  0.00    +0.000 A 
ATOM     14  C   UNL     1      -2.512  12.539  21.974  0.00  0.00    +0.000 A 
ATOM     15  C   UNL     1      -2.349  11.860  23.178  0.00  0.00    +0.000 A 
ATOM     16  C   UNL     1      -1.278  10.984  23.338  0.00  0.00    +0.000 A 
ATOM     17  C   UNL     1      -0.396  10.756  22.277  0.00  0.00    +0.000 A 
ENDBRANCH   5  12
BRANCH  11  18
ATOM     18  C   UNL     1       3.193   6.655  18.016  0.00  0.00    +0.000 C 
ATOM     19  O   UNL     1       2.663   5.551  17.947  0.00  0.00    +0.000 OA
ATOM     20  N   UNL     1       4.490   6.958  17.639  0.00  0.00    +0.000 N 
ATOM     21  H   UNL     1       4.864   7.862  17.895  0.00  0.00    +0.000 HD
BRANCH  20  22
ATOM     22  C   UNL     1       5.403   6.095  16.988  0.00  0.00    +0.000 A 
ATOM     23  C   UNL     1       6.414   5.398  17.652  0.00  0.00    +0.000 A 
ATOM     24  C   UNL     1       7.291   4.571  16.945  0.00  0.00    +0.000 A 
ATOM     25  C   UNL     1       7.165   4.428  15.567  0.00  0.00    +0.000 A 
ATOM     26  C   UNL     1       6.148   5.103  14.895  0.00  0.00    +0.000 A 
ATOM     27  C   UNL     1       5.266   5.925  15.604  0.00  0.00    +0.000 A 
ENDBRANCH  20  22
ENDBRANCH  11  18
TORSDOF 3
ENDMDL
MODEL 8
REMARK VINA RESULT:      -7.0      1.317      1.561
REMARK  Name = 
REMARK  5 active torsions:
REMARK  status: ('A' for Active; 'I' for Inactive)
REMARK    1  A    between atoms: C_1  and  C_2
REMARK    2  A    between atoms: C_5  and  C_6
REMARK    3  A    between atoms: C_12  and  C_13
REMARK    4  A    between atoms: C_17  and  C_18
REMARK    5  A    between atoms: N_20  and  C_21
REMARK                            x       y       z     vdW  Elec       q    Type
REMARK                         _______ _______ _______ _____ _____    ______ ____
ROOT
ATOM      1  C   UNL     1       2.206   9.356  17.864  0.00  0.00    +0.000 C 
ATOM      2  C   UNL     1       2.394   8.064  18.628  0.00  0.00    +0.000 A 
ATOM      3  N   UNL     1       3.221   7.197  18.107  0.00  0.00    +0.000 NA
ATOM      4  C   UNL     1       3.387   6.007  18.765  0.00  0.00    +0.000 A 
ATOM      5  C   UNL     1       4.171   4.890  18.512  0.00  0.00    +0.000 A 
ATOM      6  C   UNL     1       3.864   3.994  19.581  0.00  0.00    +0.000 A 
ATOM      7  C   UNL     1       4.360   2.621  19.856  0.00  0.00    +0.000 C 
ATOM      8  N   UNL     1       2.968   4.511  20.429  0.00  0.00    +0.000 NA
ATOM      9  N   UNL     1       2.678   5.727  19.929  0.00  0.00    +0.000 N 
ATOM     10  C   UNL     1       1.796   6.645  20.471  0.00  0.00    +0.000 A 
ATOM     11  C   UNL     1       1.623   7.854  19.912  0.00  0.00    +0.000 A 
ENDROOT
BRANCH   5  12
ATOM     12  C   UNL     1       5.054   4.734  17.359  0.00  0.00    +0.000 A 
ATOM     13  C   UNL     1       4.552   4.270  16.134  0.00  0.00    +0.000 A 
ATOM     14  C   UNL     1       5.359   4.232  14.994  0.00  0.00    +0.000 A 
ATOM     15  C   UNL     1       6.696   4.612  15.074  0.00  0.00    +0.000 A 
ATOM     16  C   UNL     1       7.228   5.019  16.294  0.00  0.00    +0.000 A 
ATOM     17  C   UNL     1       6.410   5.086  17.426  0.00  0.00    +0.000 A 
ENDBRANCH   5  12
BRANCH  11  18
ATOM     18  C   UNL     1       0.651   8.834  20.477  0.00  0.00    +0.000 C 
ATOM     19  O   UNL     1      -0.116   8.475  21.364  0.00  0.00    +0.000 OA
ATOM     20  N   UNL     1       0.685  10.086  19.889  0.00  0.00    +0.000 N 
ATOM     21  H   UNL     1       1.249  10.211  19.060  0.00  0.00    +0.000 HD
BRANCH  20  22
ATOM     22  C   UNL     1      -0.062  11.222  20.282  0.00  0.00    +0.000 A 
ATOM     23  C   UNL     1      -1.352  11.494  19.823  0.00  0.00    +0.000 A 
ATOM     24  C   UNL     1      -2.029  12.643  20.241  0.00  0.00    +0.000 A 
ATOM     25  C   UNL     1      -1.425  13.531  21.125  0.00  0.00    +0.000 A 
ATOM     26  C   UNL     1      -0.146  13.262  21.605  0.00  0.00    +0.000 A 
ATOM     27  C   UNL     1       0.529  12.108  21.193  0.00  0.00    +0.000 A 
ENDBRANCH  20  22
ENDBRANCH  11  18
TORSDOF 3
ENDMDL
MODEL 9
REMARK VINA RESULT:      -7.0      2.201      4.095
REMARK  Name = 
REMARK  5 active torsions:
REMARK  status: ('A' for Active; 'I' for Inactive)
REMARK    1  A    between atoms: C_1  and  C_2
REMARK    2  A    between atoms: C_5  and  C_6
REMARK    3  A    between atoms: C_12  and  C_13
REMARK    4  A    between atoms: C_17  and  C_18
REMARK    5  A    between atoms: N_20  and  C_21
REMARK                            x       y       z     vdW  Elec       q    Type
REMARK                         _______ _______ _______ _____ _____    ______ ____
ROOT
ATOM      1  C   UNL     1      -0.244   9.673  21.087  0.00  0.00    +0.000 C 
ATOM      2  C   UNL     1       0.746   9.212  20.040  0.00  0.00    +0.000 A 
ATOM      3  N   UNL     1       1.048   7.941  20.046  0.00  0.00    +0.000 NA
ATOM      4  C   UNL     1       1.964   7.504  19.126  0.00  0.00    +0.000 A 
ATOM      5  C   UNL     1       2.498   6.255  18.846  0.00  0.00    +0.000 A 
ATOM      6  C   UNL     1       3.413   6.493  17.776  0.00  0.00    +0.000 A 
ATOM      7  C   UNL     1       4.313   5.557  17.054  0.00  0.00    +0.000 C 
ATOM      8  N   UNL     1       3.442   7.781  17.417  0.00  0.00    +0.000 NA
ATOM      9  N   UNL     1       2.567   8.391  18.239  0.00  0.00    +0.000 N 
ATOM     10  C   UNL     1       2.252   9.738  18.244  0.00  0.00    +0.000 A 
ATOM     11  C   UNL     1       1.321  10.229  19.080  0.00  0.00    +0.000 A 
ENDROOT
BRANCH   5  12
ATOM     12  C   UNL     1       2.173   5.027  19.569  0.00  0.00    +0.000 A 
ATOM     13  C   UNL     1       2.593   4.847  20.894  0.00  0.00    +0.000 A 
ATOM     14  C   UNL     1       2.185   3.733  21.633  0.00  0.00    +0.000 A 
ATOM     15  C   UNL     1       1.390   2.757  21.040  0.00  0.00    +0.000 A 
ATOM     16  C   UNL     1       1.012   2.888  19.707  0.00  0.00    +0.000 A 
ATOM     17  C   UNL     1       1.395   4.020  18.979  0.00  0.00    +0.000 A 
ENDBRANCH   5  12
BRANCH  11  18
ATOM     18  C   UNL     1       1.001  11.685  19.107  0.00  0.00    +0.000 C 
ATOM     19  O   UNL     1      -0.011  12.088  18.544  0.00  0.00    +0.000 OA
ATOM     20  N   UNL     1       1.939  12.472  19.753  0.00  0.00    +0.000 N 
ATOM     21  H   UNL     1       2.811  12.043  20.035  0.00  0.00    +0.000 HD
BRANCH  20  22
ATOM     22  C   UNL     1       1.848  13.861  20.000  0.00  0.00    +0.000 A 
ATOM     23  C   UNL     1       2.196  14.836  19.063  0.00  0.00    +0.000 A 
ATOM     24  C   UNL     1       2.094  16.195  19.377  0.00  0.00    +0.000 A 
ATOM     25  C   UNL     1       1.640  16.593  20.630  0.00  0.00    +0.000 A 
ATOM     26  C   UNL     1       1.272  15.631  21.567  0.00  0.00    +0.000 A 
ATOM     27  C   UNL     1       1.367  14.271  21.251  0.00  0.00    +0.000 A 
ENDBRANCH  20  22
ENDBRANCH  11  18
TORSDOF 3
ENDMDL
