MODEL 1
REMARK VINA RESULT:      -8.6      0.000      0.000
REMARK  Name = 
REMARK  4 active torsions:
REMARK  status: ('A' for Active; 'I' for Inactive)
REMARK    1  A    between atoms: C_1  and  C_2
REMARK    2  A    between atoms: C_5  and  N_6
REMARK    3  A    between atoms: N_6  and  C_7
REMARK    4  A    between atoms: C_14  and  C_15
REMARK                            x       y       z     vdW  Elec       q    Type
REMARK                         _______ _______ _______ _____ _____    ______ ____
ROOT
ATOM      1  C   UNL     1       6.298   4.875  18.362  0.00  0.00    +0.000 C 
ATOM      2  C   UNL     1       5.830   5.447  17.226  0.00  0.00    +0.000 C 
ATOM      3 CL   UNL     1       4.492   4.736  16.357  0.00  0.00    +0.000 Cl
ATOM      4  C   UNL     1       6.347   6.720  16.602  0.00  0.00    +0.000 C 
ATOM      5  O   UNL     1       6.036   7.096  15.477  0.00  0.00    +0.000 OA
ATOM      6  C   UNL     1       7.263   7.431  17.468  0.00  0.00    +0.000 A 
ATOM      7  N   UNL     1       7.784   8.687  17.268  0.00  0.00    +0.000 NA
ATOM      8  C   UNL     1       8.537   8.946  18.332  0.00  0.00    +0.000 A 
ATOM      9  N   UNL     1       8.542   7.861  19.183  0.00  0.00    +0.000 N 
ATOM     10  C   UNL     1       7.725   6.908  18.651  0.00  0.00    +0.000 A 
ATOM     11  C   UNL     1       7.355   5.625  19.164  0.00  0.00    +0.000 C 
ATOM     12  O   UNL     1       7.823   5.146  20.190  0.00  0.00    +0.000 OA
ATOM     13  H   UNL     1       9.036   7.821  20.071  0.00  0.00    +0.000 HD
ENDROOT
BRANCH   8  14
ATOM     14  C   UNL     1       9.252  10.188  18.618  0.00  0.00    +0.000 A 
ATOM     15  C   UNL     1       9.721  11.012  17.600  0.00  0.00    +0.000 A 
ATOM     16  C   UNL     1      10.376  12.191  17.952  0.00  0.00    +0.000 A 
ATOM     17  C   UNL     1      10.527  12.509  19.295  0.00  0.00    +0.000 A 
ATOM     18  C   UNL     1      10.025  11.631  20.242  0.00  0.00    +0.000 A 
ATOM     19  N   UNL     1       9.392  10.474  19.938  0.00  0.00    +0.000 NA
ENDBRANCH   8  14
BRANCH   1  20
ATOM     20  N   UNL     1       5.869   3.652  18.920  0.00  0.00    +0.000 N 
ATOM     21  H   UNL     1       6.161   2.867  18.324  0.00  0.00    +0.000 HD
BRANCH  20  26
ATOM     22  C   UNL     1       0.275   2.919  20.054  0.00  0.00    +0.000 C 
ATOM     23  C   UNL     1       1.747   3.102  19.831  0.00  0.00    +0.000 A 
ATOM     24  C   UNL     1       2.407   4.269  20.222  0.00  0.00    +0.000 A 
ATOM     25  C   UNL     1       3.764   4.437  19.945  0.00  0.00    +0.000 A 
ATOM     26  C   UNL     1       4.503   3.448  19.291  0.00  0.00    +0.000 A 
ATOM     27  C   UNL     1       3.836   2.268  18.911  0.00  0.00    +0.000 A 
ATOM     28  C   UNL     1       2.471   2.100  19.185  0.00  0.00    +0.000 A 
ENDBRANCH  20  26
ENDBRANCH   1  20
TORSDOF 3
ENDMDL
MODEL 2
REMARK VINA RESULT:      -8.2      0.796      1.426
REMARK  Name = 
REMARK  4 active torsions:
REMARK  status: ('A' for Active; 'I' for Inactive)
REMARK    1  A    between atoms: C_1  and  C_2
REMARK    2  A    between atoms: C_5  and  N_6
REMARK    3  A    between atoms: N_6  and  C_7
REMARK    4  A    between atoms: C_14  and  C_15
REMARK                            x       y       z     vdW  Elec       q    Type
REMARK                         _______ _______ _______ _____ _____    ______ ____
ROOT
ATOM      1  C   UNL     1       6.391   4.935  18.239  0.00  0.00    +0.000 C 
ATOM      2  C   UNL     1       5.828   5.581  17.189  0.00  0.00    +0.000 C 
ATOM      3 CL   UNL     1       4.441   4.906  16.368  0.00  0.00    +0.000 Cl
ATOM      4  C   UNL     1       6.273   6.910  16.630  0.00  0.00    +0.000 C 
ATOM      5  O   UNL     1       5.871   7.364  15.563  0.00  0.00    +0.000 OA
ATOM      6  C   UNL     1       7.239   7.574  17.478  0.00  0.00    +0.000 A 
ATOM      7  N   UNL     1       7.721   8.854  17.338  0.00  0.00    +0.000 NA
ATOM      8  C   UNL     1       8.547   9.049  18.360  0.00  0.00    +0.000 A 
ATOM      9  N   UNL     1       8.637   7.903  19.121  0.00  0.00    +0.000 N 
ATOM     10  C   UNL     1       7.799   6.973  18.579  0.00  0.00    +0.000 A 
ATOM     11  C   UNL     1       7.493   5.646  19.016  0.00  0.00    +0.000 C 
ATOM     12  O   UNL     1       8.046   5.102  19.963  0.00  0.00    +0.000 OA
ATOM     13  H   UNL     1       9.197   7.807  19.964  0.00  0.00    +0.000 HD
ENDROOT
BRANCH   8  14
ATOM     14  C   UNL     1       9.259  10.282  18.688  0.00  0.00    +0.000 A 
ATOM     15  C   UNL     1       9.466  10.679  20.005  0.00  0.00    +0.000 A 
ATOM     16  C   UNL     1      10.172  11.858  20.238  0.00  0.00    +0.000 A 
ATOM     17  C   UNL     1      10.653  12.586  19.158  0.00  0.00    +0.000 A 
ATOM     18  C   UNL     1      10.403  12.114  17.880  0.00  0.00    +0.000 A 
ATOM     19  N   UNL     1       9.714  10.979  17.615  0.00  0.00    +0.000 NA
ENDBRANCH   8  14
BRANCH   1  20
ATOM     20  N   UNL     1       6.028   3.664  18.730  0.00  0.00    +0.000 N 
ATOM     21  H   UNL     1       6.130   2.955  17.992  0.00  0.00    +0.000 HD
BRANCH  20  26
ATOM     22  C   UNL     1       1.147   2.908  21.684  0.00  0.00    +0.000 C 
ATOM     23  C   UNL     1       2.385   3.078  20.853  0.00  0.00    +0.000 A 
ATOM     24  C   UNL     1       3.152   1.982  20.449  0.00  0.00    +0.000 A 
ATOM     25  C   UNL     1       4.332   2.174  19.730  0.00  0.00    +0.000 A 
ATOM     26  C   UNL     1       4.772   3.453  19.381  0.00  0.00    +0.000 A 
ATOM     27  C   UNL     1       3.990   4.553  19.779  0.00  0.00    +0.000 A 
ATOM     28  C   UNL     1       2.806   4.362  20.505  0.00  0.00    +0.000 A 
ENDBRANCH  20  26
ENDBRANCH   1  20
TORSDOF 3
ENDMDL
MODEL 3
REMARK VINA RESULT:      -8.0      6.854      9.236
REMARK  Name = 
REMARK  4 active torsions:
REMARK  status: ('A' for Active; 'I' for Inactive)
REMARK    1  A    between atoms: C_1  and  C_2
REMARK    2  A    between atoms: C_5  and  N_6
REMARK    3  A    between atoms: N_6  and  C_7
REMARK    4  A    between atoms: C_14  and  C_15
REMARK                            x       y       z     vdW  Elec       q    Type
REMARK                         _______ _______ _______ _____ _____    ______ ____
ROOT
ATOM      1  C   UNL     1       0.749  10.690  20.755  0.00  0.00    +0.000 C 
ATOM      2  C   UNL     1       1.137  10.753  19.458  0.00  0.00    +0.000 C 
ATOM      3 CL   UNL     1       1.199  12.285  18.621  0.00  0.00    +0.000 Cl
ATOM      4  C   UNL     1       1.572   9.584  18.610  0.00  0.00    +0.000 C 
ATOM      5  O   UNL     1       1.723   9.649  17.394  0.00  0.00    +0.000 OA
ATOM      6  C   UNL     1       1.770   8.377  19.385  0.00  0.00    +0.000 A 
ATOM      7  N   UNL     1       2.310   7.192  18.948  0.00  0.00    +0.000 NA
ATOM      8  C   UNL     1       2.334   6.387  20.005  0.00  0.00    +0.000 A 
ATOM      9  N   UNL     1       1.777   7.022  21.094  0.00  0.00    +0.000 N 
ATOM     10  C   UNL     1       1.435   8.286  20.714  0.00  0.00    +0.000 A 
ATOM     11  C   UNL     1       0.869   9.354  21.478  0.00  0.00    +0.000 C 
ATOM     12  O   UNL     1       0.518   9.238  22.647  0.00  0.00    +0.000 OA
ATOM     13  H   UNL     1       1.693   6.616  22.024  0.00  0.00    +0.000 HD
ENDROOT
BRANCH   8  14
ATOM     14  C   UNL     1       2.881   5.033  20.063  0.00  0.00    +0.000 A 
ATOM     15  C   UNL     1       2.293   4.040  20.838  0.00  0.00    +0.000 A 
ATOM     16  C   UNL     1       2.862   2.767  20.826  0.00  0.00    +0.000 A 
ATOM     17  C   UNL     1       3.980   2.531  20.038  0.00  0.00    +0.000 A 
ATOM     18  C   UNL     1       4.497   3.579  19.295  0.00  0.00    +0.000 A 
ATOM     19  N   UNL     1       3.978   4.829  19.288  0.00  0.00    +0.000 NA
ENDBRANCH   8  14
BRANCH   1  20
ATOM     20  N   UNL     1       0.277  11.763  21.539  0.00  0.00    +0.000 N 
ATOM     21  H   UNL     1       0.710  11.740  22.471  0.00  0.00    +0.000 HD
BRANCH  20  26
ATOM     22  C   UNL     1      -5.282  13.098  22.194  0.00  0.00    +0.000 C 
ATOM     23  C   UNL     1      -3.851  12.678  22.033  0.00  0.00    +0.000 A 
ATOM     24  C   UNL     1      -3.086  12.253  23.123  0.00  0.00    +0.000 A 
ATOM     25  C   UNL     1      -1.739  11.929  22.954  0.00  0.00    +0.000 A 
ATOM     26  C   UNL     1      -1.124  12.001  21.702  0.00  0.00    +0.000 A 
ATOM     27  C   UNL     1      -1.901  12.417  20.606  0.00  0.00    +0.000 A 
ATOM     28  C   UNL     1      -3.254  12.748  20.774  0.00  0.00    +0.000 A 
ENDBRANCH  20  26
ENDBRANCH   1  20
TORSDOF 3
ENDMDL
MODEL 4
REMARK VINA RESULT:      -8.0      5.962      8.049
REMARK  Name = 
REMARK  4 active torsions:
REMARK  status: ('A' for Active; 'I' for Inactive)
REMARK    1  A    between atoms: C_1  and  C_2
REMARK    2  A    between atoms: C_5  and  N_6
REMARK    3  A    between atoms: N_6  and  C_7
REMARK    4  A    between atoms: C_14  and  C_15
REMARK                            x       y       z     vdW  Elec       q    Type
REMARK                         _______ _______ _______ _____ _____    ______ ____
ROOT
ATOM      1  C   UNL     1       1.059   9.539  19.426  0.00  0.00    +0.000 C 
ATOM      2  C   UNL     1       0.928   8.491  20.275  0.00  0.00    +0.000 C 
ATOM      3 CL   UNL     1      -0.305   8.496  21.513  0.00  0.00    +0.000 Cl
ATOM      4  C   UNL     1       1.760   7.232  20.257  0.00  0.00    +0.000 C 
ATOM      5  O   UNL     1       1.747   6.399  21.158  0.00  0.00    +0.000 OA
ATOM      6  C   UNL     1       2.586   7.129  19.073  0.00  0.00    +0.000 A 
ATOM      7  N   UNL     1       3.333   6.046  18.678  0.00  0.00    +0.000 NA
ATOM      8  C   UNL     1       3.889   6.385  17.519  0.00  0.00    +0.000 A 
ATOM      9  N   UNL     1       3.546   7.680  17.193  0.00  0.00    +0.000 N 
ATOM     10  C   UNL     1       2.709   8.149  18.162  0.00  0.00    +0.000 A 
ATOM     11  C   UNL     1       2.041   9.409  18.268  0.00  0.00    +0.000 C 
ATOM     12  O   UNL     1       2.209  10.332  17.479  0.00  0.00    +0.000 OA
ATOM     13  H   UNL     1       3.838   8.163  16.347  0.00  0.00    +0.000 HD
ENDROOT
BRANCH   8  14
ATOM     14  C   UNL     1       4.724   5.541  16.667  0.00  0.00    +0.000 A 
ATOM     15  C   UNL     1       4.752   4.158  16.811  0.00  0.00    +0.000 A 
ATOM     16  C   UNL     1       5.559   3.420  15.947  0.00  0.00    +0.000 A 
ATOM     17  C   UNL     1       6.292   4.080  14.971  0.00  0.00    +0.000 A 
ATOM     18  C   UNL     1       6.200   5.460  14.898  0.00  0.00    +0.000 A 
ATOM     19  N   UNL     1       5.436   6.211  15.725  0.00  0.00    +0.000 NA
ENDBRANCH   8  14
BRANCH   1  20
ATOM     20  N   UNL     1       0.333  10.747  19.473  0.00  0.00    +0.000 N 
ATOM     21  H   UNL     1       0.313  11.113  20.433  0.00  0.00    +0.000 HD
BRANCH  20  26
ATOM     22  C   UNL     1      -4.838  11.341  17.018  0.00  0.00    +0.000 C 
ATOM     23  C   UNL     1      -3.523  11.151  17.715  0.00  0.00    +0.000 A 
ATOM     24  C   UNL     1      -3.184  11.888  18.853  0.00  0.00    +0.000 A 
ATOM     25  C   UNL     1      -1.929  11.735  19.443  0.00  0.00    +0.000 A 
ATOM     26  C   UNL     1      -0.988  10.839  18.932  0.00  0.00    +0.000 A 
ATOM     27  C   UNL     1      -1.338  10.090  17.793  0.00  0.00    +0.000 A 
ATOM     28  C   UNL     1      -2.597  10.245  17.196  0.00  0.00    +0.000 A 
ENDBRANCH  20  26
ENDBRANCH   1  20
TORSDOF 3
ENDMDL
MODEL 5
REMARK VINA RESULT:      -7.9      5.960      8.115
REMARK  Name = 
REMARK  4 active torsions:
REMARK  status: ('A' for Active; 'I' for Inactive)
REMARK    1  A    between atoms: C_1  and  C_2
REMARK    2  A    between atoms: C_5  and  N_6
REMARK    3  A    between atoms: N_6  and  C_7
REMARK    4  A    between atoms: C_14  and  C_15
REMARK                            x       y       z     vdW  Elec       q    Type
REMARK                         _______ _______ _______ _____ _____    ______ ____
ROOT
ATOM      1  C   UNL     1       1.018   9.582  19.501  0.00  0.00    +0.000 C 
ATOM      2  C   UNL     1       0.858   8.527  20.336  0.00  0.00    +0.000 C 
ATOM      3 CL   UNL     1      -0.384   8.545  21.565  0.00  0.00    +0.000 Cl
ATOM      4  C   UNL     1       1.661   7.250  20.308  0.00  0.00    +0.000 C 
ATOM      5  O   UNL     1       1.622   6.407  21.199  0.00  0.00    +0.000 OA
ATOM      6  C   UNL     1       2.493   7.142  19.129  0.00  0.00    +0.000 A 
ATOM      7  N   UNL     1       3.218   6.047  18.725  0.00  0.00    +0.000 NA
ATOM      8  C   UNL     1       3.789   6.388  17.575  0.00  0.00    +0.000 A 
ATOM      9  N   UNL     1       3.479   7.694  17.262  0.00  0.00    +0.000 N 
ATOM     10  C   UNL     1       2.646   8.171  18.231  0.00  0.00    +0.000 A 
ATOM     11  C   UNL     1       2.005   9.444  18.348  0.00  0.00    +0.000 C 
ATOM     12  O   UNL     1       2.200  10.372  17.572  0.00  0.00    +0.000 OA
ATOM     13  H   UNL     1       3.788   8.181  16.424  0.00  0.00    +0.000 HD
ENDROOT
BRANCH   8  14
ATOM     14  C   UNL     1       4.611   5.536  16.718  0.00  0.00    +0.000 A 
ATOM     15  C   UNL     1       5.282   6.043  15.610  0.00  0.00    +0.000 A 
ATOM     16  C   UNL     1       6.063   5.171  14.854  0.00  0.00    +0.000 A 
ATOM     17  C   UNL     1       6.155   3.839  15.233  0.00  0.00    +0.000 A 
ATOM     18  C   UNL     1       5.456   3.422  16.353  0.00  0.00    +0.000 A 
ATOM     19  N   UNL     1       4.681   4.237  17.107  0.00  0.00    +0.000 NA
ENDBRANCH   8  14
BRANCH   1  20
ATOM     20  N   UNL     1       0.320  10.806  19.558  0.00  0.00    +0.000 N 
ATOM     21  H   UNL     1       0.253  11.133  20.530  0.00  0.00    +0.000 HD
BRANCH  20  26
ATOM     22  C   UNL     1      -4.995  11.187  17.384  0.00  0.00    +0.000 C 
ATOM     23  C   UNL     1      -3.583  11.122  17.889  0.00  0.00    +0.000 A 
ATOM     24  C   UNL     1      -2.649  10.240  17.340  0.00  0.00    +0.000 A 
ATOM     25  C   UNL     1      -1.362  10.156  17.871  0.00  0.00    +0.000 A 
ATOM     26  C   UNL     1      -0.965  10.955  18.947  0.00  0.00    +0.000 A 
ATOM     27  C   UNL     1      -1.905  11.851  19.488  0.00  0.00    +0.000 A 
ATOM     28  C   UNL     1      -3.201  11.933  18.958  0.00  0.00    +0.000 A 
ENDBRANCH  20  26
ENDBRANCH   1  20
TORSDOF 3
ENDMDL
MODEL 6
REMARK VINA RESULT:      -7.8      6.402      9.719
REMARK  Name = 
REMARK  4 active torsions:
REMARK  status: ('A' for Active; 'I' for Inactive)
REMARK    1  A    between atoms: C_1  and  C_2
REMARK    2  A    between atoms: C_5  and  N_6
REMARK    3  A    between atoms: N_6  and  C_7
REMARK    4  A    between atoms: C_14  and  C_15
REMARK                            x       y       z     vdW  Elec       q    Type
REMARK                         _______ _______ _______ _____ _____    ______ ____
ROOT
ATOM      1  C   UNL     1       0.617  10.639  19.087  0.00  0.00    +0.000 C 
ATOM      2  C   UNL     1       0.101  10.437  20.323  0.00  0.00    +0.000 C 
ATOM      3 CL   UNL     1      -1.096  11.527  20.978  0.00  0.00    +0.000 Cl
ATOM      4  C   UNL     1       0.445   9.293  21.246  0.00  0.00    +0.000 C 
ATOM      5  O   UNL     1       0.113   9.252  22.426  0.00  0.00    +0.000 OA
ATOM      6  C   UNL     1       1.226   8.265  20.590  0.00  0.00    +0.000 A 
ATOM      7  N   UNL     1       1.565   7.034  21.097  0.00  0.00    +0.000 NA
ATOM      8  C   UNL     1       2.244   6.415  20.137  0.00  0.00    +0.000 A 
ATOM      9  N   UNL     1       2.383   7.246  19.046  0.00  0.00    +0.000 N 
ATOM     10  C   UNL     1       1.727   8.410  19.320  0.00  0.00    +0.000 A 
ATOM     11  C   UNL     1       1.533   9.569  18.504  0.00  0.00    +0.000 C 
ATOM     12  O   UNL     1       2.038   9.709  17.397  0.00  0.00    +0.000 OA
ATOM     13  H   UNL     1       2.854   6.996  18.180  0.00  0.00    +0.000 HD
ENDROOT
BRANCH   8  14
ATOM     14  C   UNL     1       2.764   5.050  20.172  0.00  0.00    +0.000 A 
ATOM     15  C   UNL     1       2.180   4.065  20.962  0.00  0.00    +0.000 A 
ATOM     16  C   UNL     1       2.721   2.781  20.927  0.00  0.00    +0.000 A 
ATOM     17  C   UNL     1       3.807   2.525  20.102  0.00  0.00    +0.000 A 
ATOM     18  C   UNL     1       4.323   3.565  19.346  0.00  0.00    +0.000 A 
ATOM     19  N   UNL     1       3.830   4.826  19.362  0.00  0.00    +0.000 NA
ENDBRANCH   8  14
BRANCH   1  20
ATOM     20  N   UNL     1       0.354  11.737  18.242  0.00  0.00    +0.000 N 
ATOM     21  H   UNL     1       0.465  11.463  17.257  0.00  0.00    +0.000 HD
BRANCH  20  26
ATOM     22  C   UNL     1       2.861  16.899  18.674  0.00  0.00    +0.000 C 
ATOM     23  C   UNL     1       2.244  15.532  18.623  0.00  0.00    +0.000 A 
ATOM     24  C   UNL     1       2.986  14.408  18.252  0.00  0.00    +0.000 A 
ATOM     25  C   UNL     1       2.370  13.160  18.152  0.00  0.00    +0.000 A 
ATOM     26  C   UNL     1       1.012  12.993  18.434  0.00  0.00    +0.000 A 
ATOM     27  C   UNL     1       0.273  14.126  18.820  0.00  0.00    +0.000 A 
ATOM     28  C   UNL     1       0.889  15.382  18.916  0.00  0.00    +0.000 A 
ENDBRANCH  20  26
ENDBRANCH   1  20
TORSDOF 3
ENDMDL
MODEL 7
REMARK VINA RESULT:      -7.8      4.511      7.084
REMARK  Name = 
REMARK  4 active torsions:
REMARK  status: ('A' for Active; 'I' for Inactive)
REMARK    1  A    between atoms: C_1  and  C_2
REMARK    2  A    between atoms: C_5  and  N_6
REMARK    3  A    between atoms: N_6  and  C_7
REMARK    4  A    between atoms: C_14  and  C_15
REMARK                            x       y       z     vdW  Elec       q    Type
REMARK                         _______ _______ _______ _____ _____    ______ ____
ROOT
ATOM      1  C   UNL     1       4.796   4.406  18.853  0.00  0.00    +0.000 C 
ATOM      2  C   UNL     1       4.028   3.597  19.623  0.00  0.00    +0.000 C 
ATOM      3 CL   UNL     1       4.533   1.962  19.974  0.00  0.00    +0.000 Cl
ATOM      4  C   UNL     1       2.720   3.978  20.271  0.00  0.00    +0.000 C 
ATOM      5  O   UNL     1       1.961   3.166  20.789  0.00  0.00    +0.000 OA
ATOM      6  C   UNL     1       2.454   5.398  20.193  0.00  0.00    +0.000 A 
ATOM      7  N   UNL     1       1.439   6.084  20.815  0.00  0.00    +0.000 NA
ATOM      8  C   UNL     1       1.609   7.363  20.495  0.00  0.00    +0.000 A 
ATOM      9  N   UNL     1       2.686   7.497  19.644  0.00  0.00    +0.000 N 
ATOM     10  C   UNL     1       3.234   6.261  19.464  0.00  0.00    +0.000 A 
ATOM     11  C   UNL     1       4.387   5.868  18.715  0.00  0.00    +0.000 C 
ATOM     12  O   UNL     1       5.037   6.640  18.020  0.00  0.00    +0.000 OA
ATOM     13  H   UNL     1       3.025   8.380  19.269  0.00  0.00    +0.000 HD
ENDROOT
BRANCH   8  14
ATOM     14  C   UNL     1       0.819   8.497  20.967  0.00  0.00    +0.000 A 
ATOM     15  C   UNL     1       0.275   8.528  22.247  0.00  0.00    +0.000 A 
ATOM     16  C   UNL     1      -0.450   9.654  22.631  0.00  0.00    +0.000 A 
ATOM     17  C   UNL     1      -0.596  10.706  21.737  0.00  0.00    +0.000 A 
ATOM     18  C   UNL     1      -0.017  10.592  20.484  0.00  0.00    +0.000 A 
ATOM     19  N   UNL     1       0.686   9.511  20.073  0.00  0.00    +0.000 NA
ENDBRANCH   8  14
BRANCH   1  20
ATOM     20  N   UNL     1       5.986   4.044  18.188  0.00  0.00    +0.000 N 
ATOM     21  H   UNL     1       6.792   4.516  18.618  0.00  0.00    +0.000 HD
BRANCH  20  26
ATOM     22  C   UNL     1       6.581   4.149  12.465  0.00  0.00    +0.000 C 
ATOM     23  C   UNL     1       6.413   4.195  13.956  0.00  0.00    +0.000 A 
ATOM     24  C   UNL     1       7.379   4.771  14.784  0.00  0.00    +0.000 A 
ATOM     25  C   UNL     1       7.225   4.743  16.171  0.00  0.00    +0.000 A 
ATOM     26  C   UNL     1       6.104   4.161  16.767  0.00  0.00    +0.000 A 
ATOM     27  C   UNL     1       5.127   3.595  15.928  0.00  0.00    +0.000 A 
ATOM     28  C   UNL     1       5.283   3.618  14.535  0.00  0.00    +0.000 A 
ENDBRANCH  20  26
ENDBRANCH   1  20
TORSDOF 3
ENDMDL
MODEL 8
REMARK VINA RESULT:      -7.7      8.033     10.056
REMARK  Name = 
REMARK  4 active torsions:
REMARK  status: ('A' for Active; 'I' for Inactive)
REMARK    1  A    between atoms: C_1  and  C_2
REMARK    2  A    between atoms: C_5  and  N_6
REMARK    3  A    between atoms: N_6  and  C_7
REMARK    4  A    between atoms: C_14  and  C_15
REMARK                            x       y       z     vdW  Elec       q    Type
REMARK                         _______ _______ _______ _____ _____    ______ ____
ROOT
ATOM      1  C   UNL     1      -1.028  11.719  20.800  0.00  0.00    +0.000 C 
ATOM      2  C   UNL     1      -0.866  11.158  22.022  0.00  0.00    +0.000 C 
ATOM      3 CL   UNL     1      -1.834  11.681  23.379  0.00  0.00    +0.000 Cl
ATOM      4  C   UNL     1       0.097  10.046  22.361  0.00  0.00    +0.000 C 
ATOM      5  O   UNL     1       0.357   9.703  23.510  0.00  0.00    +0.000 OA
ATOM      6  C   UNL     1       0.692   9.448  21.185  0.00  0.00    +0.000 A 
ATOM      7  N   UNL     1       1.479   8.323  21.137  0.00  0.00    +0.000 NA
ATOM      8  C   UNL     1       1.760   8.124  19.854  0.00  0.00    +0.000 A 
ATOM      9  N   UNL     1       1.205   9.128  19.089  0.00  0.00    +0.000 N 
ATOM     10  C   UNL     1       0.514   9.957  19.922  0.00  0.00    +0.000 A 
ATOM     11  C   UNL     1      -0.273  11.113  19.622  0.00  0.00    +0.000 C 
ATOM     12  O   UNL     1      -0.372  11.591  18.499  0.00  0.00    +0.000 OA
ATOM     13  H   UNL     1       1.270   9.190  18.075  0.00  0.00    +0.000 HD
ENDROOT
BRANCH   8  14
ATOM     14  C   UNL     1       2.517   7.012  19.284  0.00  0.00    +0.000 A 
ATOM     15  C   UNL     1       3.153   7.115  18.051  0.00  0.00    +0.000 A 
ATOM     16  C   UNL     1       3.873   6.018  17.584  0.00  0.00    +0.000 A 
ATOM     17  C   UNL     1       3.942   4.870  18.362  0.00  0.00    +0.000 A 
ATOM     18  C   UNL     1       3.281   4.856  19.578  0.00  0.00    +0.000 A 
ATOM     19  N   UNL     1       2.565   5.899  20.061  0.00  0.00    +0.000 NA
ENDBRANCH   8  14
BRANCH   1  20
ATOM     20  N   UNL     1      -1.875  12.802  20.484  0.00  0.00    +0.000 N 
ATOM     21  H   UNL     1      -1.778  13.546  21.186  0.00  0.00    +0.000 HD
BRANCH  20  26
ATOM     22  C   UNL     1      -7.461  11.674  19.683  0.00  0.00    +0.000 C 
ATOM     23  C   UNL     1      -6.011  12.024  19.843  0.00  0.00    +0.000 A 
ATOM     24  C   UNL     1      -5.078  11.761  18.837  0.00  0.00    +0.000 A 
ATOM     25  C   UNL     1      -3.726  12.040  19.039  0.00  0.00    +0.000 A 
ATOM     26  C   UNL     1      -3.269  12.602  20.233  0.00  0.00    +0.000 A 
ATOM     27  C   UNL     1      -4.214  12.878  21.239  0.00  0.00    +0.000 A 
ATOM     28  C   UNL     1      -5.572  12.593  21.039  0.00  0.00    +0.000 A 
ENDBRANCH  20  26
ENDBRANCH   1  20
TORSDOF 3
ENDMDL
MODEL 9
REMARK VINA RESULT:      -7.6      4.732      6.727
REMARK  Name = 
REMARK  4 active torsions:
REMARK  status: ('A' for Active; 'I' for Inactive)
REMARK    1  A    between atoms: C_1  and  C_2
REMARK    2  A    between atoms: C_5  and  N_6
REMARK    3  A    between atoms: N_6  and  C_7
REMARK    4  A    between atoms: C_14  and  C_15
REMARK                            x       y       z     vdW  Elec       q    Type
REMARK                         _______ _______ _______ _____ _____    ______ ____
ROOT
ATOM      1  C   UNL     1       3.061   5.578  19.322  0.00  0.00    +0.000 C 
ATOM      2  C   UNL     1       2.454   4.414  18.987  0.00  0.00    +0.000 C 
ATOM      3 CL   UNL     1       1.010   3.890  19.819  0.00  0.00    +0.000 Cl
ATOM      4  C   UNL     1       2.894   3.472  17.892  0.00  0.00    +0.000 C 
ATOM      5  O   UNL     1       2.443   2.341  17.752  0.00  0.00    +0.000 OA
ATOM      6  C   UNL     1       3.920   4.045  17.046  0.00  0.00    +0.000 A 
ATOM      7  N   UNL     1       4.418   3.518  15.879  0.00  0.00    +0.000 NA
ATOM      8  C   UNL     1       5.304   4.399  15.427  0.00  0.00    +0.000 A 
ATOM      9  N   UNL     1       5.412   5.455  16.307  0.00  0.00    +0.000 N 
ATOM     10  C   UNL     1       4.526   5.245  17.323  0.00  0.00    +0.000 A 
ATOM     11  C   UNL     1       4.218   6.062  18.456  0.00  0.00    +0.000 C 
ATOM     12  O   UNL     1       4.811   7.100  18.723  0.00  0.00    +0.000 OA
ATOM     13  H   UNL     1       6.016   6.263  16.176  0.00  0.00    +0.000 HD
ENDROOT
BRANCH   8  14
ATOM     14  C   UNL     1       6.058   4.322  14.178  0.00  0.00    +0.000 A 
ATOM     15  C   UNL     1       5.696   3.447  13.158  0.00  0.00    +0.000 A 
ATOM     16  C   UNL     1       6.453   3.445  11.988  0.00  0.00    +0.000 A 
ATOM     17  C   UNL     1       7.527   4.317  11.873  0.00  0.00    +0.000 A 
ATOM     18  C   UNL     1       7.814   5.156  12.937  0.00  0.00    +0.000 A 
ATOM     19  N   UNL     1       7.107   5.179  14.092  0.00  0.00    +0.000 NA
ENDBRANCH   8  14
BRANCH   1  20
ATOM     20  N   UNL     1       2.699   6.433  20.383  0.00  0.00    +0.000 N 
ATOM     21  H   UNL     1       2.314   5.887  21.165  0.00  0.00    +0.000 HD
BRANCH  20  26
ATOM     22  C   UNL     1      -0.402  11.207  19.542  0.00  0.00    +0.000 C 
ATOM     23  C   UNL     1       0.343   9.923  19.764  0.00  0.00    +0.000 A 
ATOM     24  C   UNL     1       0.347   9.285  21.007  0.00  0.00    +0.000 A 
ATOM     25  C   UNL     1       1.099   8.126  21.201  0.00  0.00    +0.000 A 
ATOM     26  C   UNL     1       1.851   7.564  20.166  0.00  0.00    +0.000 A 
ATOM     27  C   UNL     1       1.833   8.203  18.913  0.00  0.00    +0.000 A 
ATOM     28  C   UNL     1       1.081   9.371  18.718  0.00  0.00    +0.000 A 
ENDBRANCH  20  26
ENDBRANCH   1  20
TORSDOF 3
ENDMDL
