MODEL 1
REMARK VINA RESULT:      -7.2      0.000      0.000
REMARK  Name = 
REMARK  8 active torsions:
REMARK  status: ('A' for Active; 'I' for Inactive)
REMARK    1  A    between atoms: C_1  and  O_2
REMARK    2  A    between atoms: O_2  and  C_3
REMARK    3  A    between atoms: C_3  and  C_5
REMARK    4  A    between atoms: C_7  and  O_8
REMARK    5  A    between atoms: O_8  and  C_9
REMARK    6  A    between atoms: C_12  and  C_14
REMARK    7  A    between atoms: C_14  and  C_15
REMARK    8  A    between atoms: C_19  and  C_20
REMARK                            x       y       z     vdW  Elec       q    Type
REMARK                         _______ _______ _______ _____ _____    ______ ____
ROOT
ATOM      1  C   UNL     1       5.365   4.704  17.641  0.00  0.00    +0.000 C 
ATOM      2  C   UNL     1       6.638   4.644  16.783  0.00  0.00    +0.000 C 
ATOM      3  C   UNL     1       6.253   5.348  15.487  0.00  0.00    +0.000 C 
ATOM      4  C   UNL     1       5.172   6.347  15.917  0.00  0.00    +0.000 C 
ATOM      5  N   UNL     1       4.826   6.027  17.295  0.00  0.00    +0.000 N 
ATOM      6  C   UNL     1       3.740   6.685  17.839  0.00  0.00    +0.000 C 
ATOM      7  O   UNL     1       3.156   7.570  17.205  0.00  0.00    +0.000 OA
ENDROOT
BRANCH   1   8
ATOM      8  C   UNL     1       5.782   4.449  19.088  0.00  0.00    +0.000 C 
ATOM      9  O   UNL     1       6.487   5.195  19.757  0.00  0.00    +0.000 OA
BRANCH   8  11
ATOM     10  C   UNL     1       4.517   2.527  18.550  0.00  0.00    +0.000 C 
ATOM     11  O   UNL     1       5.241   3.278  19.528  0.00  0.00    +0.000 OA
ENDBRANCH   8  11
ENDBRANCH   1   8
BRANCH   3  12
ATOM     12  O   UNL     1       5.756   4.357  14.582  0.00  0.00    +0.000 OA
ATOM     13  C   UNL     1       6.613   4.160  13.460  0.00  0.00    +0.000 C 
ENDBRANCH   3  12
BRANCH   6  14
ATOM     14  C   UNL     1       3.287   6.365  19.255  0.00  0.00    +0.000 C 
BRANCH  14  15
ATOM     15  C   UNL     1       2.391   5.160  19.387  0.00  0.00    +0.000 A 
ATOM     16  C   UNL     1       1.746   4.646  18.253  0.00  0.00    +0.000 A 
ATOM     17  C   UNL     1       0.930   3.522  18.346  0.00  0.00    +0.000 A 
ATOM     18  C   UNL     1       0.765   2.877  19.571  0.00  0.00    +0.000 A 
ATOM     19  C   UNL     1       1.435   3.342  20.705  0.00  0.00    +0.000 A 
ATOM     20  C   UNL     1       1.303   2.646  22.028  0.00  0.00    +0.000 C 
ATOM     21  C   UNL     1       2.251   4.475  20.603  0.00  0.00    +0.000 A 
ENDBRANCH  14  15
ENDBRANCH   6  14
TORSDOF 5
ENDMDL
MODEL 2
REMARK VINA RESULT:      -7.2      0.591      1.239
REMARK  Name = 
REMARK  8 active torsions:
REMARK  status: ('A' for Active; 'I' for Inactive)
REMARK    1  A    between atoms: C_1  and  O_2
REMARK    2  A    between atoms: O_2  and  C_3
REMARK    3  A    between atoms: C_3  and  C_5
REMARK    4  A    between atoms: C_7  and  O_8
REMARK    5  A    between atoms: O_8  and  C_9
REMARK    6  A    between atoms: C_12  and  C_14
REMARK    7  A    between atoms: C_14  and  C_15
REMARK    8  A    between atoms: C_19  and  C_20
REMARK                            x       y       z     vdW  Elec       q    Type
REMARK                         _______ _______ _______ _____ _____    ______ ____
ROOT
ATOM      1  C   UNL     1       5.182   4.905  17.568  0.00  0.00    +0.000 C 
ATOM      2  C   UNL     1       6.434   4.912  16.677  0.00  0.00    +0.000 C 
ATOM      3  C   UNL     1       6.011   5.693  15.438  0.00  0.00    +0.000 C 
ATOM      4  C   UNL     1       4.933   6.652  15.957  0.00  0.00    +0.000 C 
ATOM      5  N   UNL     1       4.623   6.242  17.320  0.00  0.00    +0.000 N 
ATOM      6  C   UNL     1       3.547   6.853  17.931  0.00  0.00    +0.000 C 
ATOM      7  O   UNL     1       2.940   7.772  17.368  0.00  0.00    +0.000 OA
ENDROOT
BRANCH   1   8
ATOM      8  C   UNL     1       5.636   4.563  18.985  0.00  0.00    +0.000 C 
ATOM      9  O   UNL     1       5.458   3.483  19.538  0.00  0.00    +0.000 OA
BRANCH   8  11
ATOM     10  C   UNL     1       7.705   5.514  19.614  0.00  0.00    +0.000 C 
ATOM     11  O   UNL     1       6.282   5.628  19.536  0.00  0.00    +0.000 OA
ENDBRANCH   8  11
ENDBRANCH   1   8
BRANCH   3  12
ATOM     12  O   UNL     1       5.500   4.756  14.484  0.00  0.00    +0.000 OA
ATOM     13  C   UNL     1       6.531   4.023  13.829  0.00  0.00    +0.000 C 
ENDBRANCH   3  12
BRANCH   6  14
ATOM     14  C   UNL     1       3.131   6.441  19.333  0.00  0.00    +0.000 C 
BRANCH  14  15
ATOM     15  C   UNL     1       2.325   5.169  19.418  0.00  0.00    +0.000 A 
ATOM     16  C   UNL     1       1.731   4.645  18.262  0.00  0.00    +0.000 A 
ATOM     17  C   UNL     1       0.999   3.461  18.310  0.00  0.00    +0.000 A 
ATOM     18  C   UNL     1       0.870   2.768  19.513  0.00  0.00    +0.000 A 
ATOM     19  C   UNL     1       1.493   3.246  20.669  0.00  0.00    +0.000 A 
ATOM     20  C   UNL     1       1.400   2.501  21.969  0.00  0.00    +0.000 C 
ATOM     21  C   UNL     1       2.224   4.439  20.611  0.00  0.00    +0.000 A 
ENDBRANCH  14  15
ENDBRANCH   6  14
TORSDOF 5
ENDMDL
MODEL 3
REMARK VINA RESULT:      -6.9      2.103      3.307
REMARK  Name = 
REMARK  8 active torsions:
REMARK  status: ('A' for Active; 'I' for Inactive)
REMARK    1  A    between atoms: C_1  and  O_2
REMARK    2  A    between atoms: O_2  and  C_3
REMARK    3  A    between atoms: C_3  and  C_5
REMARK    4  A    between atoms: C_7  and  O_8
REMARK    5  A    between atoms: O_8  and  C_9
REMARK    6  A    between atoms: C_12  and  C_14
REMARK    7  A    between atoms: C_14  and  C_15
REMARK    8  A    between atoms: C_19  and  C_20
REMARK                            x       y       z     vdW  Elec       q    Type
REMARK                         _______ _______ _______ _____ _____    ______ ____
ROOT
ATOM      1  C   UNL     1       4.629   4.341  16.708  0.00  0.00    +0.000 C 
ATOM      2  C   UNL     1       5.516   3.542  15.740  0.00  0.00    +0.000 C 
ATOM      3  C   UNL     1       6.886   4.201  15.853  0.00  0.00    +0.000 C 
ATOM      4  C   UNL     1       6.911   4.757  17.281  0.00  0.00    +0.000 C 
ATOM      5  N   UNL     1       5.560   4.626  17.810  0.00  0.00    +0.000 N 
ATOM      6  C   UNL     1       5.299   5.227  19.025  0.00  0.00    +0.000 C 
ATOM      7  O   UNL     1       6.205   5.769  19.668  0.00  0.00    +0.000 OA
ENDROOT
BRANCH   1   8
ATOM      8  C   UNL     1       3.399   3.487  17.004  0.00  0.00    +0.000 C 
ATOM      9  O   UNL     1       2.239   3.839  16.819  0.00  0.00    +0.000 OA
BRANCH   8  11
ATOM     10  C   UNL     1       2.993   1.763  18.567  0.00  0.00    +0.000 C 
ATOM     11  O   UNL     1       3.781   2.272  17.487  0.00  0.00    +0.000 OA
ENDBRANCH   8  11
ENDBRANCH   1   8
BRANCH   3  12
ATOM     12  O   UNL     1       6.960   5.230  14.861  0.00  0.00    +0.000 OA
ATOM     13  C   UNL     1       7.059   4.711  13.538  0.00  0.00    +0.000 C 
ENDBRANCH   3  12
BRANCH   6  14
ATOM     14  C   UNL     1       3.898   5.178  19.614  0.00  0.00    +0.000 C 
BRANCH  14  15
ATOM     15  C   UNL     1       3.079   6.430  19.433  0.00  0.00    +0.000 A 
ATOM     16  C   UNL     1       3.076   7.085  18.194  0.00  0.00    +0.000 A 
ATOM     17  C   UNL     1       2.312   8.232  17.995  0.00  0.00    +0.000 A 
ATOM     18  C   UNL     1       1.516   8.728  19.027  0.00  0.00    +0.000 A 
ATOM     19  C   UNL     1       1.465   8.065  20.256  0.00  0.00    +0.000 A 
ATOM     20  C   UNL     1       0.589   8.558  21.371  0.00  0.00    +0.000 C 
ATOM     21  C   UNL     1       2.240   6.915  20.447  0.00  0.00    +0.000 A 
ENDBRANCH  14  15
ENDBRANCH   6  14
TORSDOF 5
ENDMDL
MODEL 4
REMARK VINA RESULT:      -6.9      1.976      2.841
REMARK  Name = 
REMARK  8 active torsions:
REMARK  status: ('A' for Active; 'I' for Inactive)
REMARK    1  A    between atoms: C_1  and  O_2
REMARK    2  A    between atoms: O_2  and  C_3
REMARK    3  A    between atoms: C_3  and  C_5
REMARK    4  A    between atoms: C_7  and  O_8
REMARK    5  A    between atoms: O_8  and  C_9
REMARK    6  A    between atoms: C_12  and  C_14
REMARK    7  A    between atoms: C_14  and  C_15
REMARK    8  A    between atoms: C_19  and  C_20
REMARK                            x       y       z     vdW  Elec       q    Type
REMARK                         _______ _______ _______ _____ _____    ______ ____
ROOT
ATOM      1  C   UNL     1       6.806   4.188  15.796  0.00  0.00    +0.000 C 
ATOM      2  C   UNL     1       7.209   4.825  14.457  0.00  0.00    +0.000 C 
ATOM      3  C   UNL     1       6.117   4.387  13.487  0.00  0.00    +0.000 C 
ATOM      4  C   UNL     1       4.883   4.209  14.378  0.00  0.00    +0.000 C 
ATOM      5  N   UNL     1       5.341   4.300  15.759  0.00  0.00    +0.000 N 
ATOM      6  C   UNL     1       4.427   3.989  16.746  0.00  0.00    +0.000 C 
ATOM      7  O   UNL     1       3.251   3.738  16.460  0.00  0.00    +0.000 OA
ENDROOT
BRANCH   1   8
ATOM      8  C   UNL     1       7.560   4.932  16.896  0.00  0.00    +0.000 C 
ATOM      9  O   UNL     1       8.076   4.403  17.874  0.00  0.00    +0.000 OA
BRANCH   8  11
ATOM     10  C   UNL     1       7.370   7.129  17.741  0.00  0.00    +0.000 C 
ATOM     11  O   UNL     1       7.587   6.266  16.622  0.00  0.00    +0.000 OA
ENDBRANCH   8  11
ENDBRANCH   1   8
BRANCH   3  12
ATOM     12  O   UNL     1       6.539   3.163  12.879  0.00  0.00    +0.000 OA
ATOM     13  C   UNL     1       5.635   2.709  11.875  0.00  0.00    +0.000 C 
ENDBRANCH   3  12
BRANCH   6  14
ATOM     14  C   UNL     1       4.847   4.011  18.207  0.00  0.00    +0.000 C 
BRANCH  14  15
ATOM     15  C   UNL     1       3.756   4.366  19.185  0.00  0.00    +0.000 A 
ATOM     16  C   UNL     1       3.286   5.685  19.251  0.00  0.00    +0.000 A 
ATOM     17  C   UNL     1       2.266   6.035  20.132  0.00  0.00    +0.000 A 
ATOM     18  C   UNL     1       1.681   5.064  20.944  0.00  0.00    +0.000 A 
ATOM     19  C   UNL     1       2.100   3.733  20.862  0.00  0.00    +0.000 A 
ATOM     20  C   UNL     1       1.463   2.663  21.699  0.00  0.00    +0.000 C 
ATOM     21  C   UNL     1       3.129   3.393  19.976  0.00  0.00    +0.000 A 
ENDBRANCH  14  15
ENDBRANCH   6  14
TORSDOF 5
ENDMDL
MODEL 5
REMARK VINA RESULT:      -6.9      2.165      6.195
REMARK  Name = 
REMARK  8 active torsions:
REMARK  status: ('A' for Active; 'I' for Inactive)
REMARK    1  A    between atoms: C_1  and  O_2
REMARK    2  A    between atoms: O_2  and  C_3
REMARK    3  A    between atoms: C_3  and  C_5
REMARK    4  A    between atoms: C_7  and  O_8
REMARK    5  A    between atoms: O_8  and  C_9
REMARK    6  A    between atoms: C_12  and  C_14
REMARK    7  A    between atoms: C_14  and  C_15
REMARK    8  A    between atoms: C_19  and  C_20
REMARK                            x       y       z     vdW  Elec       q    Type
REMARK                         _______ _______ _______ _____ _____    ______ ____
ROOT
ATOM      1  C   UNL     1       3.443   4.808  18.009  0.00  0.00    +0.000 C 
ATOM      2  C   UNL     1       2.055   5.394  18.309  0.00  0.00    +0.000 C 
ATOM      3  C   UNL     1       2.305   6.890  18.475  0.00  0.00    +0.000 C 
ATOM      4  C   UNL     1       3.528   7.159  17.590  0.00  0.00    +0.000 C 
ATOM      5  N   UNL     1       4.047   5.861  17.179  0.00  0.00    +0.000 N 
ATOM      6  C   UNL     1       5.259   5.849  16.518  0.00  0.00    +0.000 C 
ATOM      7  O   UNL     1       5.821   6.907  16.213  0.00  0.00    +0.000 OA
ENDROOT
BRANCH   1   8
ATOM      8  C   UNL     1       3.227   3.431  17.385  0.00  0.00    +0.000 C 
ATOM      9  O   UNL     1       2.452   3.190  16.466  0.00  0.00    +0.000 OA
BRANCH   8  11
ATOM     10  C   UNL     1       4.187   2.665  19.403  0.00  0.00    +0.000 C 
ATOM     11  O   UNL     1       4.034   2.515  17.989  0.00  0.00    +0.000 OA
ENDBRANCH   8  11
ENDBRANCH   1   8
BRANCH   3  12
ATOM     12  O   UNL     1       2.564   7.138  19.860  0.00  0.00    +0.000 OA
ATOM     13  C   UNL     1       1.717   6.381  20.721  0.00  0.00    +0.000 C 
ENDBRANCH   3  12
BRANCH   6  14
ATOM     14  C   UNL     1       5.889   4.529  16.105  0.00  0.00    +0.000 C 
BRANCH  14  15
ATOM     15  C   UNL     1       6.255   4.418  14.647  0.00  0.00    +0.000 A 
ATOM     16  C   UNL     1       7.418   5.043  14.174  0.00  0.00    +0.000 A 
ATOM     17  C   UNL     1       7.789   4.940  12.836  0.00  0.00    +0.000 A 
ATOM     18  C   UNL     1       7.016   4.186  11.953  0.00  0.00    +0.000 A 
ATOM     19  C   UNL     1       5.879   3.515  12.412  0.00  0.00    +0.000 A 
ATOM     20  C   UNL     1       5.050   2.668  11.490  0.00  0.00    +0.000 C 
ATOM     21  C   UNL     1       5.513   3.628  13.757  0.00  0.00    +0.000 A 
ENDBRANCH  14  15
ENDBRANCH   6  14
TORSDOF 5
ENDMDL
MODEL 6
REMARK VINA RESULT:      -6.8      2.011      2.866
REMARK  Name = 
REMARK  8 active torsions:
REMARK  status: ('A' for Active; 'I' for Inactive)
REMARK    1  A    between atoms: C_1  and  O_2
REMARK    2  A    between atoms: O_2  and  C_3
REMARK    3  A    between atoms: C_3  and  C_5
REMARK    4  A    between atoms: C_7  and  O_8
REMARK    5  A    between atoms: O_8  and  C_9
REMARK    6  A    between atoms: C_12  and  C_14
REMARK    7  A    between atoms: C_14  and  C_15
REMARK    8  A    between atoms: C_19  and  C_20
REMARK                            x       y       z     vdW  Elec       q    Type
REMARK                         _______ _______ _______ _____ _____    ______ ____
ROOT
ATOM      1  C   UNL     1       6.847   4.298  16.314  0.00  0.00    +0.000 C 
ATOM      2  C   UNL     1       7.250   5.170  15.114  0.00  0.00    +0.000 C 
ATOM      3  C   UNL     1       6.247   4.801  14.027  0.00  0.00    +0.000 C 
ATOM      4  C   UNL     1       4.995   4.382  14.807  0.00  0.00    +0.000 C 
ATOM      5  N   UNL     1       5.381   4.292  16.209  0.00  0.00    +0.000 N 
ATOM      6  C   UNL     1       4.457   3.755  17.082  0.00  0.00    +0.000 C 
ATOM      7  O   UNL     1       3.322   3.454  16.693  0.00  0.00    +0.000 OA
ENDROOT
BRANCH   1   8
ATOM      8  C   UNL     1       7.480   4.919  17.557  0.00  0.00    +0.000 C 
ATOM      9  O   UNL     1       8.268   4.348  18.304  0.00  0.00    +0.000 OA
BRANCH   8  11
ATOM     10  C   UNL     1       7.979   7.093  18.337  0.00  0.00    +0.000 C 
ATOM     11  O   UNL     1       7.054   6.204  17.704  0.00  0.00    +0.000 OA
ENDBRANCH   8  11
ENDBRANCH   1   8
BRANCH   3  12
ATOM     12  O   UNL     1       6.805   3.727  13.264  0.00  0.00    +0.000 OA
ATOM     13  C   UNL     1       5.914   3.244  12.262  0.00  0.00    +0.000 C 
ENDBRANCH   3  12
BRANCH   6  14
ATOM     14  C   UNL     1       4.807   3.581  18.551  0.00  0.00    +0.000 C 
BRANCH  14  15
ATOM     15  C   UNL     1       3.655   3.734  19.511  0.00  0.00    +0.000 A 
ATOM     16  C   UNL     1       3.221   2.628  20.256  0.00  0.00    +0.000 A 
ATOM     17  C   UNL     1       2.172   2.748  21.164  0.00  0.00    +0.000 A 
ATOM     18  C   UNL     1       1.556   3.983  21.361  0.00  0.00    +0.000 A 
ATOM     19  C   UNL     1       2.003   5.110  20.665  0.00  0.00    +0.000 A 
ATOM     20  C   UNL     1       1.381   6.458  20.884  0.00  0.00    +0.000 C 
ATOM     21  C   UNL     1       3.055   4.978  19.752  0.00  0.00    +0.000 A 
ENDBRANCH  14  15
ENDBRANCH   6  14
TORSDOF 5
ENDMDL
MODEL 7
REMARK VINA RESULT:      -6.7      1.969      6.096
REMARK  Name = 
REMARK  8 active torsions:
REMARK  status: ('A' for Active; 'I' for Inactive)
REMARK    1  A    between atoms: C_1  and  O_2
REMARK    2  A    between atoms: O_2  and  C_3
REMARK    3  A    between atoms: C_3  and  C_5
REMARK    4  A    between atoms: C_7  and  O_8
REMARK    5  A    between atoms: O_8  and  C_9
REMARK    6  A    between atoms: C_12  and  C_14
REMARK    7  A    between atoms: C_14  and  C_15
REMARK    8  A    between atoms: C_19  and  C_20
REMARK                            x       y       z     vdW  Elec       q    Type
REMARK                         _______ _______ _______ _____ _____    ______ ____
ROOT
ATOM      1  C   UNL     1       4.146   5.266  18.608  0.00  0.00    +0.000 C 
ATOM      2  C   UNL     1       2.727   5.374  19.187  0.00  0.00    +0.000 C 
ATOM      3  C   UNL     1       2.261   6.770  18.785  0.00  0.00    +0.000 C 
ATOM      4  C   UNL     1       3.025   7.054  17.487  0.00  0.00    +0.000 C 
ATOM      5  N   UNL     1       4.015   5.995  17.338  0.00  0.00    +0.000 N 
ATOM      6  C   UNL     1       4.944   6.141  16.328  0.00  0.00    +0.000 C 
ATOM      7  O   UNL     1       4.870   7.086  15.534  0.00  0.00    +0.000 OA
ENDROOT
BRANCH   1   8
ATOM      8  C   UNL     1       4.503   3.782  18.556  0.00  0.00    +0.000 C 
ATOM      9  O   UNL     1       5.419   3.258  19.180  0.00  0.00    +0.000 OA
BRANCH   8  11
ATOM     10  C   UNL     1       3.398   1.756  18.055  0.00  0.00    +0.000 C 
ATOM     11  O   UNL     1       3.643   3.126  17.728  0.00  0.00    +0.000 OA
ENDBRANCH   8  11
ENDBRANCH   1   8
BRANCH   3  12
ATOM     12  O   UNL     1       2.616   7.669  19.841  0.00  0.00    +0.000 OA
ATOM     13  C   UNL     1       1.516   7.974  20.694  0.00  0.00    +0.000 C 
ENDBRANCH   3  12
BRANCH   6  14
ATOM     14  C   UNL     1       6.039   5.103  16.144  0.00  0.00    +0.000 C 
BRANCH  14  15
ATOM     15  C   UNL     1       6.411   4.804  14.714  0.00  0.00    +0.000 A 
ATOM     16  C   UNL     1       7.568   5.374  14.164  0.00  0.00    +0.000 A 
ATOM     17  C   UNL     1       7.944   5.098  12.852  0.00  0.00    +0.000 A 
ATOM     18  C   UNL     1       7.181   4.226  12.075  0.00  0.00    +0.000 A 
ATOM     19  C   UNL     1       6.050   3.609  12.617  0.00  0.00    +0.000 A 
ATOM     20  C   UNL     1       5.232   2.639  11.815  0.00  0.00    +0.000 C 
ATOM     21  C   UNL     1       5.679   3.896  13.936  0.00  0.00    +0.000 A 
ENDBRANCH  14  15
ENDBRANCH   6  14
TORSDOF 5
ENDMDL
MODEL 8
REMARK VINA RESULT:      -6.6      2.376      4.789
REMARK  Name = 
REMARK  8 active torsions:
REMARK  status: ('A' for Active; 'I' for Inactive)
REMARK    1  A    between atoms: C_1  and  O_2
REMARK    2  A    between atoms: O_2  and  C_3
REMARK    3  A    between atoms: C_3  and  C_5
REMARK    4  A    between atoms: C_7  and  O_8
REMARK    5  A    between atoms: O_8  and  C_9
REMARK    6  A    between atoms: C_12  and  C_14
REMARK    7  A    between atoms: C_14  and  C_15
REMARK    8  A    between atoms: C_19  and  C_20
REMARK                            x       y       z     vdW  Elec       q    Type
REMARK                         _______ _______ _______ _____ _____    ______ ____
ROOT
ATOM      1  C   UNL     1       4.233   4.154  19.621  0.00  0.00    +0.000 C 
ATOM      2  C   UNL     1       4.589   2.685  19.897  0.00  0.00    +0.000 C 
ATOM      3  C   UNL     1       3.240   1.977  19.964  0.00  0.00    +0.000 C 
ATOM      4  C   UNL     1       2.338   2.816  19.052  0.00  0.00    +0.000 C 
ATOM      5  N   UNL     1       3.079   4.025  18.720  0.00  0.00    +0.000 N 
ATOM      6  C   UNL     1       2.394   5.019  18.050  0.00  0.00    +0.000 C 
ATOM      7  O   UNL     1       1.231   4.838  17.672  0.00  0.00    +0.000 OA
ENDROOT
BRANCH   1   8
ATOM      8  C   UNL     1       5.494   4.832  19.089  0.00  0.00    +0.000 C 
ATOM      9  O   UNL     1       6.102   5.731  19.660  0.00  0.00    +0.000 OA
BRANCH   8  11
ATOM     10  C   UNL     1       7.130   4.674  17.392  0.00  0.00    +0.000 C 
ATOM     11  O   UNL     1       5.850   4.281  17.895  0.00  0.00    +0.000 OA
ENDBRANCH   8  11
ENDBRANCH   1   8
BRANCH   3  12
ATOM     12  O   UNL     1       2.808   1.990  21.328  0.00  0.00    +0.000 OA
ATOM     13  C   UNL     1       1.523   2.584  21.491  0.00  0.00    +0.000 C 
ENDBRANCH   3  12
BRANCH   6  14
ATOM     14  C   UNL     1       3.086   6.330  17.716  0.00  0.00    +0.000 C 
BRANCH  14  15
ATOM     15  C   UNL     1       2.469   7.560  18.332  0.00  0.00    +0.000 A 
ATOM     16  C   UNL     1       2.228   8.689  17.537  0.00  0.00    +0.000 A 
ATOM     17  C   UNL     1       1.641   9.829  18.078  0.00  0.00    +0.000 A 
ATOM     18  C   UNL     1       1.261   9.851  19.419  0.00  0.00    +0.000 A 
ATOM     19  C   UNL     1       1.448   8.721  20.220  0.00  0.00    +0.000 A 
ATOM     20  C   UNL     1       1.016   8.705  21.657  0.00  0.00    +0.000 C 
ATOM     21  C   UNL     1       2.042   7.580  19.668  0.00  0.00    +0.000 A 
ENDBRANCH  14  15
ENDBRANCH   6  14
TORSDOF 5
ENDMDL
MODEL 9
REMARK VINA RESULT:      -6.6      2.123      3.586
REMARK  Name = 
REMARK  8 active torsions:
REMARK  status: ('A' for Active; 'I' for Inactive)
REMARK    1  A    between atoms: C_1  and  O_2
REMARK    2  A    between atoms: O_2  and  C_3
REMARK    3  A    between atoms: C_3  and  C_5
REMARK    4  A    between atoms: C_7  and  O_8
REMARK    5  A    between atoms: O_8  and  C_9
REMARK    6  A    between atoms: C_12  and  C_14
REMARK    7  A    between atoms: C_14  and  C_15
REMARK    8  A    between atoms: C_19  and  C_20
REMARK                            x       y       z     vdW  Elec       q    Type
REMARK                         _______ _______ _______ _____ _____    ______ ____
ROOT
ATOM      1  C   UNL     1       4.431   4.240  16.768  0.00  0.00    +0.000 C 
ATOM      2  C   UNL     1       5.372   3.541  15.775  0.00  0.00    +0.000 C 
ATOM      3  C   UNL     1       6.691   4.293  15.911  0.00  0.00    +0.000 C 
ATOM      4  C   UNL     1       6.677   4.801  17.357  0.00  0.00    +0.000 C 
ATOM      5  N   UNL     1       5.340   4.555  17.880  0.00  0.00    +0.000 N 
ATOM      6  C   UNL     1       5.037   5.095  19.114  0.00  0.00    +0.000 C 
ATOM      7  O   UNL     1       5.902   5.679  19.776  0.00  0.00    +0.000 OA
ENDROOT
BRANCH   1   8
ATOM      8  C   UNL     1       3.266   3.289  17.034  0.00  0.00    +0.000 C 
ATOM      9  O   UNL     1       2.086   3.549  16.827  0.00  0.00    +0.000 OA
BRANCH   8  11
ATOM     10  C   UNL     1       3.020   1.573  18.638  0.00  0.00    +0.000 C 
ATOM     11  O   UNL     1       3.733   2.105  17.519  0.00  0.00    +0.000 OA
ENDBRANCH   8  11
ENDBRANCH   1   8
BRANCH   3  12
ATOM     12  O   UNL     1       6.688   5.357  14.954  0.00  0.00    +0.000 OA
ATOM     13  C   UNL     1       7.222   4.963  13.694  0.00  0.00    +0.000 C 
ENDBRANCH   3  12
BRANCH   6  14
ATOM     14  C   UNL     1       3.645   4.924  19.700  0.00  0.00    +0.000 C 
BRANCH  14  15
ATOM     15  C   UNL     1       2.805   6.175  19.739  0.00  0.00    +0.000 A 
ATOM     16  C   UNL     1       2.044   6.464  20.881  0.00  0.00    +0.000 A 
ATOM     17  C   UNL     1       1.275   7.623  20.950  0.00  0.00    +0.000 A 
ATOM     18  C   UNL     1       1.276   8.526  19.887  0.00  0.00    +0.000 A 
ATOM     19  C   UNL     1       2.064   8.283  18.759  0.00  0.00    +0.000 A 
ATOM     20  C   UNL     1       2.109   9.256  17.617  0.00  0.00    +0.000 C 
ATOM     21  C   UNL     1       2.830   7.113  18.698  0.00  0.00    +0.000 A 
ENDBRANCH  14  15
ENDBRANCH   6  14
TORSDOF 5
ENDMDL
