MODEL 1
REMARK VINA RESULT:      -8.8      0.000      0.000
REMARK  Name = 
REMARK  9 active torsions:
REMARK  status: ('A' for Active; 'I' for Inactive)
REMARK    1  A    between atoms: C_1  and  O_2
REMARK    2  A    between atoms: O_2  and  C_3
REMARK    3  A    between atoms: C_6  and  C_7
REMARK    4  A    between atoms: C_7  and  N_8
REMARK    5  A    between atoms: C_9  and  C_11
REMARK    6  A    between atoms: C_11  and  O_12
REMARK    7  A    between atoms: O_12  and  C_13
REMARK    8  A    between atoms: C_13  and  C_15
REMARK    9  A    between atoms: C_15  and  N_16
REMARK                            x       y       z     vdW  Elec       q    Type
REMARK                         _______ _______ _______ _____ _____    ______ ____
ROOT
ATOM      1  O   UNL     1       6.834   5.281  18.577  0.00  0.00    +0.000 OA
ENDROOT
BRANCH   1   2
ATOM      2  C   UNL     1       7.033   4.538  17.453  0.00  0.00    +0.000 C 
ATOM      3  O   UNL     1       8.132   4.130  17.086  0.00  0.00    +0.000 OA
BRANCH   2   4
ATOM      4  C   UNL     1       5.749   4.333  16.674  0.00  0.00    +0.000 C 
BRANCH   4   5
ATOM      5  N   UNL     1       4.567   4.598  17.476  0.00  0.00    +0.000 N 
ATOM      6  C   UNL     1       3.929   5.793  17.554  0.00  0.00    +0.000 C 
ATOM      7  O   UNL     1       4.246   6.850  17.036  0.00  0.00    +0.000 OA
ATOM      8  N   UNL     1       2.796   5.634  18.324  0.00  0.00    +0.000 N 
ATOM      9  C   UNL     1       2.621   4.281  18.779  0.00  0.00    +0.000 C 
ATOM     10  C   UNL     1       2.560   4.178  20.304  0.00  0.00    +0.000 C 
ATOM     11  C   UNL     1       1.135   3.734  20.615  0.00  0.00    +0.000 C 
ATOM     12  C   UNL     1       0.746   2.882  19.421  0.00  0.00    +0.000 C 
ATOM     13  C   UNL     1       1.332   3.644  18.236  0.00  0.00    +0.000 C 
ATOM     14  C   UNL     1       3.886   3.642  18.177  0.00  0.00    +0.000 C 
ATOM     15  O   UNL     1       4.210   2.470  18.298  0.00  0.00    +0.000 OA
ATOM     16  H   UNL     1       2.164   6.408  18.499  0.00  0.00    +0.000 HD
ENDBRANCH   4   5
ENDBRANCH   2   4
ENDBRANCH   1   2
BRANCH   1  17
ATOM     17  C   UNL     1       7.884   6.212  18.846  0.00  0.00    +0.000 C 
BRANCH  17  19
ATOM     18  N   UNL     1       8.437   8.573  18.497  0.00  0.00    +0.000 N 
ATOM     19  C   UNL     1       7.808   7.467  17.965  0.00  0.00    +0.000 C 
ATOM     20  O   UNL     1       7.254   7.470  16.868  0.00  0.00    +0.000 OA
ATOM     21  H   UNL     1       8.864   8.516  19.411  0.00  0.00    +0.000 HD
BRANCH  18  22
ATOM     22  C   UNL     1       8.477   9.844  17.805  0.00  0.00    +0.000 C 
BRANCH  22  26
ATOM     23  C   UNL     1      10.699  12.925  19.895  0.00  0.00    +0.000 A 
ATOM     24  C   UNL     1      10.389  13.062  18.541  0.00  0.00    +0.000 A 
ATOM     25  C   UNL     1       9.672  12.068  17.868  0.00  0.00    +0.000 A 
ATOM     26  C   UNL     1       9.269  10.903  18.533  0.00  0.00    +0.000 A 
ATOM     27  C   UNL     1       9.607  10.760  19.889  0.00  0.00    +0.000 A 
ATOM     28  C   UNL     1      10.316  11.764  20.566  0.00  0.00    +0.000 A 
BRANCH  23  30
ATOM     29  C   UNL     1      10.614  15.036  20.957  0.00  0.00    +0.000 C 
ATOM     30  O   UNL     1      11.398  13.967  20.440  0.00  0.00    +0.000 OA
ENDBRANCH  23  30
ENDBRANCH  22  26
ENDBRANCH  18  22
ENDBRANCH  17  19
ENDBRANCH   1  17
TORSDOF 8
ENDMDL
MODEL 2
REMARK VINA RESULT:      -8.4      5.438      7.906
REMARK  Name = 
REMARK  9 active torsions:
REMARK  status: ('A' for Active; 'I' for Inactive)
REMARK    1  A    between atoms: C_1  and  O_2
REMARK    2  A    between atoms: O_2  and  C_3
REMARK    3  A    between atoms: C_6  and  C_7
REMARK    4  A    between atoms: C_7  and  N_8
REMARK    5  A    between atoms: C_9  and  C_11
REMARK    6  A    between atoms: C_11  and  O_12
REMARK    7  A    between atoms: O_12  and  C_13
REMARK    8  A    between atoms: C_13  and  C_15
REMARK    9  A    between atoms: C_15  and  N_16
REMARK                            x       y       z     vdW  Elec       q    Type
REMARK                         _______ _______ _______ _____ _____    ______ ____
ROOT
ATOM      1  O   UNL     1       1.197   4.336  20.584  0.00  0.00    +0.000 OA
ENDROOT
BRANCH   1   2
ATOM      2  C   UNL     1       1.581   3.054  20.842  0.00  0.00    +0.000 C 
ATOM      3  O   UNL     1       1.565   2.546  21.960  0.00  0.00    +0.000 OA
BRANCH   2   4
ATOM      4  C   UNL     1       2.094   2.355  19.599  0.00  0.00    +0.000 C 
BRANCH   4   5
ATOM      5  N   UNL     1       3.303   2.969  19.078  0.00  0.00    +0.000 N 
ATOM      6  C   UNL     1       4.555   2.756  19.555  0.00  0.00    +0.000 C 
ATOM      7  O   UNL     1       4.889   2.083  20.515  0.00  0.00    +0.000 OA
ATOM      8  N   UNL     1       5.451   3.424  18.747  0.00  0.00    +0.000 N 
ATOM      9  C   UNL     1       4.809   4.106  17.656  0.00  0.00    +0.000 C 
ATOM     10  C   UNL     1       5.094   5.609  17.655  0.00  0.00    +0.000 C 
ATOM     11  C   UNL     1       5.934   5.854  16.406  0.00  0.00    +0.000 C 
ATOM     12  C   UNL     1       5.441   4.808  15.421  0.00  0.00    +0.000 C 
ATOM     13  C   UNL     1       5.255   3.566  16.287  0.00  0.00    +0.000 C 
ATOM     14  C   UNL     1       3.341   3.766  17.967  0.00  0.00    +0.000 C 
ATOM     15  O   UNL     1       2.377   4.138  17.315  0.00  0.00    +0.000 OA
ATOM     16  H   UNL     1       6.450   3.385  18.922  0.00  0.00    +0.000 HD
ENDBRANCH   4   5
ENDBRANCH   2   4
ENDBRANCH   1   2
BRANCH   1  17
ATOM     17  C   UNL     1       2.100   5.322  21.089  0.00  0.00    +0.000 C 
BRANCH  17  19
ATOM     18  N   UNL     1       1.345   7.650  20.982  0.00  0.00    +0.000 N 
ATOM     19  C   UNL     1       2.024   6.649  20.320  0.00  0.00    +0.000 C 
ATOM     20  O   UNL     1       2.551   6.805  19.221  0.00  0.00    +0.000 OA
ATOM     21  H   UNL     1       0.919   7.459  21.878  0.00  0.00    +0.000 HD
BRANCH  18  22
ATOM     22  C   UNL     1       1.179   8.972  20.417  0.00  0.00    +0.000 C 
BRANCH  22  26
ATOM     23  C   UNL     1      -1.501  11.505  22.697  0.00  0.00    +0.000 A 
ATOM     24  C   UNL     1      -0.972  10.341  23.255  0.00  0.00    +0.000 A 
ATOM     25  C   UNL     1      -0.108   9.525  22.519  0.00  0.00    +0.000 A 
ATOM     26  C   UNL     1       0.228   9.847  21.198  0.00  0.00    +0.000 A 
ATOM     27  C   UNL     1      -0.329  11.006  20.634  0.00  0.00    +0.000 A 
ATOM     28  C   UNL     1      -1.187  11.831  21.378  0.00  0.00    +0.000 A 
BRANCH  23  30
ATOM     29  C   UNL     1      -2.623  13.548  23.098  0.00  0.00    +0.000 C 
ATOM     30  O   UNL     1      -2.328  12.221  23.519  0.00  0.00    +0.000 OA
ENDBRANCH  23  30
ENDBRANCH  22  26
ENDBRANCH  18  22
ENDBRANCH  17  19
ENDBRANCH   1  17
TORSDOF 8
ENDMDL
MODEL 3
REMARK VINA RESULT:      -8.4      1.654      2.251
REMARK  Name = 
REMARK  9 active torsions:
REMARK  status: ('A' for Active; 'I' for Inactive)
REMARK    1  A    between atoms: C_1  and  O_2
REMARK    2  A    between atoms: O_2  and  C_3
REMARK    3  A    between atoms: C_6  and  C_7
REMARK    4  A    between atoms: C_7  and  N_8
REMARK    5  A    between atoms: C_9  and  C_11
REMARK    6  A    between atoms: C_11  and  O_12
REMARK    7  A    between atoms: O_12  and  C_13
REMARK    8  A    between atoms: C_13  and  C_15
REMARK    9  A    between atoms: C_15  and  N_16
REMARK                            x       y       z     vdW  Elec       q    Type
REMARK                         _______ _______ _______ _____ _____    ______ ____
ROOT
ATOM      1  O   UNL     1       7.140   6.438  16.507  0.00  0.00    +0.000 OA
ENDROOT
BRANCH   1   2
ATOM      2  C   UNL     1       5.965   5.792  16.265  0.00  0.00    +0.000 C 
ATOM      3  O   UNL     1       4.994   6.314  15.722  0.00  0.00    +0.000 OA
BRANCH   2   4
ATOM      4  C   UNL     1       5.974   4.376  16.807  0.00  0.00    +0.000 C 
BRANCH   4   5
ATOM      5  N   UNL     1       5.129   4.227  17.979  0.00  0.00    +0.000 N 
ATOM      6  C   UNL     1       5.446   4.647  19.229  0.00  0.00    +0.000 C 
ATOM      7  O   UNL     1       6.486   5.157  19.610  0.00  0.00    +0.000 OA
ATOM      8  N   UNL     1       4.361   4.428  20.053  0.00  0.00    +0.000 N 
ATOM      9  C   UNL     1       3.241   3.860  19.352  0.00  0.00    +0.000 C 
ATOM     10  C   UNL     1       2.798   2.520  19.943  0.00  0.00    +0.000 C 
ATOM     11  C   UNL     1       1.414   2.783  20.528  0.00  0.00    +0.000 C 
ATOM     12  C   UNL     1       0.830   3.854  19.625  0.00  0.00    +0.000 C 
ATOM     13  C   UNL     1       2.012   4.784  19.368  0.00  0.00    +0.000 C 
ATOM     14  C   UNL     1       3.855   3.731  17.946  0.00  0.00    +0.000 C 
ATOM     15  O   UNL     1       3.285   3.274  16.967  0.00  0.00    +0.000 OA
ATOM     16  H   UNL     1       4.383   4.686  21.034  0.00  0.00    +0.000 HD
ENDBRANCH   4   5
ENDBRANCH   2   4
ENDBRANCH   1   2
BRANCH   1  17
ATOM     17  C   UNL     1       6.976   7.759  17.027  0.00  0.00    +0.000 C 
BRANCH  17  19
ATOM     18  N   UNL     1       8.307   9.462  18.181  0.00  0.00    +0.000 N 
ATOM     19  C   UNL     1       8.025   8.115  18.090  0.00  0.00    +0.000 C 
ATOM     20  O   UNL     1       8.543   7.268  18.814  0.00  0.00    +0.000 OA
ATOM     21  H   UNL     1       7.859  10.111  17.548  0.00  0.00    +0.000 HD
BRANCH  18  22
ATOM     22  C   UNL     1       9.262   9.987  19.132  0.00  0.00    +0.000 C 
BRANCH  22  26
ATOM     23  C   UNL     1      11.232  13.599  17.766  0.00  0.00    +0.000 A 
ATOM     24  C   UNL     1      11.932  12.637  18.496  0.00  0.00    +0.000 A 
ATOM     25  C   UNL     1      11.296  11.472  18.935  0.00  0.00    +0.000 A 
ATOM     26  C   UNL     1       9.937  11.257  18.672  0.00  0.00    +0.000 A 
ATOM     27  C   UNL     1       9.233  12.241  17.960  0.00  0.00    +0.000 A 
ATOM     28  C   UNL     1       9.876  13.404  17.509  0.00  0.00    +0.000 A 
BRANCH  23  30
ATOM     29  C   UNL     1      11.228  15.770  16.829  0.00  0.00    +0.000 C 
ATOM     30  O   UNL     1      11.967  14.690  17.388  0.00  0.00    +0.000 OA
ENDBRANCH  23  30
ENDBRANCH  22  26
ENDBRANCH  18  22
ENDBRANCH  17  19
ENDBRANCH   1  17
TORSDOF 8
ENDMDL
MODEL 4
REMARK VINA RESULT:      -8.0      4.909      7.334
REMARK  Name = 
REMARK  9 active torsions:
REMARK  status: ('A' for Active; 'I' for Inactive)
REMARK    1  A    between atoms: C_1  and  O_2
REMARK    2  A    between atoms: O_2  and  C_3
REMARK    3  A    between atoms: C_6  and  C_7
REMARK    4  A    between atoms: C_7  and  N_8
REMARK    5  A    between atoms: C_9  and  C_11
REMARK    6  A    between atoms: C_11  and  O_12
REMARK    7  A    between atoms: O_12  and  C_13
REMARK    8  A    between atoms: C_13  and  C_15
REMARK    9  A    between atoms: C_15  and  N_16
REMARK                            x       y       z     vdW  Elec       q    Type
REMARK                         _______ _______ _______ _____ _____    ______ ____
ROOT
ATOM      1  O   UNL     1       1.818   2.474  20.164  0.00  0.00    +0.000 OA
ENDROOT
BRANCH   1   2
ATOM      2  C   UNL     1       2.840   2.714  21.033  0.00  0.00    +0.000 C 
ATOM      3  O   UNL     1       2.703   3.288  22.110  0.00  0.00    +0.000 OA
BRANCH   2   4
ATOM      4  C   UNL     1       4.174   2.252  20.481  0.00  0.00    +0.000 C 
BRANCH   4   5
ATOM      5  N   UNL     1       4.503   2.891  19.219  0.00  0.00    +0.000 N 
ATOM      6  C   UNL     1       4.028   2.515  18.006  0.00  0.00    +0.000 C 
ATOM      7  O   UNL     1       3.308   1.566  17.741  0.00  0.00    +0.000 OA
ATOM      8  N   UNL     1       4.474   3.415  17.062  0.00  0.00    +0.000 N 
ATOM      9  C   UNL     1       5.267   4.470  17.635  0.00  0.00    +0.000 C 
ATOM     10  C   UNL     1       6.671   4.541  17.033  0.00  0.00    +0.000 C 
ATOM     11  C   UNL     1       6.711   5.864  16.274  0.00  0.00    +0.000 C 
ATOM     12  C   UNL     1       5.788   6.770  17.067  0.00  0.00    +0.000 C 
ATOM     13  C   UNL     1       4.626   5.854  17.441  0.00  0.00    +0.000 C 
ATOM     14  C   UNL     1       5.259   4.025  19.109  0.00  0.00    +0.000 C 
ATOM     15  O   UNL     1       5.825   4.605  20.024  0.00  0.00    +0.000 OA
ATOM     16  H   UNL     1       4.220   3.325  16.084  0.00  0.00    +0.000 HD
ENDBRANCH   4   5
ENDBRANCH   2   4
ENDBRANCH   1   2
BRANCH   1  17
ATOM     17  C   UNL     1       0.868   3.538  20.081  0.00  0.00    +0.000 C 
BRANCH  17  19
ATOM     18  N   UNL     1       1.702   5.830  20.314  0.00  0.00    +0.000 N 
ATOM     19  C   UNL     1       1.447   4.803  19.430  0.00  0.00    +0.000 C 
ATOM     20  O   UNL     1       1.686   4.874  18.227  0.00  0.00    +0.000 OA
ATOM     21  H   UNL     1       1.471   5.719  21.292  0.00  0.00    +0.000 HD
BRANCH  18  22
ATOM     22  C   UNL     1       2.256   7.096  19.885  0.00  0.00    +0.000 C 
BRANCH  22  26
ATOM     23  C   UNL     1      -0.013  10.513  21.288  0.00  0.00    +0.000 A 
ATOM     24  C   UNL     1       0.364  10.408  19.949  0.00  0.00    +0.000 A 
ATOM     25  C   UNL     1       1.095   9.305  19.497  0.00  0.00    +0.000 A 
ATOM     26  C   UNL     1       1.484   8.294  20.384  0.00  0.00    +0.000 A 
ATOM     27  C   UNL     1       1.124   8.419  21.736  0.00  0.00    +0.000 A 
ATOM     28  C   UNL     1       0.379   9.520  22.185  0.00  0.00    +0.000 A 
BRANCH  23  30
ATOM     29  C   UNL     1      -1.272  11.673  22.920  0.00  0.00    +0.000 C 
ATOM     30  O   UNL     1      -0.731  11.635  21.604  0.00  0.00    +0.000 OA
ENDBRANCH  23  30
ENDBRANCH  22  26
ENDBRANCH  18  22
ENDBRANCH  17  19
ENDBRANCH   1  17
TORSDOF 8
ENDMDL
MODEL 5
REMARK VINA RESULT:      -7.9      5.496      7.524
REMARK  Name = 
REMARK  9 active torsions:
REMARK  status: ('A' for Active; 'I' for Inactive)
REMARK    1  A    between atoms: C_1  and  O_2
REMARK    2  A    between atoms: O_2  and  C_3
REMARK    3  A    between atoms: C_6  and  C_7
REMARK    4  A    between atoms: C_7  and  N_8
REMARK    5  A    between atoms: C_9  and  C_11
REMARK    6  A    between atoms: C_11  and  O_12
REMARK    7  A    between atoms: O_12  and  C_13
REMARK    8  A    between atoms: C_13  and  C_15
REMARK    9  A    between atoms: C_15  and  N_16
REMARK                            x       y       z     vdW  Elec       q    Type
REMARK                         _______ _______ _______ _____ _____    ______ ____
ROOT
ATOM      1  O   UNL     1       2.148   2.711  20.881  0.00  0.00    +0.000 OA
ENDROOT
BRANCH   1   2
ATOM      2  C   UNL     1       1.585   2.352  19.692  0.00  0.00    +0.000 C 
ATOM      3  O   UNL     1       0.391   2.478  19.434  0.00  0.00    +0.000 OA
BRANCH   2   4
ATOM      4  C   UNL     1       2.594   1.717  18.756  0.00  0.00    +0.000 C 
BRANCH   4   5
ATOM      5  N   UNL     1       3.639   2.644  18.357  0.00  0.00    +0.000 N 
ATOM      6  C   UNL     1       4.837   2.784  18.978  0.00  0.00    +0.000 C 
ATOM      7  O   UNL     1       5.231   2.226  19.988  0.00  0.00    +0.000 OA
ATOM      8  N   UNL     1       5.602   3.677  18.257  0.00  0.00    +0.000 N 
ATOM      9  C   UNL     1       4.928   4.159  17.081  0.00  0.00    +0.000 C 
ATOM     10  C   UNL     1       4.785   5.682  17.069  0.00  0.00    +0.000 C 
ATOM     11  C   UNL     1       5.664   6.154  15.916  0.00  0.00    +0.000 C 
ATOM     12  C   UNL     1       5.596   5.016  14.913  0.00  0.00    +0.000 C 
ATOM     13  C   UNL     1       5.660   3.768  15.787  0.00  0.00    +0.000 C 
ATOM     14  C   UNL     1       3.584   3.424  17.235  0.00  0.00    +0.000 C 
ATOM     15  O   UNL     1       2.637   3.516  16.469  0.00  0.00    +0.000 OA
ATOM     16  H   UNL     1       6.545   3.916  18.543  0.00  0.00    +0.000 HD
ENDBRANCH   4   5
ENDBRANCH   2   4
ENDBRANCH   1   2
BRANCH   1  17
ATOM     17  C   UNL     1       1.653   3.946  21.403  0.00  0.00    +0.000 C 
BRANCH  17  19
ATOM     18  N   UNL     1       1.503   6.312  20.786  0.00  0.00    +0.000 N 
ATOM     19  C   UNL     1       2.279   5.173  20.725  0.00  0.00    +0.000 C 
ATOM     20  O   UNL     1       3.389   5.141  20.199  0.00  0.00    +0.000 OA
ATOM     21  H   UNL     1       0.591   6.275  21.220  0.00  0.00    +0.000 HD
BRANCH  18  22
ATOM     22  C   UNL     1       1.933   7.568  20.210  0.00  0.00    +0.000 C 
BRANCH  22  26
ATOM     23  C   UNL     1      -0.354  10.988  21.577  0.00  0.00    +0.000 A 
ATOM     24  C   UNL     1      -0.195   9.865  22.390  0.00  0.00    +0.000 A 
ATOM     25  C   UNL     1       0.543   8.763  21.948  0.00  0.00    +0.000 A 
ATOM     26  C   UNL     1       1.120   8.754  20.672  0.00  0.00    +0.000 A 
ATOM     27  C   UNL     1       0.933   9.877  19.849  0.00  0.00    +0.000 A 
ATOM     28  C   UNL     1       0.203  10.987  20.299  0.00  0.00    +0.000 A 
BRANCH  23  30
ATOM     29  C   UNL     1      -1.979  11.628  23.171  0.00  0.00    +0.000 C 
ATOM     30  O   UNL     1      -1.091  12.003  22.125  0.00  0.00    +0.000 OA
ENDBRANCH  23  30
ENDBRANCH  22  26
ENDBRANCH  18  22
ENDBRANCH  17  19
ENDBRANCH   1  17
TORSDOF 8
ENDMDL
MODEL 6
REMARK VINA RESULT:      -7.9      5.395      8.754
REMARK  Name = 
REMARK  9 active torsions:
REMARK  status: ('A' for Active; 'I' for Inactive)
REMARK    1  A    between atoms: C_1  and  O_2
REMARK    2  A    between atoms: O_2  and  C_3
REMARK    3  A    between atoms: C_6  and  C_7
REMARK    4  A    between atoms: C_7  and  N_8
REMARK    5  A    between atoms: C_9  and  C_11
REMARK    6  A    between atoms: C_11  and  O_12
REMARK    7  A    between atoms: O_12  and  C_13
REMARK    8  A    between atoms: C_13  and  C_15
REMARK    9  A    between atoms: C_15  and  N_16
REMARK                            x       y       z     vdW  Elec       q    Type
REMARK                         _______ _______ _______ _____ _____    ______ ____
ROOT
ATOM      1  O   UNL     1       1.410   6.385  20.884  0.00  0.00    +0.000 OA
ENDROOT
BRANCH   1   2
ATOM      2  C   UNL     1       1.915   5.157  20.579  0.00  0.00    +0.000 C 
ATOM      3  O   UNL     1       2.434   4.406  21.402  0.00  0.00    +0.000 OA
BRANCH   2   4
ATOM      4  C   UNL     1       1.824   4.858  19.096  0.00  0.00    +0.000 C 
BRANCH   4   5
ATOM      5  N   UNL     1       3.076   4.357  18.554  0.00  0.00    +0.000 N 
ATOM      6  C   UNL     1       3.450   3.054  18.532  0.00  0.00    +0.000 C 
ATOM      7  O   UNL     1       2.861   2.094  18.998  0.00  0.00    +0.000 OA
ATOM      8  N   UNL     1       4.645   2.954  17.850  0.00  0.00    +0.000 N 
ATOM      9  C   UNL     1       5.109   4.224  17.359  0.00  0.00    +0.000 C 
ATOM     10  C   UNL     1       6.497   4.587  17.890  0.00  0.00    +0.000 C 
ATOM     11  C   UNL     1       7.409   4.561  16.668  0.00  0.00    +0.000 C 
ATOM     12  C   UNL     1       6.504   4.983  15.525  0.00  0.00    +0.000 C 
ATOM     13  C   UNL     1       5.194   4.260  15.824  0.00  0.00    +0.000 C 
ATOM     14  C   UNL     1       3.993   5.134  17.903  0.00  0.00    +0.000 C 
ATOM     15  O   UNL     1       3.937   6.346  17.758  0.00  0.00    +0.000 OA
ATOM     16  H   UNL     1       5.097   2.057  17.706  0.00  0.00    +0.000 HD
ENDBRANCH   4   5
ENDBRANCH   2   4
ENDBRANCH   1   2
BRANCH   1  17
ATOM     17  C   UNL     1       1.955   7.445  20.095  0.00  0.00    +0.000 C 
BRANCH  17  19
ATOM     18  N   UNL     1       1.227   9.597  19.176  0.00  0.00    +0.000 N 
ATOM     19  C   UNL     1       1.205   8.772  20.281  0.00  0.00    +0.000 C 
ATOM     20  O   UNL     1       0.614   9.055  21.321  0.00  0.00    +0.000 OA
ATOM     21  H   UNL     1       1.743   9.317  18.352  0.00  0.00    +0.000 HD
BRANCH  18  22
ATOM     22  C   UNL     1       0.567  10.884  19.161  0.00  0.00    +0.000 C 
BRANCH  22  26
ATOM     23  C   UNL     1      -3.434  10.812  17.493  0.00  0.00    +0.000 A 
ATOM     24  C   UNL     1      -3.103  11.703  18.515  0.00  0.00    +0.000 A 
ATOM     25  C   UNL     1      -1.812  11.726  19.051  0.00  0.00    +0.000 A 
ATOM     26  C   UNL     1      -0.831  10.839  18.591  0.00  0.00    +0.000 A 
ATOM     27  C   UNL     1      -1.179   9.927  17.581  0.00  0.00    +0.000 A 
ATOM     28  C   UNL     1      -2.472   9.915  17.035  0.00  0.00    +0.000 A 
BRANCH  23  30
ATOM     29  C   UNL     1      -5.654  11.493  17.944  0.00  0.00    +0.000 C 
ATOM     30  O   UNL     1      -4.726  10.892  17.048  0.00  0.00    +0.000 OA
ENDBRANCH  23  30
ENDBRANCH  22  26
ENDBRANCH  18  22
ENDBRANCH  17  19
ENDBRANCH   1  17
TORSDOF 8
ENDMDL
MODEL 7
REMARK VINA RESULT:      -7.9      5.101      7.896
REMARK  Name = 
REMARK  9 active torsions:
REMARK  status: ('A' for Active; 'I' for Inactive)
REMARK    1  A    between atoms: C_1  and  O_2
REMARK    2  A    between atoms: O_2  and  C_3
REMARK    3  A    between atoms: C_6  and  C_7
REMARK    4  A    between atoms: C_7  and  N_8
REMARK    5  A    between atoms: C_9  and  C_11
REMARK    6  A    between atoms: C_11  and  O_12
REMARK    7  A    between atoms: O_12  and  C_13
REMARK    8  A    between atoms: C_13  and  C_15
REMARK    9  A    between atoms: C_15  and  N_16
REMARK                            x       y       z     vdW  Elec       q    Type
REMARK                         _______ _______ _______ _____ _____    ______ ____
ROOT
ATOM      1  O   UNL     1       4.265   7.078  17.609  0.00  0.00    +0.000 OA
ENDROOT
BRANCH   1   2
ATOM      2  C   UNL     1       4.939   6.523  16.562  0.00  0.00    +0.000 C 
ATOM      3  O   UNL     1       5.643   7.163  15.785  0.00  0.00    +0.000 OA
BRANCH   2   4
ATOM      4  C   UNL     1       4.661   5.039  16.431  0.00  0.00    +0.000 C 
BRANCH   4   5
ATOM      5  N   UNL     1       4.334   4.422  17.705  0.00  0.00    +0.000 N 
ATOM      6  C   UNL     1       5.232   4.102  18.670  0.00  0.00    +0.000 C 
ATOM      7  O   UNL     1       6.446   4.209  18.634  0.00  0.00    +0.000 OA
ATOM      8  N   UNL     1       4.544   3.635  19.770  0.00  0.00    +0.000 N 
ATOM      9  C   UNL     1       3.119   3.650  19.578  0.00  0.00    +0.000 C 
ATOM     10  C   UNL     1       2.489   2.266  19.741  0.00  0.00    +0.000 C 
ATOM     11  C   UNL     1       1.627   2.367  20.995  0.00  0.00    +0.000 C 
ATOM     12  C   UNL     1       1.165   3.813  21.008  0.00  0.00    +0.000 C 
ATOM     13  C   UNL     1       2.406   4.585  20.570  0.00  0.00    +0.000 C 
ATOM     14  C   UNL     1       3.059   4.179  18.134  0.00  0.00    +0.000 C 
ATOM     15  O   UNL     1       2.036   4.362  17.491  0.00  0.00    +0.000 OA
ATOM     16  H   UNL     1       5.029   3.351  20.615  0.00  0.00    +0.000 HD
ENDBRANCH   4   5
ENDBRANCH   2   4
ENDBRANCH   1   2
BRANCH   1  17
ATOM     17  C   UNL     1       3.093   7.798  17.224  0.00  0.00    +0.000 C 
BRANCH  17  19
ATOM     18  N   UNL     1       1.490   9.377  18.193  0.00  0.00    +0.000 N 
ATOM     19  C   UNL     1       2.251   8.251  18.426  0.00  0.00    +0.000 C 
ATOM     20  O   UNL     1       2.241   7.639  19.491  0.00  0.00    +0.000 OA
ATOM     21  H   UNL     1       1.550   9.848  17.300  0.00  0.00    +0.000 HD
BRANCH  18  22
ATOM     22  C   UNL     1       0.626   9.946  19.205  0.00  0.00    +0.000 C 
BRANCH  22  26
ATOM     23  C   UNL     1      -3.193  11.305  17.669  0.00  0.00    +0.000 A 
ATOM     24  C   UNL     1      -2.447  10.348  16.980  0.00  0.00    +0.000 A 
ATOM     25  C   UNL     1      -1.216   9.909  17.477  0.00  0.00    +0.000 A 
ATOM     26  C   UNL     1      -0.694  10.439  18.664  0.00  0.00    +0.000 A 
ATOM     27  C   UNL     1      -1.439  11.422  19.338  0.00  0.00    +0.000 A 
ATOM     28  C   UNL     1      -2.680  11.851  18.844  0.00  0.00    +0.000 A 
BRANCH  23  30
ATOM     29  C   UNL     1      -5.555  11.228  17.774  0.00  0.00    +0.000 C 
ATOM     30  O   UNL     1      -4.383  11.646  17.084  0.00  0.00    +0.000 OA
ENDBRANCH  23  30
ENDBRANCH  22  26
ENDBRANCH  18  22
ENDBRANCH  17  19
ENDBRANCH   1  17
TORSDOF 8
ENDMDL
MODEL 8
REMARK VINA RESULT:      -7.8      1.350      1.740
REMARK  Name = 
REMARK  9 active torsions:
REMARK  status: ('A' for Active; 'I' for Inactive)
REMARK    1  A    between atoms: C_1  and  O_2
REMARK    2  A    between atoms: O_2  and  C_3
REMARK    3  A    between atoms: C_6  and  C_7
REMARK    4  A    between atoms: C_7  and  N_8
REMARK    5  A    between atoms: C_9  and  C_11
REMARK    6  A    between atoms: C_11  and  O_12
REMARK    7  A    between atoms: O_12  and  C_13
REMARK    8  A    between atoms: C_13  and  C_15
REMARK    9  A    between atoms: C_15  and  N_16
REMARK                            x       y       z     vdW  Elec       q    Type
REMARK                         _______ _______ _______ _____ _____    ______ ____
ROOT
ATOM      1  O   UNL     1       7.520   6.000  16.802  0.00  0.00    +0.000 OA
ENDROOT
BRANCH   1   2
ATOM      2  C   UNL     1       6.307   5.403  16.976  0.00  0.00    +0.000 C 
ATOM      3  O   UNL     1       5.623   4.961  16.056  0.00  0.00    +0.000 OA
BRANCH   2   4
ATOM      4  C   UNL     1       5.874   5.411  18.429  0.00  0.00    +0.000 C 
BRANCH   4   5
ATOM      5  N   UNL     1       4.440   5.228  18.580  0.00  0.00    +0.000 N 
ATOM      6  C   UNL     1       3.496   6.130  18.216  0.00  0.00    +0.000 C 
ATOM      7  O   UNL     1       3.660   7.251  17.765  0.00  0.00    +0.000 OA
ATOM      8  N   UNL     1       2.253   5.567  18.413  0.00  0.00    +0.000 N 
ATOM      9  C   UNL     1       2.330   4.218  18.908  0.00  0.00    +0.000 C 
ATOM     10  C   UNL     1       1.609   4.042  20.246  0.00  0.00    +0.000 C 
ATOM     11  C   UNL     1       0.426   3.128  19.942  0.00  0.00    +0.000 C 
ATOM     12  C   UNL     1       0.927   2.241  18.817  0.00  0.00    +0.000 C 
ATOM     13  C   UNL     1       1.715   3.201  17.932  0.00  0.00    +0.000 C 
ATOM     14  C   UNL     1       3.858   4.071  19.017  0.00  0.00    +0.000 C 
ATOM     15  O   UNL     1       4.444   3.076  19.416  0.00  0.00    +0.000 OA
ATOM     16  H   UNL     1       1.402   6.072  18.190  0.00  0.00    +0.000 HD
ENDBRANCH   4   5
ENDBRANCH   2   4
ENDBRANCH   1   2
BRANCH   1  17
ATOM     17  C   UNL     1       7.486   7.422  16.933  0.00  0.00    +0.000 C 
BRANCH  17  19
ATOM     18  N   UNL     1       8.436   9.287  18.207  0.00  0.00    +0.000 N 
ATOM     19  C   UNL     1       8.230   7.924  18.179  0.00  0.00    +0.000 C 
ATOM     20  O   UNL     1       8.582   7.170  19.084  0.00  0.00    +0.000 OA
ATOM     21  H   UNL     1       8.136   9.855  17.427  0.00  0.00    +0.000 HD
BRANCH  18  22
ATOM     22  C   UNL     1       9.111   9.942  19.307  0.00  0.00    +0.000 C 
BRANCH  22  26
ATOM     23  C   UNL     1      10.796  13.793  18.246  0.00  0.00    +0.000 A 
ATOM     24  C   UNL     1      11.366  13.018  19.257  0.00  0.00    +0.000 A 
ATOM     25  C   UNL     1      10.822  11.776  19.598  0.00  0.00    +0.000 A 
ATOM     26  C   UNL     1       9.680  11.293  18.948  0.00  0.00    +0.000 A 
ATOM     27  C   UNL     1       9.096  12.090  17.949  0.00  0.00    +0.000 A 
ATOM     28  C   UNL     1       9.650  13.331  17.600  0.00  0.00    +0.000 A 
BRANCH  23  30
ATOM     29  C   UNL     1      12.332  15.423  19.005  0.00  0.00    +0.000 C 
ATOM     30  O   UNL     1      11.423  14.984  18.002  0.00  0.00    +0.000 OA
ENDBRANCH  23  30
ENDBRANCH  22  26
ENDBRANCH  18  22
ENDBRANCH  17  19
ENDBRANCH   1  17
TORSDOF 8
ENDMDL
MODEL 9
REMARK VINA RESULT:      -7.8      5.037      8.235
REMARK  Name = 
REMARK  9 active torsions:
REMARK  status: ('A' for Active; 'I' for Inactive)
REMARK    1  A    between atoms: C_1  and  O_2
REMARK    2  A    between atoms: O_2  and  C_3
REMARK    3  A    between atoms: C_6  and  C_7
REMARK    4  A    between atoms: C_7  and  N_8
REMARK    5  A    between atoms: C_9  and  C_11
REMARK    6  A    between atoms: C_11  and  O_12
REMARK    7  A    between atoms: O_12  and  C_13
REMARK    8  A    between atoms: C_13  and  C_15
REMARK    9  A    between atoms: C_15  and  N_16
REMARK                            x       y       z     vdW  Elec       q    Type
REMARK                         _______ _______ _______ _____ _____    ______ ____
ROOT
ATOM      1  O   UNL     1       2.329   5.098  20.839  0.00  0.00    +0.000 OA
ENDROOT
BRANCH   1   2
ATOM      2  C   UNL     1       1.845   3.827  20.760  0.00  0.00    +0.000 C 
ATOM      3  O   UNL     1       1.222   3.273  21.663  0.00  0.00    +0.000 OA
BRANCH   2   4
ATOM      4  C   UNL     1       2.226   3.154  19.456  0.00  0.00    +0.000 C 
BRANCH   4   5
ATOM      5  N   UNL     1       3.535   3.569  18.981  0.00  0.00    +0.000 N 
ATOM      6  C   UNL     1       4.717   3.054  19.404  0.00  0.00    +0.000 C 
ATOM      7  O   UNL     1       4.906   2.221  20.273  0.00  0.00    +0.000 OA
ATOM      8  N   UNL     1       5.731   3.617  18.657  0.00  0.00    +0.000 N 
ATOM      9  C   UNL     1       5.242   4.536  17.664  0.00  0.00    +0.000 C 
ATOM     10  C   UNL     1       5.825   5.940  17.827  0.00  0.00    +0.000 C 
ATOM     11  C   UNL     1       6.699   6.153  16.596  0.00  0.00    +0.000 C 
ATOM     12  C   UNL     1       6.006   5.349  15.510  0.00  0.00    +0.000 C 
ATOM     13  C   UNL     1       5.570   4.078  16.234  0.00  0.00    +0.000 C 
ATOM     14  C   UNL     1       3.734   4.464  17.967  0.00  0.00    +0.000 C 
ATOM     15  O   UNL     1       2.867   5.095  17.383  0.00  0.00    +0.000 OA
ATOM     16  H   UNL     1       6.701   3.358  18.804  0.00  0.00    +0.000 HD
ENDBRANCH   4   5
ENDBRANCH   2   4
ENDBRANCH   1   2
BRANCH   1  17
ATOM     17  C   UNL     1       1.318   6.090  21.024  0.00  0.00    +0.000 C 
BRANCH  17  19
ATOM     18  N   UNL     1       0.860   8.475  20.697  0.00  0.00    +0.000 N 
ATOM     19  C   UNL     1       1.635   7.406  20.298  0.00  0.00    +0.000 C 
ATOM     20  O   UNL     1       2.525   7.496  19.456  0.00  0.00    +0.000 OA
ATOM     21  H   UNL     1       0.132   8.337  21.384  0.00  0.00    +0.000 HD
BRANCH  18  22
ATOM     22  C   UNL     1       1.022   9.797  20.131  0.00  0.00    +0.000 C 
BRANCH  22  26
ATOM     23  C   UNL     1      -2.400  11.038  17.776  0.00  0.00    +0.000 A 
ATOM     24  C   UNL     1      -1.525  10.059  17.303  0.00  0.00    +0.000 A 
ATOM     25  C   UNL     1      -0.423   9.659  18.063  0.00  0.00    +0.000 A 
ATOM     26  C   UNL     1      -0.159  10.249  19.306  0.00  0.00    +0.000 A 
ATOM     27  C   UNL     1      -1.029  11.252  19.764  0.00  0.00    +0.000 A 
ATOM     28  C   UNL     1      -2.142  11.644  19.005  0.00  0.00    +0.000 A 
BRANCH  23  30
ATOM     29  C   UNL     1      -3.233  11.062  15.563  0.00  0.00    +0.000 C 
ATOM     30  O   UNL     1      -3.443  11.338  16.943  0.00  0.00    +0.000 OA
ENDBRANCH  23  30
ENDBRANCH  22  26
ENDBRANCH  18  22
ENDBRANCH  17  19
ENDBRANCH   1  17
TORSDOF 8
ENDMDL
