MODEL 1
REMARK VINA RESULT:      -7.0      0.000      0.000
REMARK  Name = 
REMARK  6 active torsions:
REMARK  status: ('A' for Active; 'I' for Inactive)
REMARK    1  A    between atoms: C_1  and  C_2
REMARK    2  A    between atoms: C_2  and  C_3
REMARK    3  A    between atoms: C_3  and  C_4
REMARK    4  A    between atoms: C_7  and  C_8
REMARK    5  A    between atoms: C_11  and  C_12
REMARK    6  A    between atoms: C_12  and  O_14
REMARK                            x       y       z     vdW  Elec       q    Type
REMARK                         _______ _______ _______ _____ _____    ______ ____
ROOT
ATOM      1  C   UNL     1       2.644   7.347  18.521  0.00  0.00    +0.000 A 
ATOM      2  C   UNL     1       2.184   8.560  17.977  0.00  0.00    +0.000 A 
ATOM      3  C   UNL     1       1.421   9.458  18.725  0.00  0.00    +0.000 A 
ATOM      4  C   UNL     1       1.076   9.163  20.044  0.00  0.00    +0.000 A 
ATOM      5  C   UNL     1       1.486   7.947  20.600  0.00  0.00    +0.000 A 
ATOM      6  C   UNL     1       2.270   7.059  19.847  0.00  0.00    +0.000 A 
ENDROOT
BRANCH   1  10
ATOM      7  C   UNL     1       5.102   4.650  16.192  0.00  0.00    +0.000 A 
ATOM      8  C   UNL     1       4.031   4.172  16.949  0.00  0.00    +0.000 A 
ATOM      9  C   UNL     1       3.237   5.054  17.687  0.00  0.00    +0.000 A 
ATOM     10  C   UNL     1       3.497   6.436  17.723  0.00  0.00    +0.000 A 
ATOM     11  C   UNL     1       4.592   6.898  16.971  0.00  0.00    +0.000 A 
ATOM     12  C   UNL     1       5.380   6.020  16.215  0.00  0.00    +0.000 A 
BRANCH   7  13
ATOM     13  C   UNL     1       5.947   3.710  15.368  0.00  0.00    +0.000 C 
BRANCH  13  15
ATOM     14  C   UNL     1       5.911   3.564  12.821  0.00  0.00    +0.000 C 
ATOM     15  C   UNL     1       6.438   4.305  14.043  0.00  0.00    +0.000 C 
ENDBRANCH  13  15
ENDBRANCH   7  13
ENDBRANCH   1  10
BRANCH   4  16
ATOM     16  C   UNL     1       0.243  10.155  20.772  0.00  0.00    +0.000 C 
ATOM     17  O   UNL     1      -0.608  10.832  20.218  0.00  0.00    +0.000 OA
BRANCH  16  18
ATOM     18  O   UNL     1       0.533  10.280  22.084  0.00  0.00    +0.000 OA
ATOM     19  H   UNL     1       1.249   9.709  22.412  0.00  0.00    +0.000 HD
ENDBRANCH  16  18
ENDBRANCH   4  16
TORSDOF 5
ENDMDL
MODEL 2
REMARK VINA RESULT:      -7.0      0.210      1.614
REMARK  Name = 
REMARK  6 active torsions:
REMARK  status: ('A' for Active; 'I' for Inactive)
REMARK    1  A    between atoms: C_1  and  C_2
REMARK    2  A    between atoms: C_2  and  C_3
REMARK    3  A    between atoms: C_3  and  C_4
REMARK    4  A    between atoms: C_7  and  C_8
REMARK    5  A    between atoms: C_11  and  C_12
REMARK    6  A    between atoms: C_12  and  O_14
REMARK                            x       y       z     vdW  Elec       q    Type
REMARK                         _______ _______ _______ _____ _____    ______ ____
ROOT
ATOM      1  C   UNL     1       2.572   7.476  18.598  0.00  0.00    +0.000 A 
ATOM      2  C   UNL     1       2.268   7.229  19.949  0.00  0.00    +0.000 A 
ATOM      3  C   UNL     1       1.463   8.093  20.693  0.00  0.00    +0.000 A 
ATOM      4  C   UNL     1       0.947   9.252  20.111  0.00  0.00    +0.000 A 
ATOM      5  C   UNL     1       1.263   9.545  18.780  0.00  0.00    +0.000 A 
ATOM      6  C   UNL     1       2.057   8.660  18.035  0.00  0.00    +0.000 A 
ENDROOT
BRANCH   1  10
ATOM      7  C   UNL     1       4.980   4.702  16.308  0.00  0.00    +0.000 A 
ATOM      8  C   UNL     1       5.211   6.078  16.242  0.00  0.00    +0.000 A 
ATOM      9  C   UNL     1       4.435   6.963  16.996  0.00  0.00    +0.000 A 
ATOM     10  C   UNL     1       3.384   6.516  17.817  0.00  0.00    +0.000 A 
ATOM     11  C   UNL     1       3.151   5.129  17.856  0.00  0.00    +0.000 A 
ATOM     12  C   UNL     1       3.938   4.237  17.116  0.00  0.00    +0.000 A 
BRANCH   7  13
ATOM     13  C   UNL     1       5.832   3.737  15.522  0.00  0.00    +0.000 C 
BRANCH  13  15
ATOM     14  C   UNL     1       6.024   3.594  12.982  0.00  0.00    +0.000 C 
ATOM     15  C   UNL     1       6.442   4.332  14.247  0.00  0.00    +0.000 C 
ENDBRANCH  13  15
ENDBRANCH   7  13
ENDBRANCH   1  10
BRANCH   4  16
ATOM     16  C   UNL     1       0.117  10.137  20.968  0.00  0.00    +0.000 C 
ATOM     17  O   UNL     1      -0.879  10.707  20.554  0.00  0.00    +0.000 OA
BRANCH  16  18
ATOM     18  O   UNL     1       0.579  10.297  22.226  0.00  0.00    +0.000 OA
ATOM     19  H   UNL     1       1.547  10.322  22.319  0.00  0.00    +0.000 HD
ENDBRANCH  16  18
ENDBRANCH   4  16
TORSDOF 5
ENDMDL
MODEL 3
REMARK VINA RESULT:      -7.0      0.208      1.152
REMARK  Name = 
REMARK  6 active torsions:
REMARK  status: ('A' for Active; 'I' for Inactive)
REMARK    1  A    between atoms: C_1  and  C_2
REMARK    2  A    between atoms: C_2  and  C_3
REMARK    3  A    between atoms: C_3  and  C_4
REMARK    4  A    between atoms: C_7  and  C_8
REMARK    5  A    between atoms: C_11  and  C_12
REMARK    6  A    between atoms: C_12  and  O_14
REMARK                            x       y       z     vdW  Elec       q    Type
REMARK                         _______ _______ _______ _____ _____    ______ ____
ROOT
ATOM      1  C   UNL     1       2.604   7.525  18.546  0.00  0.00    +0.000 A 
ATOM      2  C   UNL     1       2.277   7.277  19.892  0.00  0.00    +0.000 A 
ATOM      3  C   UNL     1       1.459   8.141  20.621  0.00  0.00    +0.000 A 
ATOM      4  C   UNL     1       0.952   9.300  20.030  0.00  0.00    +0.000 A 
ATOM      5  C   UNL     1       1.291   9.593  18.705  0.00  0.00    +0.000 A 
ATOM      6  C   UNL     1       2.098   8.708  17.974  0.00  0.00    +0.000 A 
ENDROOT
BRANCH   1  10
ATOM      7  C   UNL     1       4.988   4.685  16.311  0.00  0.00    +0.000 A 
ATOM      8  C   UNL     1       3.947   4.256  17.137  0.00  0.00    +0.000 A 
ATOM      9  C   UNL     1       3.177   5.184  17.844  0.00  0.00    +0.000 A 
ATOM     10  C   UNL     1       3.431   6.565  17.779  0.00  0.00    +0.000 A 
ATOM     11  C   UNL     1       4.496   6.979  16.959  0.00  0.00    +0.000 A 
ATOM     12  C   UNL     1       5.259   6.055  16.234  0.00  0.00    +0.000 A 
BRANCH   7  13
ATOM     13  C   UNL     1       5.806   3.695  15.520  0.00  0.00    +0.000 C 
BRANCH  13  15
ATOM     14  C   UNL     1       6.121   3.634  12.990  0.00  0.00    +0.000 C 
ATOM     15  C   UNL     1       6.516   4.297  14.303  0.00  0.00    +0.000 C 
ENDBRANCH  13  15
ENDBRANCH   7  13
ENDBRANCH   1  10
BRANCH   4  16
ATOM     16  C   UNL     1       0.107  10.185  20.873  0.00  0.00    +0.000 C 
ATOM     17  O   UNL     1      -0.894  10.737  20.447  0.00  0.00    +0.000 OA
BRANCH  16  18
ATOM     18  O   UNL     1       0.561  10.366  22.131  0.00  0.00    +0.000 OA
ATOM     19  H   UNL     1       0.184   9.772  22.803  0.00  0.00    +0.000 HD
ENDBRANCH  16  18
ENDBRANCH   4  16
TORSDOF 5
ENDMDL
MODEL 4
REMARK VINA RESULT:      -6.9      0.223      1.152
REMARK  Name = 
REMARK  6 active torsions:
REMARK  status: ('A' for Active; 'I' for Inactive)
REMARK    1  A    between atoms: C_1  and  C_2
REMARK    2  A    between atoms: C_2  and  C_3
REMARK    3  A    between atoms: C_3  and  C_4
REMARK    4  A    between atoms: C_7  and  C_8
REMARK    5  A    between atoms: C_11  and  C_12
REMARK    6  A    between atoms: C_12  and  O_14
REMARK                            x       y       z     vdW  Elec       q    Type
REMARK                         _______ _______ _______ _____ _____    ______ ____
ROOT
ATOM      1  C   UNL     1       2.602   7.327  18.515  0.00  0.00    +0.000 A 
ATOM      2  C   UNL     1       2.111   8.522  17.959  0.00  0.00    +0.000 A 
ATOM      3  C   UNL     1       1.351   9.424  18.705  0.00  0.00    +0.000 A 
ATOM      4  C   UNL     1       1.038   9.149  20.037  0.00  0.00    +0.000 A 
ATOM      5  C   UNL     1       1.479   7.950  20.607  0.00  0.00    +0.000 A 
ATOM      6  C   UNL     1       2.259   7.059  19.855  0.00  0.00    +0.000 A 
ENDROOT
BRANCH   1  10
ATOM      7  C   UNL     1       5.115   4.690  16.177  0.00  0.00    +0.000 A 
ATOM      8  C   UNL     1       5.303   6.073  16.148  0.00  0.00    +0.000 A 
ATOM      9  C   UNL     1       4.493   6.914  16.917  0.00  0.00    +0.000 A 
ATOM     10  C   UNL     1       3.451   6.413  17.717  0.00  0.00    +0.000 A 
ATOM     11  C   UNL     1       3.262   5.019  17.719  0.00  0.00    +0.000 A 
ATOM     12  C   UNL     1       4.083   4.171  16.964  0.00  0.00    +0.000 A 
BRANCH   7  13
ATOM     13  C   UNL     1       6.004   3.772  15.374  0.00  0.00    +0.000 C 
BRANCH  13  15
ATOM     14  C   UNL     1       6.096   3.529  12.836  0.00  0.00    +0.000 C 
ATOM     15  C   UNL     1       6.485   4.369  14.046  0.00  0.00    +0.000 C 
ENDBRANCH  13  15
ENDBRANCH   7  13
ENDBRANCH   1  10
BRANCH   4  16
ATOM     16  C   UNL     1       0.205  10.143  20.764  0.00  0.00    +0.000 C 
ATOM     17  O   UNL     1      -0.198  11.169  20.241  0.00  0.00    +0.000 OA
BRANCH  16  18
ATOM     18  O   UNL     1      -0.030   9.842  22.058  0.00  0.00    +0.000 OA
ATOM     19  H   UNL     1      -0.901  10.106  22.399  0.00  0.00    +0.000 HD
ENDBRANCH  16  18
ENDBRANCH   4  16
TORSDOF 5
ENDMDL
MODEL 5
REMARK VINA RESULT:      -6.9      0.918      1.534
REMARK  Name = 
REMARK  6 active torsions:
REMARK  status: ('A' for Active; 'I' for Inactive)
REMARK    1  A    between atoms: C_1  and  C_2
REMARK    2  A    between atoms: C_2  and  C_3
REMARK    3  A    between atoms: C_3  and  C_4
REMARK    4  A    between atoms: C_7  and  C_8
REMARK    5  A    between atoms: C_11  and  C_12
REMARK    6  A    between atoms: C_12  and  O_14
REMARK                            x       y       z     vdW  Elec       q    Type
REMARK                         _______ _______ _______ _____ _____    ______ ____
ROOT
ATOM      1  C   UNL     1       2.908   6.732  18.541  0.00  0.00    +0.000 A 
ATOM      2  C   UNL     1       2.473   8.046  18.289  0.00  0.00    +0.000 A 
ATOM      3  C   UNL     1       1.730   8.768  19.224  0.00  0.00    +0.000 A 
ATOM      4  C   UNL     1       1.379   8.189  20.444  0.00  0.00    +0.000 A 
ATOM      5  C   UNL     1       1.763   6.870  20.708  0.00  0.00    +0.000 A 
ATOM      6  C   UNL     1       2.527   6.160  19.770  0.00  0.00    +0.000 A 
ENDROOT
BRANCH   1  10
ATOM      7  C   UNL     1       5.367   4.652  15.648  0.00  0.00    +0.000 A 
ATOM      8  C   UNL     1       5.383   6.046  15.735  0.00  0.00    +0.000 A 
ATOM      9  C   UNL     1       4.594   6.705  16.682  0.00  0.00    +0.000 A 
ATOM     10  C   UNL     1       3.740   6.007  17.553  0.00  0.00    +0.000 A 
ATOM     11  C   UNL     1       3.719   4.605  17.439  0.00  0.00    +0.000 A 
ATOM     12  C   UNL     1       4.522   3.939  16.504  0.00  0.00    +0.000 A 
BRANCH   7  13
ATOM     13  C   UNL     1       6.237   3.930  14.650  0.00  0.00    +0.000 C 
BRANCH  13  15
ATOM     14  C   UNL     1       6.600   3.701  12.136  0.00  0.00    +0.000 C 
ATOM     15  C   UNL     1       5.589   3.739  13.274  0.00  0.00    +0.000 C 
ENDBRANCH  13  15
ENDBRANCH   7  13
ENDBRANCH   1  10
BRANCH   4  16
ATOM     16  C   UNL     1       0.568   9.008  21.382  0.00  0.00    +0.000 C 
ATOM     17  O   UNL     1      -0.514   8.639  21.808  0.00  0.00    +0.000 OA
BRANCH  16  18
ATOM     18  O   UNL     1       1.101  10.209  21.687  0.00  0.00    +0.000 OA
ATOM     19  H   UNL     1       0.679  10.976  21.264  0.00  0.00    +0.000 HD
ENDBRANCH  16  18
ENDBRANCH   4  16
TORSDOF 5
ENDMDL
MODEL 6
REMARK VINA RESULT:      -6.8      4.005      7.728
REMARK  Name = 
REMARK  6 active torsions:
REMARK  status: ('A' for Active; 'I' for Inactive)
REMARK    1  A    between atoms: C_1  and  C_2
REMARK    2  A    between atoms: C_2  and  C_3
REMARK    3  A    between atoms: C_3  and  C_4
REMARK    4  A    between atoms: C_7  and  C_8
REMARK    5  A    between atoms: C_11  and  C_12
REMARK    6  A    between atoms: C_12  and  O_14
REMARK                            x       y       z     vdW  Elec       q    Type
REMARK                         _______ _______ _______ _____ _____    ______ ____
ROOT
ATOM      1  C   UNL     1       3.842   6.111  17.764  0.00  0.00    +0.000 A 
ATOM      2  C   UNL     1       4.717   6.953  17.053  0.00  0.00    +0.000 A 
ATOM      3  C   UNL     1       5.590   6.457  16.084  0.00  0.00    +0.000 A 
ATOM      4  C   UNL     1       5.630   5.090  15.805  0.00  0.00    +0.000 A 
ATOM      5  C   UNL     1       4.799   4.223  16.522  0.00  0.00    +0.000 A 
ATOM      6  C   UNL     1       3.911   4.734  17.481  0.00  0.00    +0.000 A 
ENDROOT
BRANCH   1  10
ATOM      7  C   UNL     1       1.066   7.711  20.676  0.00  0.00    +0.000 A 
ATOM      8  C   UNL     1       1.550   6.406  20.786  0.00  0.00    +0.000 A 
ATOM      9  C   UNL     1       2.455   5.904  19.846  0.00  0.00    +0.000 A 
ATOM     10  C   UNL     1       2.888   6.670  18.750  0.00  0.00    +0.000 A 
ATOM     11  C   UNL     1       2.375   7.976  18.641  0.00  0.00    +0.000 A 
ATOM     12  C   UNL     1       1.482   8.489  19.591  0.00  0.00    +0.000 A 
BRANCH   7  13
ATOM     13  C   UNL     1       0.111   8.271  21.701  0.00  0.00    +0.000 C 
BRANCH  13  15
ATOM     14  C   UNL     1      -0.606  10.380  22.944  0.00  0.00    +0.000 C 
ATOM     15  C   UNL     1       0.539   9.624  22.282  0.00  0.00    +0.000 C 
ENDBRANCH  13  15
ENDBRANCH   7  13
ENDBRANCH   1  10
BRANCH   4  16
ATOM     16  C   UNL     1       6.600   4.630  14.777  0.00  0.00    +0.000 C 
ATOM     17  O   UNL     1       7.567   5.294  14.442  0.00  0.00    +0.000 OA
BRANCH  16  18
ATOM     18  O   UNL     1       6.300   3.441  14.212  0.00  0.00    +0.000 OA
ATOM     19  H   UNL     1       5.692   3.478  13.455  0.00  0.00    +0.000 HD
ENDBRANCH  16  18
ENDBRANCH   4  16
TORSDOF 5
ENDMDL
MODEL 7
REMARK VINA RESULT:      -6.8      3.833      7.768
REMARK  Name = 
REMARK  6 active torsions:
REMARK  status: ('A' for Active; 'I' for Inactive)
REMARK    1  A    between atoms: C_1  and  C_2
REMARK    2  A    between atoms: C_2  and  C_3
REMARK    3  A    between atoms: C_3  and  C_4
REMARK    4  A    between atoms: C_7  and  C_8
REMARK    5  A    between atoms: C_11  and  C_12
REMARK    6  A    between atoms: C_12  and  O_14
REMARK                            x       y       z     vdW  Elec       q    Type
REMARK                         _______ _______ _______ _____ _____    ______ ____
ROOT
ATOM      1  C   UNL     1       3.566   6.716  17.773  0.00  0.00    +0.000 A 
ATOM      2  C   UNL     1       4.647   7.292  17.081  0.00  0.00    +0.000 A 
ATOM      3  C   UNL     1       5.523   6.523  16.314  0.00  0.00    +0.000 A 
ATOM      4  C   UNL     1       5.357   5.140  16.229  0.00  0.00    +0.000 A 
ATOM      5  C   UNL     1       4.315   4.533  16.938  0.00  0.00    +0.000 A 
ATOM      6  C   UNL     1       3.427   5.318  17.689  0.00  0.00    +0.000 A 
ENDROOT
BRANCH   1  10
ATOM      7  C   UNL     1       0.813   9.168  20.044  0.00  0.00    +0.000 A 
ATOM      8  C   UNL     1       1.379   8.020  20.601  0.00  0.00    +0.000 A 
ATOM      9  C   UNL     1       2.276   7.243  19.862  0.00  0.00    +0.000 A 
ATOM     10  C   UNL     1       2.619   7.562  18.536  0.00  0.00    +0.000 A 
ATOM     11  C   UNL     1       2.024   8.711  17.982  0.00  0.00    +0.000 A 
ATOM     12  C   UNL     1       1.139   9.503  18.725  0.00  0.00    +0.000 A 
BRANCH   7  13
ATOM     13  C   UNL     1      -0.132  10.030  20.843  0.00  0.00    +0.000 C 
BRANCH  13  15
ATOM     14  C   UNL     1      -1.045  10.600  23.156  0.00  0.00    +0.000 C 
ATOM     15  C   UNL     1      -0.323   9.573  22.294  0.00  0.00    +0.000 C 
ENDBRANCH  13  15
ENDBRANCH   7  13
ENDBRANCH   1  10
BRANCH   4  16
ATOM     16  C   UNL     1       6.341   4.381  15.414  0.00  0.00    +0.000 C 
ATOM     17  O   UNL     1       6.014   3.480  14.660  0.00  0.00    +0.000 OA
BRANCH  16  18
ATOM     18  O   UNL     1       7.628   4.737  15.609  0.00  0.00    +0.000 OA
ATOM     19  H   UNL     1       8.280   4.279  15.051  0.00  0.00    +0.000 HD
ENDBRANCH  16  18
ENDBRANCH   4  16
TORSDOF 5
ENDMDL
MODEL 8
REMARK VINA RESULT:      -6.8      3.824      7.756
REMARK  Name = 
REMARK  6 active torsions:
REMARK  status: ('A' for Active; 'I' for Inactive)
REMARK    1  A    between atoms: C_1  and  C_2
REMARK    2  A    between atoms: C_2  and  C_3
REMARK    3  A    between atoms: C_3  and  C_4
REMARK    4  A    between atoms: C_7  and  C_8
REMARK    5  A    between atoms: C_11  and  C_12
REMARK    6  A    between atoms: C_12  and  O_14
REMARK                            x       y       z     vdW  Elec       q    Type
REMARK                         _______ _______ _______ _____ _____    ______ ____
ROOT
ATOM      1  C   UNL     1       3.582   6.695  17.800  0.00  0.00    +0.000 A 
ATOM      2  C   UNL     1       4.677   7.256  17.117  0.00  0.00    +0.000 A 
ATOM      3  C   UNL     1       5.579   6.469  16.401  0.00  0.00    +0.000 A 
ATOM      4  C   UNL     1       5.426   5.082  16.359  0.00  0.00    +0.000 A 
ATOM      5  C   UNL     1       4.370   4.491  17.060  0.00  0.00    +0.000 A 
ATOM      6  C   UNL     1       3.456   5.293  17.761  0.00  0.00    +0.000 A 
ENDROOT
BRANCH   1  10
ATOM      7  C   UNL     1       0.723   9.235  19.829  0.00  0.00    +0.000 A 
ATOM      8  C   UNL     1       1.091   9.482  18.505  0.00  0.00    +0.000 A 
ATOM      9  C   UNL     1       2.006   8.648  17.857  0.00  0.00    +0.000 A 
ATOM     10  C   UNL     1       2.609   7.558  18.509  0.00  0.00    +0.000 A 
ATOM     11  C   UNL     1       2.244   7.335  19.849  0.00  0.00    +0.000 A 
ATOM     12  C   UNL     1       1.314   8.158  20.497  0.00  0.00    +0.000 A 
BRANCH   7  13
ATOM     13  C   UNL     1      -0.286  10.112  20.528  0.00  0.00    +0.000 C 
BRANCH  13  15
ATOM     14  C   UNL     1      -0.652   9.970  23.049  0.00  0.00    +0.000 C 
ATOM     15  C   UNL     1       0.155  10.592  21.916  0.00  0.00    +0.000 C 
ENDBRANCH  13  15
ENDBRANCH   7  13
ENDBRANCH   1  10
BRANCH   4  16
ATOM     16  C   UNL     1       6.438   4.305  15.597  0.00  0.00    +0.000 C 
ATOM     17  O   UNL     1       6.144   3.602  14.643  0.00  0.00    +0.000 OA
BRANCH  16  18
ATOM     18  O   UNL     1       7.697   4.401  16.071  0.00  0.00    +0.000 OA
ATOM     19  H   UNL     1       8.327   3.744  15.729  0.00  0.00    +0.000 HD
ENDBRANCH  16  18
ENDBRANCH   4  16
TORSDOF 5
ENDMDL
MODEL 9
REMARK VINA RESULT:      -6.8      4.061      7.780
REMARK  Name = 
REMARK  6 active torsions:
REMARK  status: ('A' for Active; 'I' for Inactive)
REMARK    1  A    between atoms: C_1  and  C_2
REMARK    2  A    between atoms: C_2  and  C_3
REMARK    3  A    between atoms: C_3  and  C_4
REMARK    4  A    between atoms: C_7  and  C_8
REMARK    5  A    between atoms: C_11  and  C_12
REMARK    6  A    between atoms: C_12  and  O_14
REMARK                            x       y       z     vdW  Elec       q    Type
REMARK                         _______ _______ _______ _____ _____    ______ ____
ROOT
ATOM      1  C   UNL     1       3.976   5.964  17.474  0.00  0.00    +0.000 A 
ATOM      2  C   UNL     1       4.678   6.819  16.604  0.00  0.00    +0.000 A 
ATOM      3  C   UNL     1       5.477   6.325  15.573  0.00  0.00    +0.000 A 
ATOM      4  C   UNL     1       5.617   4.949  15.387  0.00  0.00    +0.000 A 
ATOM      5  C   UNL     1       4.963   4.073  16.260  0.00  0.00    +0.000 A 
ATOM      6  C   UNL     1       4.146   4.580  17.282  0.00  0.00    +0.000 A 
ENDROOT
BRANCH   1  10
ATOM      7  C   UNL     1       1.381   7.610  20.523  0.00  0.00    +0.000 A 
ATOM      8  C   UNL     1       1.765   8.373  19.419  0.00  0.00    +0.000 A 
ATOM      9  C   UNL     1       2.593   7.826  18.434  0.00  0.00    +0.000 A 
ATOM     10  C   UNL     1       3.093   6.515  18.527  0.00  0.00    +0.000 A 
ATOM     11  C   UNL     1       2.714   5.767  19.657  0.00  0.00    +0.000 A 
ATOM     12  C   UNL     1       1.869   6.304  20.637  0.00  0.00    +0.000 A 
BRANCH   7  13
ATOM     13  C   UNL     1       0.463   8.180  21.576  0.00  0.00    +0.000 C 
BRANCH  13  15
ATOM     14  C   UNL     1      -0.429  10.376  22.520  0.00  0.00    +0.000 C 
ATOM     15  C   UNL     1      -0.036   9.598  21.271  0.00  0.00    +0.000 C 
ENDBRANCH  13  15
ENDBRANCH   7  13
ENDBRANCH   1  10
BRANCH   4  16
ATOM     16  C   UNL     1       6.502   4.494  14.283  0.00  0.00    +0.000 C 
ATOM     17  O   UNL     1       7.369   5.204  13.801  0.00  0.00    +0.000 OA
BRANCH  16  18
ATOM     18  O   UNL     1       6.240   3.251  13.827  0.00  0.00    +0.000 OA
ATOM     19  H   UNL     1       7.019   2.710  13.611  0.00  0.00    +0.000 HD
ENDBRANCH  16  18
ENDBRANCH   4  16
TORSDOF 5
ENDMDL
