MODEL 1
REMARK VINA RESULT:      -7.7      0.000      0.000
REMARK  Name = 
REMARK  3 active torsions:
REMARK  status: ('A' for Active; 'I' for Inactive)
REMARK    1  A    between atoms: C_1  and  N_2
REMARK    2  A    between atoms: C_6  and  C_7
REMARK    3  A    between atoms: C_10  and  C_12
REMARK                            x       y       z     vdW  Elec       q    Type
REMARK                         _______ _______ _______ _____ _____    ______ ____
ROOT
ATOM      1  C   UNL     1       2.521   6.402  19.869  0.00  0.00    +0.000 C 
ATOM      2  C   UNL     1       2.772   5.509  18.640  0.00  0.00    +0.000 C 
ATOM      3  N   UNL     1       3.128   4.133  18.989  0.00  0.00    +0.000 N 
ATOM      4  C   UNL     1       4.172   3.382  18.450  0.00  0.00    +0.000 C 
ATOM      5  O   UNL     1       4.449   2.253  18.865  0.00  0.00    +0.000 OA
ATOM      6  C   UNL     1       2.226   3.534  19.976  0.00  0.00    +0.000 C 
ATOM      7  C   UNL     1       2.014   4.479  21.165  0.00  0.00    +0.000 C 
ATOM      8  O   UNL     1       1.556   5.773  20.736  0.00  0.00    +0.000 OA
ENDROOT
BRANCH   1  14
ATOM      9  C   UNL     1      -0.587  10.031  20.487  0.00  0.00    +0.000 C 
ATOM     10  N   UNL     1       0.821   9.909  20.160  0.00  0.00    +0.000 NA
ATOM     11  C   UNL     1       1.215  10.521  18.897  0.00  0.00    +0.000 C 
ATOM     12  C   UNL     1       1.760   9.625  17.775  0.00  0.00    +0.000 C 
ATOM     13  C   UNL     1       2.198   8.258  18.183  0.00  0.00    +0.000 C 
ATOM     14  C   UNL     1       2.056   7.792  19.432  0.00  0.00    +0.000 C 
ATOM     15  C   UNL     1       1.412   8.630  20.518  0.00  0.00    +0.000 C 
ENDBRANCH   1  14
BRANCH   4  16
ATOM     16  C   UNL     1       5.033   3.947  17.370  0.00  0.00    +0.000 A 
ATOM     17  C   UNL     1       4.553   3.916  16.054  0.00  0.00    +0.000 A 
ATOM     18  C   UNL     1       5.364   4.345  14.997  0.00  0.00    +0.000 A 
ATOM     19  C   UNL     1       6.662   4.787  15.254  0.00  0.00    +0.000 A 
ATOM     20 CL   UNL     1       7.693   5.227  13.950  0.00  0.00    +0.000 Cl
ATOM     21  C   UNL     1       7.129   4.871  16.562  0.00  0.00    +0.000 A 
ATOM     22  C   UNL     1       6.295   4.503  17.620  0.00  0.00    +0.000 A 
ENDBRANCH   4  16
TORSDOF 2
ENDMDL
MODEL 2
REMARK VINA RESULT:      -7.2      0.253      1.058
REMARK  Name = 
REMARK  3 active torsions:
REMARK  status: ('A' for Active; 'I' for Inactive)
REMARK    1  A    between atoms: C_1  and  N_2
REMARK    2  A    between atoms: C_6  and  C_7
REMARK    3  A    between atoms: C_10  and  C_12
REMARK                            x       y       z     vdW  Elec       q    Type
REMARK                         _______ _______ _______ _____ _____    ______ ____
ROOT
ATOM      1  C   UNL     1       2.519   6.300  19.865  0.00  0.00    +0.000 C 
ATOM      2  C   UNL     1       2.754   5.352  18.674  0.00  0.00    +0.000 C 
ATOM      3  N   UNL     1       3.063   3.981  19.080  0.00  0.00    +0.000 N 
ATOM      4  C   UNL     1       4.089   3.177  18.581  0.00  0.00    +0.000 C 
ATOM      5  O   UNL     1       4.326   2.057  19.042  0.00  0.00    +0.000 OA
ATOM      6  C   UNL     1       2.134   3.449  20.080  0.00  0.00    +0.000 C 
ATOM      7  C   UNL     1       1.941   4.445  21.229  0.00  0.00    +0.000 C 
ATOM      8  O   UNL     1       1.527   5.735  20.746  0.00  0.00    +0.000 OA
ENDROOT
BRANCH   1  14
ATOM      9  C   UNL     1      -0.508  10.025  20.278  0.00  0.00    +0.000 C 
ATOM     10  N   UNL     1       0.904   9.856  19.993  0.00  0.00    +0.000 NA
ATOM     11  C   UNL     1       1.347  10.415  18.722  0.00  0.00    +0.000 C 
ATOM     12  C   UNL     1       1.897   9.468  17.645  0.00  0.00    +0.000 C 
ATOM     13  C   UNL     1       2.288   8.105  18.110  0.00  0.00    +0.000 C 
ATOM     14  C   UNL     1       2.102   7.685  19.369  0.00  0.00    +0.000 C 
ATOM     15  C   UNL     1       1.453   8.576  20.409  0.00  0.00    +0.000 C 
ENDBRANCH   1  14
BRANCH   4  16
ATOM     16  C   UNL     1       4.977   3.673  17.489  0.00  0.00    +0.000 A 
ATOM     17  C   UNL     1       6.199   4.259  17.842  0.00  0.00    +0.000 A 
ATOM     18  C   UNL     1       7.019   4.825  16.859  0.00  0.00    +0.000 A 
ATOM     19  C   UNL     1       6.610   4.820  15.526  0.00  0.00    +0.000 A 
ATOM     20 CL   UNL     1       7.571   5.594  14.329  0.00  0.00    +0.000 Cl
ATOM     21  C   UNL     1       5.424   4.192  15.159  0.00  0.00    +0.000 A 
ATOM     22  C   UNL     1       4.637   3.573  16.133  0.00  0.00    +0.000 A 
ENDBRANCH   4  16
TORSDOF 2
ENDMDL
MODEL 3
REMARK VINA RESULT:      -7.1      1.874      2.652
REMARK  Name = 
REMARK  3 active torsions:
REMARK  status: ('A' for Active; 'I' for Inactive)
REMARK    1  A    between atoms: C_1  and  N_2
REMARK    2  A    between atoms: C_6  and  C_7
REMARK    3  A    between atoms: C_10  and  C_12
REMARK                            x       y       z     vdW  Elec       q    Type
REMARK                         _______ _______ _______ _____ _____    ______ ____
ROOT
ATOM      1  C   UNL     1       2.175   6.374  20.584  0.00  0.00    +0.000 C 
ATOM      2  C   UNL     1       3.006   6.011  19.339  0.00  0.00    +0.000 C 
ATOM      3  N   UNL     1       3.624   4.687  19.424  0.00  0.00    +0.000 N 
ATOM      4  C   UNL     1       4.946   4.365  19.118  0.00  0.00    +0.000 C 
ATOM      5  O   UNL     1       5.402   3.232  19.296  0.00  0.00    +0.000 OA
ATOM      6  C   UNL     1       2.688   3.636  19.831  0.00  0.00    +0.000 C 
ATOM      7  C   UNL     1       1.890   4.067  21.067  0.00  0.00    +0.000 C 
ATOM      8  O   UNL     1       1.224   5.324  20.854  0.00  0.00    +0.000 OA
ENDROOT
BRANCH   1  14
ATOM      9  C   UNL     1       2.051  10.580  18.240  0.00  0.00    +0.000 C 
ATOM     10  N   UNL     1       1.069   9.642  18.749  0.00  0.00    +0.000 NA
ATOM     11  C   UNL     1       0.123  10.199  19.708  0.00  0.00    +0.000 C 
ATOM     12  C   UNL     1       0.117   9.660  21.146  0.00  0.00    +0.000 C 
ATOM     13  C   UNL     1       0.813   8.357  21.360  0.00  0.00    +0.000 C 
ATOM     14  C   UNL     1       1.478   7.721  20.386  0.00  0.00    +0.000 C 
ATOM     15  C   UNL     1       1.586   8.305  18.991  0.00  0.00    +0.000 C 
ENDBRANCH   1  14
BRANCH   4  16
ATOM     16  C   UNL     1       5.881   5.408  18.603  0.00  0.00    +0.000 A 
ATOM     17  C   UNL     1       7.102   5.590  19.265  0.00  0.00    +0.000 A 
ATOM     18  C   UNL     1       7.966   6.620  18.877  0.00  0.00    +0.000 A 
ATOM     19  C   UNL     1       7.602   7.479  17.841  0.00  0.00    +0.000 A 
ATOM     20 CL   UNL     1       8.619   8.802  17.424  0.00  0.00    +0.000 Cl
ATOM     21  C   UNL     1       6.416   7.274  17.143  0.00  0.00    +0.000 A 
ATOM     22  C   UNL     1       5.584   6.207  17.490  0.00  0.00    +0.000 A 
ENDBRANCH   4  16
TORSDOF 2
ENDMDL
MODEL 4
REMARK VINA RESULT:      -7.0      3.801      6.296
REMARK  Name = 
REMARK  3 active torsions:
REMARK  status: ('A' for Active; 'I' for Inactive)
REMARK    1  A    between atoms: C_1  and  N_2
REMARK    2  A    between atoms: C_6  and  C_7
REMARK    3  A    between atoms: C_10  and  C_12
REMARK                            x       y       z     vdW  Elec       q    Type
REMARK                         _______ _______ _______ _____ _____    ______ ____
ROOT
ATOM      1  C   UNL     1      -1.139  11.070  19.345  0.00  0.00    +0.000 C 
ATOM      2  C   UNL     1      -0.801   9.691  19.942  0.00  0.00    +0.000 C 
ATOM      3  N   UNL     1       0.026   9.771  21.146  0.00  0.00    +0.000 N 
ATOM      4  C   UNL     1       1.164   9.013  21.426  0.00  0.00    +0.000 C 
ATOM      5  O   UNL     1       1.847   9.206  22.435  0.00  0.00    +0.000 OA
ATOM      6  C   UNL     1      -0.478  10.729  22.133  0.00  0.00    +0.000 C 
ATOM      7  C   UNL     1      -0.802  12.073  21.470  0.00  0.00    +0.000 C 
ATOM      8  O   UNL     1      -1.710  11.912  20.366  0.00  0.00    +0.000 OA
ENDROOT
BRANCH   1  14
ATOM      9  C   UNL     1      -5.655  11.304  17.685  0.00  0.00    +0.000 C 
ATOM     10  N   UNL     1      -4.338  11.621  17.168  0.00  0.00    +0.000 NA
ATOM     11  C   UNL     1      -3.971  10.922  15.944  0.00  0.00    +0.000 C 
ATOM     12  C   UNL     1      -2.783   9.949  15.970  0.00  0.00    +0.000 C 
ATOM     13  C   UNL     1      -1.863  10.071  17.138  0.00  0.00    +0.000 C 
ATOM     14  C   UNL     1      -2.087  10.917  18.154  0.00  0.00    +0.000 C 
ATOM     15  C   UNL     1      -3.319  11.798  18.190  0.00  0.00    +0.000 C 
ENDBRANCH   1  14
BRANCH   4  16
ATOM     16  C   UNL     1       1.627   7.961  20.474  0.00  0.00    +0.000 A 
ATOM     17  C   UNL     1       1.615   6.627  20.903  0.00  0.00    +0.000 A 
ATOM     18  C   UNL     1       2.131   5.619  20.081  0.00  0.00    +0.000 A 
ATOM     19  C   UNL     1       2.673   5.945  18.838  0.00  0.00    +0.000 A 
ATOM     20 CL   UNL     1       3.391   4.722  17.866  0.00  0.00    +0.000 Cl
ATOM     21  C   UNL     1       2.641   7.259  18.381  0.00  0.00    +0.000 A 
ATOM     22  C   UNL     1       2.069   8.255  19.176  0.00  0.00    +0.000 A 
ENDBRANCH   4  16
TORSDOF 2
ENDMDL
MODEL 5
REMARK VINA RESULT:      -7.0      1.943      2.391
REMARK  Name = 
REMARK  3 active torsions:
REMARK  status: ('A' for Active; 'I' for Inactive)
REMARK    1  A    between atoms: C_1  and  N_2
REMARK    2  A    between atoms: C_6  and  C_7
REMARK    3  A    between atoms: C_10  and  C_12
REMARK                            x       y       z     vdW  Elec       q    Type
REMARK                         _______ _______ _______ _____ _____    ______ ____
ROOT
ATOM      1  C   UNL     1       1.945   6.637  20.579  0.00  0.00    +0.000 C 
ATOM      2  C   UNL     1       2.675   6.367  19.250  0.00  0.00    +0.000 C 
ATOM      3  N   UNL     1       3.060   4.965  19.078  0.00  0.00    +0.000 N 
ATOM      4  C   UNL     1       4.302   4.490  18.656  0.00  0.00    +0.000 C 
ATOM      5  O   UNL     1       4.563   3.284  18.616  0.00  0.00    +0.000 OA
ATOM      6  C   UNL     1       1.969   4.027  19.349  0.00  0.00    +0.000 C 
ATOM      7  C   UNL     1       1.282   4.359  20.679  0.00  0.00    +0.000 C 
ATOM      8  O   UNL     1       0.835   5.726  20.716  0.00  0.00    +0.000 OA
ENDROOT
BRANCH   1  14
ATOM      9  C   UNL     1      -0.484  10.024  22.993  0.00  0.00    +0.000 C 
ATOM     10  N   UNL     1       0.729   9.978  22.200  0.00  0.00    +0.000 NA
ATOM     11  C   UNL     1       0.749  10.874  21.052  0.00  0.00    +0.000 C 
ATOM     12  C   UNL     1       0.829  10.273  19.640  0.00  0.00    +0.000 C 
ATOM     13  C   UNL     1       1.257   8.846  19.560  0.00  0.00    +0.000 C 
ATOM     14  C   UNL     1       1.483   8.093  20.646  0.00  0.00    +0.000 C 
ATOM     15  C   UNL     1       1.294   8.648  22.044  0.00  0.00    +0.000 C 
ENDBRANCH   1  14
BRANCH   4  16
ATOM     16  C   UNL     1       5.389   5.441  18.277  0.00  0.00    +0.000 A 
ATOM     17  C   UNL     1       6.574   5.425  19.025  0.00  0.00    +0.000 A 
ATOM     18  C   UNL     1       7.580   6.363  18.769  0.00  0.00    +0.000 A 
ATOM     19  C   UNL     1       7.396   7.327  17.778  0.00  0.00    +0.000 A 
ATOM     20 CL   UNL     1       8.590   8.537  17.523  0.00  0.00    +0.000 Cl
ATOM     21  C   UNL     1       6.246   7.317  16.995  0.00  0.00    +0.000 A 
ATOM     22  C   UNL     1       5.269   6.341  17.210  0.00  0.00    +0.000 A 
ENDBRANCH   4  16
TORSDOF 2
ENDMDL
MODEL 6
REMARK VINA RESULT:      -6.9      3.934      6.325
REMARK  Name = 
REMARK  3 active torsions:
REMARK  status: ('A' for Active; 'I' for Inactive)
REMARK    1  A    between atoms: C_1  and  N_2
REMARK    2  A    between atoms: C_6  and  C_7
REMARK    3  A    between atoms: C_10  and  C_12
REMARK                            x       y       z     vdW  Elec       q    Type
REMARK                         _______ _______ _______ _____ _____    ______ ____
ROOT
ATOM      1  C   UNL     1      -1.084  11.056  19.353  0.00  0.00    +0.000 C 
ATOM      2  C   UNL     1      -0.771   9.693  19.998  0.00  0.00    +0.000 C 
ATOM      3  N   UNL     1       0.045   9.800  21.208  0.00  0.00    +0.000 N 
ATOM      4  C   UNL     1       1.169   9.038  21.524  0.00  0.00    +0.000 C 
ATOM      5  O   UNL     1       1.845   9.253  22.534  0.00  0.00    +0.000 OA
ATOM      6  C   UNL     1      -0.456  10.798  22.157  0.00  0.00    +0.000 C 
ATOM      7  C   UNL     1      -0.754  12.123  21.448  0.00  0.00    +0.000 C 
ATOM      8  O   UNL     1      -1.654  11.939  20.340  0.00  0.00    +0.000 OA
ENDROOT
BRANCH   1  14
ATOM      9  C   UNL     1      -5.584  11.267  17.646  0.00  0.00    +0.000 C 
ATOM     10  N   UNL     1      -4.260  11.566  17.134  0.00  0.00    +0.000 NA
ATOM     11  C   UNL     1      -3.885  10.834  15.931  0.00  0.00    +0.000 C 
ATOM     12  C   UNL     1      -2.701   9.857  15.992  0.00  0.00    +0.000 C 
ATOM     13  C   UNL     1      -1.791  10.006  17.165  0.00  0.00    +0.000 C 
ATOM     14  C   UNL     1      -2.021  10.877  18.158  0.00  0.00    +0.000 C 
ATOM     15  C   UNL     1      -3.250  11.764  18.160  0.00  0.00    +0.000 C 
ENDBRANCH   1  14
BRANCH   4  16
ATOM     16  C   UNL     1       1.627   7.948  20.612  0.00  0.00    +0.000 A 
ATOM     17  C   UNL     1       2.061   8.298  19.326  0.00  0.00    +0.000 A 
ATOM     18  C   UNL     1       2.406   7.304  18.404  0.00  0.00    +0.000 A 
ATOM     19  C   UNL     1       2.302   5.960  18.761  0.00  0.00    +0.000 A 
ATOM     20 CL   UNL     1       2.637   4.734  17.603  0.00  0.00    +0.000 Cl
ATOM     21  C   UNL     1       1.924   5.604  20.052  0.00  0.00    +0.000 A 
ATOM     22  C   UNL     1       1.640   6.599  20.990  0.00  0.00    +0.000 A 
ENDBRANCH   4  16
TORSDOF 2
ENDMDL
MODEL 7
REMARK VINA RESULT:      -6.8      2.766      6.353
REMARK  Name = 
REMARK  3 active torsions:
REMARK  status: ('A' for Active; 'I' for Inactive)
REMARK    1  A    between atoms: C_1  and  N_2
REMARK    2  A    between atoms: C_6  and  C_7
REMARK    3  A    between atoms: C_10  and  C_12
REMARK                            x       y       z     vdW  Elec       q    Type
REMARK                         _______ _______ _______ _____ _____    ______ ____
ROOT
ATOM      1  C   UNL     1       3.970   3.672  17.365  0.00  0.00    +0.000 C 
ATOM      2  C   UNL     1       3.819   4.525  18.638  0.00  0.00    +0.000 C 
ATOM      3  N   UNL     1       2.771   4.039  19.537  0.00  0.00    +0.000 N 
ATOM      4  C   UNL     1       1.787   4.808  20.159  0.00  0.00    +0.000 C 
ATOM      5  O   UNL     1       0.892   4.300  20.840  0.00  0.00    +0.000 OA
ATOM      6  C   UNL     1       2.854   2.601  19.800  0.00  0.00    +0.000 C 
ATOM      7  C   UNL     1       3.011   1.816  18.493  0.00  0.00    +0.000 C 
ATOM      8  O   UNL     1       4.134   2.286  17.726  0.00  0.00    +0.000 OA
ENDROOT
BRANCH   1  14
ATOM      9  C   UNL     1       7.549   6.857  16.872  0.00  0.00    +0.000 C 
ATOM     10  N   UNL     1       7.359   5.450  16.577  0.00  0.00    +0.000 NA
ATOM     11  C   UNL     1       7.556   5.081  15.182  0.00  0.00    +0.000 C 
ATOM     12  C   UNL     1       6.366   4.524  14.385  0.00  0.00    +0.000 C 
ATOM     13  C   UNL     1       5.202   4.052  15.190  0.00  0.00    +0.000 C 
ATOM     14  C   UNL     1       5.145   4.173  16.524  0.00  0.00    +0.000 C 
ATOM     15  C   UNL     1       6.267   4.826  17.306  0.00  0.00    +0.000 C 
ENDBRANCH   1  14
BRANCH   4  16
ATOM     16  C   UNL     1       1.756   6.289  19.980  0.00  0.00    +0.000 A 
ATOM     17  C   UNL     1       1.278   7.076  21.036  0.00  0.00    +0.000 A 
ATOM     18  C   UNL     1       1.139   8.459  20.878  0.00  0.00    +0.000 A 
ATOM     19  C   UNL     1       1.463   9.055  19.659  0.00  0.00    +0.000 A 
ATOM     20 CL   UNL     1       1.207  10.739  19.431  0.00  0.00    +0.000 Cl
ATOM     21  C   UNL     1       1.989   8.290  18.622  0.00  0.00    +0.000 A 
ATOM     22  C   UNL     1       2.185   6.919  18.803  0.00  0.00    +0.000 A 
ENDBRANCH   4  16
TORSDOF 2
ENDMDL
MODEL 8
REMARK VINA RESULT:      -6.8      2.754      3.403
REMARK  Name = 
REMARK  3 active torsions:
REMARK  status: ('A' for Active; 'I' for Inactive)
REMARK    1  A    between atoms: C_1  and  N_2
REMARK    2  A    between atoms: C_6  and  C_7
REMARK    3  A    between atoms: C_10  and  C_12
REMARK                            x       y       z     vdW  Elec       q    Type
REMARK                         _______ _______ _______ _____ _____    ______ ____
ROOT
ATOM      1  C   UNL     1       2.835   6.359  18.672  0.00  0.00    +0.000 C 
ATOM      2  C   UNL     1       4.017   6.652  17.729  0.00  0.00    +0.000 C 
ATOM      3  N   UNL     1       4.761   5.451  17.346  0.00  0.00    +0.000 N 
ATOM      4  C   UNL     1       6.147   5.297  17.344  0.00  0.00    +0.000 C 
ATOM      5  O   UNL     1       6.686   4.219  17.081  0.00  0.00    +0.000 OA
ATOM      6  C   UNL     1       3.901   4.357  16.888  0.00  0.00    +0.000 C 
ATOM      7  C   UNL     1       2.744   4.127  17.867  0.00  0.00    +0.000 C 
ATOM      8  O   UNL     1       1.998   5.336  18.097  0.00  0.00    +0.000 OA
ENDROOT
BRANCH   1  14
ATOM      9  C   UNL     1      -0.310   8.666  21.499  0.00  0.00    +0.000 C 
ATOM     10  N   UNL     1       0.876   9.028  20.747  0.00  0.00    +0.000 NA
ATOM     11  C   UNL     1       0.678  10.073  19.750  0.00  0.00    +0.000 C 
ATOM     12  C   UNL     1       0.889   9.735  18.267  0.00  0.00    +0.000 C 
ATOM     13  C   UNL     1       1.641   8.478  17.983  0.00  0.00    +0.000 C 
ATOM     14  C   UNL     1       2.044   7.638  18.947  0.00  0.00    +0.000 C 
ATOM     15  C   UNL     1       1.737   7.908  20.407  0.00  0.00    +0.000 C 
ENDBRANCH   1  14
BRANCH   4  16
ATOM     16  C   UNL     1       7.037   6.439  17.710  0.00  0.00    +0.000 A 
ATOM     17  C   UNL     1       7.845   6.311  18.847  0.00  0.00    +0.000 A 
ATOM     18  C   UNL     1       8.622   7.391  19.284  0.00  0.00    +0.000 A 
ATOM     19  C   UNL     1       8.578   8.602  18.594  0.00  0.00    +0.000 A 
ATOM     20 CL   UNL     1       9.458   9.957  19.180  0.00  0.00    +0.000 Cl
ATOM     21  C   UNL     1       7.820   8.721  17.433  0.00  0.00    +0.000 A 
ATOM     22  C   UNL     1       7.094   7.624  16.964  0.00  0.00    +0.000 A 
ENDBRANCH   4  16
TORSDOF 2
ENDMDL
MODEL 9
REMARK VINA RESULT:      -6.7      2.681      3.544
REMARK  Name = 
REMARK  3 active torsions:
REMARK  status: ('A' for Active; 'I' for Inactive)
REMARK    1  A    between atoms: C_1  and  N_2
REMARK    2  A    between atoms: C_6  and  C_7
REMARK    3  A    between atoms: C_10  and  C_12
REMARK                            x       y       z     vdW  Elec       q    Type
REMARK                         _______ _______ _______ _____ _____    ______ ____
ROOT
ATOM      1  C   UNL     1       2.886   6.077  18.991  0.00  0.00    +0.000 C 
ATOM      2  C   UNL     1       3.973   6.466  17.972  0.00  0.00    +0.000 C 
ATOM      3  N   UNL     1       4.711   5.316  17.448  0.00  0.00    +0.000 N 
ATOM      4  C   UNL     1       6.095   5.207  17.317  0.00  0.00    +0.000 C 
ATOM      5  O   UNL     1       6.637   4.164  16.939  0.00  0.00    +0.000 OA
ATOM      6  C   UNL     1       3.842   4.228  16.993  0.00  0.00    +0.000 C 
ATOM      7  C   UNL     1       2.781   3.900  18.050  0.00  0.00    +0.000 C 
ATOM      8  O   UNL     1       2.028   5.068  18.422  0.00  0.00    +0.000 OA
ENDROOT
BRANCH   1  14
ATOM      9  C   UNL     1       1.975  10.760  18.321  0.00  0.00    +0.000 C 
ATOM     10  N   UNL     1       1.196   9.586  18.666  0.00  0.00    +0.000 NA
ATOM     11  C   UNL     1       0.478   9.673  19.930  0.00  0.00    +0.000 C 
ATOM     12  C   UNL     1       0.845   8.703  21.063  0.00  0.00    +0.000 C 
ATOM     13  C   UNL     1       1.641   7.505  20.666  0.00  0.00    +0.000 C 
ATOM     14  C   UNL     1       2.089   7.311  19.417  0.00  0.00    +0.000 C 
ATOM     15  C   UNL     1       1.828   8.323  18.320  0.00  0.00    +0.000 C 
ENDBRANCH   1  14
BRANCH   4  16
ATOM     16  C   UNL     1       6.984   6.349  17.681  0.00  0.00    +0.000 A 
ATOM     17  C   UNL     1       7.797   6.222  18.816  0.00  0.00    +0.000 A 
ATOM     18  C   UNL     1       8.573   7.303  19.251  0.00  0.00    +0.000 A 
ATOM     19  C   UNL     1       8.524   8.514  18.562  0.00  0.00    +0.000 A 
ATOM     20 CL   UNL     1       9.404   9.871  19.146  0.00  0.00    +0.000 Cl
ATOM     21  C   UNL     1       7.762   8.633  17.404  0.00  0.00    +0.000 A 
ATOM     22  C   UNL     1       7.037   7.535  16.936  0.00  0.00    +0.000 A 
ENDBRANCH   4  16
TORSDOF 2
ENDMDL
