MODEL 1
REMARK VINA RESULT:      -6.8      0.000      0.000
REMARK  Name = 
REMARK  7 active torsions:
REMARK  status: ('A' for Active; 'I' for Inactive)
REMARK    1  A    between atoms: C_1  and  C_2
REMARK    2  A    between atoms: C_2  and  O_4
REMARK    3  A    between atoms: O_4  and  C_5
REMARK    4  A    between atoms: C_5  and  C_6
REMARK    5  A    between atoms: C_6  and  C_7
REMARK    6  A    between atoms: C_7  and  C_8
REMARK    7  A    between atoms: C_8  and  N_9
REMARK                            x       y       z     vdW  Elec       q    Type
REMARK                         _______ _______ _______ _____ _____    ______ ____
ROOT
ATOM      1  N   UNL     1       4.239   5.052  17.531  0.00  0.00    +0.000 N 
ATOM      2  C   UNL     1       4.321   6.442  17.702  0.00  0.00    +0.000 C 
ATOM      3  O   UNL     1       5.309   7.102  17.373  0.00  0.00    +0.000 OA
ATOM      4  C   UNL     1       3.076   7.153  18.186  0.00  0.00    +0.000 C 
ATOM      5  S   UNL     1       2.463   6.418  19.706  0.00  0.00    +0.000 S 
ATOM      6  C   UNL     1       2.319   4.758  19.078  0.00  0.00    +0.000 A 
ATOM      7  C   UNL     1       1.350   3.932  19.664  0.00  0.00    +0.000 A 
ATOM      8  C   UNL     1       1.187   2.617  19.238  0.00  0.00    +0.000 A 
ATOM      9  C   UNL     1       1.990   2.121  18.219  0.00  0.00    +0.000 A 
ATOM     10  C   UNL     1       2.966   2.935  17.639  0.00  0.00    +0.000 A 
ATOM     11  C   UNL     1       3.164   4.260  18.067  0.00  0.00    +0.000 A 
ENDROOT
BRANCH   1  12
ATOM     12  C   UNL     1       5.378   4.388  16.885  0.00  0.00    +0.000 C 
BRANCH  12  13
ATOM     13  C   UNL     1       5.279   4.385  15.351  0.00  0.00    +0.000 C 
BRANCH  13  14
ATOM     14  C   UNL     1       6.626   4.140  14.676  0.00  0.00    +0.000 C 
BRANCH  14  15
ATOM     15  C   UNL     1       6.505   3.858  13.182  0.00  0.00    +0.000 C 
BRANCH  15  16
ATOM     16  O   UNL     1       5.127   3.694  12.822  0.00  0.00    +0.000 OA
BRANCH  16  18
ATOM     17  C   UNL     1       3.775   3.452  10.927  0.00  0.00    +0.000 C 
ATOM     18  C   UNL     1       4.904   2.899  11.737  0.00  0.00    +0.000 C 
ATOM     19  O   UNL     1       5.527   1.886  11.455  0.00  0.00    +0.000 OA
ENDBRANCH  16  18
ENDBRANCH  15  16
ENDBRANCH  14  15
ENDBRANCH  13  14
ENDBRANCH  12  13
ENDBRANCH   1  12
TORSDOF 6
ENDMDL
MODEL 2
REMARK VINA RESULT:      -6.7      3.188      4.853
REMARK  Name = 
REMARK  7 active torsions:
REMARK  status: ('A' for Active; 'I' for Inactive)
REMARK    1  A    between atoms: C_1  and  C_2
REMARK    2  A    between atoms: C_2  and  O_4
REMARK    3  A    between atoms: O_4  and  C_5
REMARK    4  A    between atoms: C_5  and  C_6
REMARK    5  A    between atoms: C_6  and  C_7
REMARK    6  A    between atoms: C_7  and  C_8
REMARK    7  A    between atoms: C_8  and  N_9
REMARK                            x       y       z     vdW  Elec       q    Type
REMARK                         _______ _______ _______ _____ _____    ______ ____
ROOT
ATOM      1  N   UNL     1       3.338   3.693  18.368  0.00  0.00    +0.000 N 
ATOM      2  C   UNL     1       3.462   2.487  19.072  0.00  0.00    +0.000 C 
ATOM      3  O   UNL     1       3.694   1.408  18.521  0.00  0.00    +0.000 OA
ATOM      4  C   UNL     1       3.441   2.564  20.583  0.00  0.00    +0.000 C 
ATOM      5  S   UNL     1       1.976   3.425  21.165  0.00  0.00    +0.000 S 
ATOM      6  C   UNL     1       2.242   4.917  20.230  0.00  0.00    +0.000 A 
ATOM      7  C   UNL     1       1.725   6.107  20.760  0.00  0.00    +0.000 A 
ATOM      8  C   UNL     1       1.878   7.312  20.079  0.00  0.00    +0.000 A 
ATOM      9  C   UNL     1       2.554   7.334  18.866  0.00  0.00    +0.000 A 
ATOM     10  C   UNL     1       3.061   6.150  18.327  0.00  0.00    +0.000 A 
ATOM     11  C   UNL     1       2.901   4.917  18.984  0.00  0.00    +0.000 A 
ENDROOT
BRANCH   1  12
ATOM     12  C   UNL     1       3.548   3.647  16.915  0.00  0.00    +0.000 C 
BRANCH  12  13
ATOM     13  C   UNL     1       5.033   3.670  16.522  0.00  0.00    +0.000 C 
BRANCH  13  14
ATOM     14  C   UNL     1       5.511   5.060  16.112  0.00  0.00    +0.000 C 
BRANCH  14  15
ATOM     15  C   UNL     1       6.993   5.292  16.392  0.00  0.00    +0.000 C 
BRANCH  15  16
ATOM     16  O   UNL     1       7.349   4.721  17.659  0.00  0.00    +0.000 OA
BRANCH  16  18
ATOM     17  C   UNL     1       7.787   6.956  18.198  0.00  0.00    +0.000 C 
ATOM     18  C   UNL     1       7.391   5.603  18.698  0.00  0.00    +0.000 C 
ATOM     19  O   UNL     1       7.140   5.343  19.865  0.00  0.00    +0.000 OA
ENDBRANCH  16  18
ENDBRANCH  15  16
ENDBRANCH  14  15
ENDBRANCH  13  14
ENDBRANCH  12  13
ENDBRANCH   1  12
TORSDOF 6
ENDMDL
MODEL 3
REMARK VINA RESULT:      -6.5      3.439      6.438
REMARK  Name = 
REMARK  7 active torsions:
REMARK  status: ('A' for Active; 'I' for Inactive)
REMARK    1  A    between atoms: C_1  and  C_2
REMARK    2  A    between atoms: C_2  and  O_4
REMARK    3  A    between atoms: O_4  and  C_5
REMARK    4  A    between atoms: C_5  and  C_6
REMARK    5  A    between atoms: C_6  and  C_7
REMARK    6  A    between atoms: C_7  and  C_8
REMARK    7  A    between atoms: C_8  and  N_9
REMARK                            x       y       z     vdW  Elec       q    Type
REMARK                         _______ _______ _______ _____ _____    ______ ____
ROOT
ATOM      1  N   UNL     1       5.017   4.502  17.733  0.00  0.00    +0.000 N 
ATOM      2  C   UNL     1       5.484   5.112  18.906  0.00  0.00    +0.000 C 
ATOM      3  O   UNL     1       4.805   5.203  19.932  0.00  0.00    +0.000 OA
ATOM      4  C   UNL     1       6.932   5.549  18.929  0.00  0.00    +0.000 C 
ATOM      5  S   UNL     1       7.306   6.616  17.533  0.00  0.00    +0.000 S 
ATOM      6  C   UNL     1       6.768   5.482  16.270  0.00  0.00    +0.000 A 
ATOM      7  C   UNL     1       7.380   5.583  15.013  0.00  0.00    +0.000 A 
ATOM      8  C   UNL     1       7.002   4.743  13.970  0.00  0.00    +0.000 A 
ATOM      9  C   UNL     1       6.011   3.792  14.179  0.00  0.00    +0.000 A 
ATOM     10  C   UNL     1       5.388   3.694  15.425  0.00  0.00    +0.000 A 
ATOM     11  C   UNL     1       5.737   4.546  16.489  0.00  0.00    +0.000 A 
ENDROOT
BRANCH   1  12
ATOM     12  C   UNL     1       3.675   3.908  17.774  0.00  0.00    +0.000 C 
BRANCH  12  13
ATOM     13  C   UNL     1       3.687   2.424  18.170  0.00  0.00    +0.000 C 
BRANCH  13  14
ATOM     14  C   UNL     1       2.300   1.903  18.539  0.00  0.00    +0.000 C 
BRANCH  14  15
ATOM     15  C   UNL     1       1.269   3.013  18.712  0.00  0.00    +0.000 C 
BRANCH  15  16
ATOM     16  O   UNL     1       0.693   2.949  20.024  0.00  0.00    +0.000 OA
BRANCH  16  18
ATOM     17  C   UNL     1       1.544   5.018  20.708  0.00  0.00    +0.000 C 
ATOM     18  C   UNL     1       1.419   3.557  21.004  0.00  0.00    +0.000 C 
ATOM     19  O   UNL     1       1.898   3.006  21.984  0.00  0.00    +0.000 OA
ENDBRANCH  16  18
ENDBRANCH  15  16
ENDBRANCH  14  15
ENDBRANCH  13  14
ENDBRANCH  12  13
ENDBRANCH   1  12
TORSDOF 6
ENDMDL
MODEL 4
REMARK VINA RESULT:      -6.4      3.082      4.119
REMARK  Name = 
REMARK  7 active torsions:
REMARK  status: ('A' for Active; 'I' for Inactive)
REMARK    1  A    between atoms: C_1  and  C_2
REMARK    2  A    between atoms: C_2  and  O_4
REMARK    3  A    between atoms: O_4  and  C_5
REMARK    4  A    between atoms: C_5  and  C_6
REMARK    5  A    between atoms: C_6  and  C_7
REMARK    6  A    between atoms: C_7  and  C_8
REMARK    7  A    between atoms: C_8  and  N_9
REMARK                            x       y       z     vdW  Elec       q    Type
REMARK                         _______ _______ _______ _____ _____    ______ ____
ROOT
ATOM      1  N   UNL     1       3.177   5.638  17.675  0.00  0.00    +0.000 N 
ATOM      2  C   UNL     1       3.322   6.991  18.012  0.00  0.00    +0.000 C 
ATOM      3  O   UNL     1       4.179   7.722  17.508  0.00  0.00    +0.000 OA
ATOM      4  C   UNL     1       2.283   7.587  18.937  0.00  0.00    +0.000 C 
ATOM      5  S   UNL     1       2.136   6.627  20.448  0.00  0.00    +0.000 S 
ATOM      6  C   UNL     1       1.793   5.069  19.656  0.00  0.00    +0.000 A 
ATOM      7  C   UNL     1       1.029   4.138  20.374  0.00  0.00    +0.000 A 
ATOM      8  C   UNL     1       0.732   2.892  19.829  0.00  0.00    +0.000 A 
ATOM      9  C   UNL     1       1.194   2.571  18.559  0.00  0.00    +0.000 A 
ATOM     10  C   UNL     1       1.966   3.489  17.843  0.00  0.00    +0.000 A 
ATOM     11  C   UNL     1       2.298   4.745  18.381  0.00  0.00    +0.000 A 
ENDROOT
BRANCH   1  12
ATOM     12  C   UNL     1       4.067   5.107  16.634  0.00  0.00    +0.000 C 
BRANCH  12  13
ATOM     13  C   UNL     1       5.085   4.092  17.176  0.00  0.00    +0.000 C 
BRANCH  13  14
ATOM     14  C   UNL     1       6.343   4.004  16.315  0.00  0.00    +0.000 C 
BRANCH  14  15
ATOM     15  C   UNL     1       7.541   4.722  16.930  0.00  0.00    +0.000 C 
BRANCH  15  16
ATOM     16  O   UNL     1       7.611   4.446  18.335  0.00  0.00    +0.000 OA
BRANCH  16  18
ATOM     17  C   UNL     1       7.800   6.778  18.290  0.00  0.00    +0.000 C 
ATOM     18  C   UNL     1       7.732   5.545  19.134  0.00  0.00    +0.000 C 
ATOM     19  O   UNL     1       7.775   5.538  20.355  0.00  0.00    +0.000 OA
ENDBRANCH  16  18
ENDBRANCH  15  16
ENDBRANCH  14  15
ENDBRANCH  13  14
ENDBRANCH  12  13
ENDBRANCH   1  12
TORSDOF 6
ENDMDL
MODEL 5
REMARK VINA RESULT:      -6.4      2.034      3.213
REMARK  Name = 
REMARK  7 active torsions:
REMARK  status: ('A' for Active; 'I' for Inactive)
REMARK    1  A    between atoms: C_1  and  C_2
REMARK    2  A    between atoms: C_2  and  O_4
REMARK    3  A    between atoms: O_4  and  C_5
REMARK    4  A    between atoms: C_5  and  C_6
REMARK    5  A    between atoms: C_6  and  C_7
REMARK    6  A    between atoms: C_7  and  C_8
REMARK    7  A    between atoms: C_8  and  N_9
REMARK                            x       y       z     vdW  Elec       q    Type
REMARK                         _______ _______ _______ _____ _____    ______ ____
ROOT
ATOM      1  N   UNL     1       3.392   3.814  18.325  0.00  0.00    +0.000 N 
ATOM      2  C   UNL     1       3.430   2.597  19.021  0.00  0.00    +0.000 C 
ATOM      3  O   UNL     1       3.676   1.518  18.476  0.00  0.00    +0.000 OA
ATOM      4  C   UNL     1       3.293   2.658  20.527  0.00  0.00    +0.000 C 
ATOM      5  S   UNL     1       1.810   3.552  21.004  0.00  0.00    +0.000 S 
ATOM      6  C   UNL     1       2.187   5.046  20.112  0.00  0.00    +0.000 A 
ATOM      7  C   UNL     1       1.661   6.245  20.615  0.00  0.00    +0.000 A 
ATOM      8  C   UNL     1       1.898   7.452  19.965  0.00  0.00    +0.000 A 
ATOM      9  C   UNL     1       2.667   7.469  18.808  0.00  0.00    +0.000 A 
ATOM     10  C   UNL     1       3.184   6.278  18.295  0.00  0.00    +0.000 A 
ATOM     11  C   UNL     1       2.941   5.042  18.921  0.00  0.00    +0.000 A 
ENDROOT
BRANCH   1  12
ATOM     12  C   UNL     1       3.713   3.777  16.893  0.00  0.00    +0.000 C 
BRANCH  12  13
ATOM     13  C   UNL     1       5.206   4.004  16.606  0.00  0.00    +0.000 C 
BRANCH  13  14
ATOM     14  C   UNL     1       5.447   5.116  15.588  0.00  0.00    +0.000 C 
BRANCH  14  15
ATOM     15  C   UNL     1       6.472   4.741  14.522  0.00  0.00    +0.000 C 
BRANCH  15  16
ATOM     16  O   UNL     1       6.103   3.503  13.899  0.00  0.00    +0.000 OA
BRANCH  16  18
ATOM     17  C   UNL     1       7.198   4.118  11.924  0.00  0.00    +0.000 C 
ATOM     18  C   UNL     1       5.957   3.560  12.545  0.00  0.00    +0.000 C 
ATOM     19  O   UNL     1       4.968   3.207  11.918  0.00  0.00    +0.000 OA
ENDBRANCH  16  18
ENDBRANCH  15  16
ENDBRANCH  14  15
ENDBRANCH  13  14
ENDBRANCH  12  13
ENDBRANCH   1  12
TORSDOF 6
ENDMDL
MODEL 6
REMARK VINA RESULT:      -6.3      2.491      3.536
REMARK  Name = 
REMARK  7 active torsions:
REMARK  status: ('A' for Active; 'I' for Inactive)
REMARK    1  A    between atoms: C_1  and  C_2
REMARK    2  A    between atoms: C_2  and  O_4
REMARK    3  A    between atoms: O_4  and  C_5
REMARK    4  A    between atoms: C_5  and  C_6
REMARK    5  A    between atoms: C_6  and  C_7
REMARK    6  A    between atoms: C_7  and  C_8
REMARK    7  A    between atoms: C_8  and  N_9
REMARK                            x       y       z     vdW  Elec       q    Type
REMARK                         _______ _______ _______ _____ _____    ______ ____
ROOT
ATOM      1  N   UNL     1       3.678   4.939  18.020  0.00  0.00    +0.000 N 
ATOM      2  C   UNL     1       3.683   6.327  17.823  0.00  0.00    +0.000 C 
ATOM      3  O   UNL     1       4.575   6.915  17.206  0.00  0.00    +0.000 OA
ATOM      4  C   UNL     1       2.460   7.093  18.278  0.00  0.00    +0.000 C 
ATOM      5  S   UNL     1       2.093   6.756  20.004  0.00  0.00    +0.000 S 
ATOM      6  C   UNL     1       1.988   4.986  19.839  0.00  0.00    +0.000 A 
ATOM      7  C   UNL     1       1.159   4.305  20.742  0.00  0.00    +0.000 A 
ATOM      8  C   UNL     1       1.037   2.920  20.687  0.00  0.00    +0.000 A 
ATOM      9  C   UNL     1       1.741   2.206  19.725  0.00  0.00    +0.000 A 
ATOM     10  C   UNL     1       2.578   2.877  18.831  0.00  0.00    +0.000 A 
ATOM     11  C   UNL     1       2.735   4.274  18.880  0.00  0.00    +0.000 A 
ENDROOT
BRANCH   1  12
ATOM     12  C   UNL     1       4.771   4.170  17.412  0.00  0.00    +0.000 C 
BRANCH  12  13
ATOM     13  C   UNL     1       4.721   4.167  15.876  0.00  0.00    +0.000 C 
BRANCH  13  14
ATOM     14  C   UNL     1       6.073   3.848  15.244  0.00  0.00    +0.000 C 
BRANCH  14  15
ATOM     15  C   UNL     1       7.075   4.992  15.362  0.00  0.00    +0.000 C 
BRANCH  15  16
ATOM     16  O   UNL     1       7.677   4.987  16.663  0.00  0.00    +0.000 OA
BRANCH  16  18
ATOM     17  C   UNL     1       7.674   5.997  18.774  0.00  0.00    +0.000 C 
ATOM     18  C   UNL     1       7.705   6.196  17.292  0.00  0.00    +0.000 C 
ATOM     19  O   UNL     1       7.753   7.286  16.741  0.00  0.00    +0.000 OA
ENDBRANCH  16  18
ENDBRANCH  15  16
ENDBRANCH  14  15
ENDBRANCH  13  14
ENDBRANCH  12  13
ENDBRANCH   1  12
TORSDOF 6
ENDMDL
MODEL 7
REMARK VINA RESULT:      -6.3      3.096      4.842
REMARK  Name = 
REMARK  7 active torsions:
REMARK  status: ('A' for Active; 'I' for Inactive)
REMARK    1  A    between atoms: C_1  and  C_2
REMARK    2  A    between atoms: C_2  and  O_4
REMARK    3  A    between atoms: O_4  and  C_5
REMARK    4  A    between atoms: C_5  and  C_6
REMARK    5  A    between atoms: C_6  and  C_7
REMARK    6  A    between atoms: C_7  and  C_8
REMARK    7  A    between atoms: C_8  and  N_9
REMARK                            x       y       z     vdW  Elec       q    Type
REMARK                         _______ _______ _______ _____ _____    ______ ____
ROOT
ATOM      1  N   UNL     1       3.127   3.843  18.382  0.00  0.00    +0.000 N 
ATOM      2  C   UNL     1       3.285   2.651  19.103  0.00  0.00    +0.000 C 
ATOM      3  O   UNL     1       3.467   1.557  18.562  0.00  0.00    +0.000 OA
ATOM      4  C   UNL     1       3.367   2.761  20.610  0.00  0.00    +0.000 C 
ATOM      5  S   UNL     1       1.955   3.653  21.270  0.00  0.00    +0.000 S 
ATOM      6  C   UNL     1       2.173   5.121  20.286  0.00  0.00    +0.000 A 
ATOM      7  C   UNL     1       1.706   6.329  20.822  0.00  0.00    +0.000 A 
ATOM      8  C   UNL     1       1.826   7.517  20.106  0.00  0.00    +0.000 A 
ATOM      9  C   UNL     1       2.419   7.504  18.850  0.00  0.00    +0.000 A 
ATOM     10  C   UNL     1       2.875   6.302  18.305  0.00  0.00    +0.000 A 
ATOM     11  C   UNL     1       2.746   5.086  18.999  0.00  0.00    +0.000 A 
ENDROOT
BRANCH   1  12
ATOM     12  C   UNL     1       3.237   3.763  16.920  0.00  0.00    +0.000 C 
BRANCH  12  13
ATOM     13  C   UNL     1       4.685   3.594  16.436  0.00  0.00    +0.000 C 
BRANCH  13  14
ATOM     14  C   UNL     1       5.652   4.548  17.131  0.00  0.00    +0.000 C 
BRANCH  14  15
ATOM     15  C   UNL     1       6.064   5.728  16.255  0.00  0.00    +0.000 C 
BRANCH  15  16
ATOM     16  O   UNL     1       7.418   6.104  16.541  0.00  0.00    +0.000 OA
BRANCH  16  18
ATOM     17  C   UNL     1       8.027   6.566  18.753  0.00  0.00    +0.000 C 
ATOM     18  C   UNL     1       7.558   7.116  17.443  0.00  0.00    +0.000 C 
ATOM     19  O   UNL     1       7.341   8.299  17.228  0.00  0.00    +0.000 OA
ENDBRANCH  16  18
ENDBRANCH  15  16
ENDBRANCH  14  15
ENDBRANCH  13  14
ENDBRANCH  12  13
ENDBRANCH   1  12
TORSDOF 6
ENDMDL
MODEL 8
REMARK VINA RESULT:      -6.3      2.425      3.690
REMARK  Name = 
REMARK  7 active torsions:
REMARK  status: ('A' for Active; 'I' for Inactive)
REMARK    1  A    between atoms: C_1  and  C_2
REMARK    2  A    between atoms: C_2  and  O_4
REMARK    3  A    between atoms: O_4  and  C_5
REMARK    4  A    between atoms: C_5  and  C_6
REMARK    5  A    between atoms: C_6  and  C_7
REMARK    6  A    between atoms: C_7  and  C_8
REMARK    7  A    between atoms: C_8  and  N_9
REMARK                            x       y       z     vdW  Elec       q    Type
REMARK                         _______ _______ _______ _____ _____    ______ ____
ROOT
ATOM      1  N   UNL     1       3.170   3.747  18.369  0.00  0.00    +0.000 N 
ATOM      2  C   UNL     1       3.190   2.560  19.115  0.00  0.00    +0.000 C 
ATOM      3  O   UNL     1       3.353   1.448  18.606  0.00  0.00    +0.000 OA
ATOM      4  C   UNL     1       3.144   2.691  20.622  0.00  0.00    +0.000 C 
ATOM      5  S   UNL     1       1.735   3.676  21.141  0.00  0.00    +0.000 S 
ATOM      6  C   UNL     1       2.130   5.112  20.163  0.00  0.00    +0.000 A 
ATOM      7  C   UNL     1       1.691   6.354  20.641  0.00  0.00    +0.000 A 
ATOM      8  C   UNL     1       1.947   7.520  19.925  0.00  0.00    +0.000 A 
ATOM      9  C   UNL     1       2.648   7.451  18.728  0.00  0.00    +0.000 A 
ATOM     10  C   UNL     1       3.077   6.215  18.240  0.00  0.00    +0.000 A 
ATOM     11  C   UNL     1       2.812   5.020  18.934  0.00  0.00    +0.000 A 
ENDROOT
BRANCH   1  12
ATOM     12  C   UNL     1       3.406   3.635  16.924  0.00  0.00    +0.000 C 
BRANCH  12  13
ATOM     13  C   UNL     1       4.895   3.504  16.567  0.00  0.00    +0.000 C 
BRANCH  13  14
ATOM     14  C   UNL     1       5.371   4.600  15.618  0.00  0.00    +0.000 C 
BRANCH  14  15
ATOM     15  C   UNL     1       6.700   4.274  14.942  0.00  0.00    +0.000 C 
BRANCH  15  16
ATOM     16  O   UNL     1       7.348   5.482  14.523  0.00  0.00    +0.000 OA
BRANCH  16  18
ATOM     17  C   UNL     1       7.225   4.462  12.420  0.00  0.00    +0.000 C 
ATOM     18  C   UNL     1       7.960   5.417  13.307  0.00  0.00    +0.000 C 
ATOM     19  O   UNL     1       8.957   6.041  12.975  0.00  0.00    +0.000 OA
ENDBRANCH  16  18
ENDBRANCH  15  16
ENDBRANCH  14  15
ENDBRANCH  13  14
ENDBRANCH  12  13
ENDBRANCH   1  12
TORSDOF 6
ENDMDL
MODEL 9
REMARK VINA RESULT:      -6.2      2.382      3.253
REMARK  Name = 
REMARK  7 active torsions:
REMARK  status: ('A' for Active; 'I' for Inactive)
REMARK    1  A    between atoms: C_1  and  C_2
REMARK    2  A    between atoms: C_2  and  O_4
REMARK    3  A    between atoms: O_4  and  C_5
REMARK    4  A    between atoms: C_5  and  C_6
REMARK    5  A    between atoms: C_6  and  C_7
REMARK    6  A    between atoms: C_7  and  C_8
REMARK    7  A    between atoms: C_8  and  N_9
REMARK                            x       y       z     vdW  Elec       q    Type
REMARK                         _______ _______ _______ _____ _____    ______ ____
ROOT
ATOM      1  N   UNL     1       2.841   5.754  18.736  0.00  0.00    +0.000 N 
ATOM      2  C   UNL     1       2.205   6.344  19.838  0.00  0.00    +0.000 C 
ATOM      3  O   UNL     1       2.204   7.560  20.042  0.00  0.00    +0.000 OA
ATOM      4  C   UNL     1       1.377   5.438  20.723  0.00  0.00    +0.000 C 
ATOM      5  S   UNL     1       2.343   4.036  21.295  0.00  0.00    +0.000 S 
ATOM      6  C   UNL     1       2.823   3.458  19.681  0.00  0.00    +0.000 A 
ATOM      7  C   UNL     1       3.082   2.087  19.540  0.00  0.00    +0.000 A 
ATOM      8  C   UNL     1       3.478   1.562  18.314  0.00  0.00    +0.000 A 
ATOM      9  C   UNL     1       3.614   2.405  17.218  0.00  0.00    +0.000 A 
ATOM     10  C   UNL     1       3.370   3.773  17.354  0.00  0.00    +0.000 A 
ATOM     11  C   UNL     1       2.989   4.331  18.587  0.00  0.00    +0.000 A 
ENDROOT
BRANCH   1  12
ATOM     12  C   UNL     1       3.486   6.655  17.772  0.00  0.00    +0.000 C 
BRANCH  12  13
ATOM     13  C   UNL     1       5.010   6.733  17.950  0.00  0.00    +0.000 C 
BRANCH  13  14
ATOM     14  C   UNL     1       5.765   6.550  16.636  0.00  0.00    +0.000 C 
BRANCH  14  15
ATOM     15  C   UNL     1       7.199   6.067  16.831  0.00  0.00    +0.000 C 
BRANCH  15  16
ATOM     16  O   UNL     1       7.382   4.798  16.188  0.00  0.00    +0.000 OA
BRANCH  16  18
ATOM     17  C   UNL     1       6.082   3.821  14.505  0.00  0.00    +0.000 C 
ATOM     18  C   UNL     1       7.166   4.796  14.843  0.00  0.00    +0.000 C 
ATOM     19  O   UNL     1       7.756   5.485  14.024  0.00  0.00    +0.000 OA
ENDBRANCH  16  18
ENDBRANCH  15  16
ENDBRANCH  14  15
ENDBRANCH  13  14
ENDBRANCH  12  13
ENDBRANCH   1  12
TORSDOF 6
ENDMDL
