MODEL 1
REMARK VINA RESULT:      -7.4      0.000      0.000
REMARK  Name = 
REMARK  4 active torsions:
REMARK  status: ('A' for Active; 'I' for Inactive)
REMARK    1  A    between atoms: C_2  and  C_3
REMARK    2  A    between atoms: C_3  and  N_4
REMARK    3  A    between atoms: N_11  and  C_12
REMARK    4  A    between atoms: C_12  and  C_13
REMARK                            x       y       z     vdW  Elec       q    Type
REMARK                         _______ _______ _______ _____ _____    ______ ____
ROOT
ATOM      1  O   UNL     1       2.926   4.339  17.202  0.00  0.00    +0.000 OA
ATOM      2  C   UNL     1       3.587   3.306  17.284  0.00  0.00    +0.000 C 
ATOM      3  N   UNL     1       4.839   3.151  16.734  0.00  0.00    +0.000 N 
ATOM      4  H   UNL     1       5.186   2.199  16.621  0.00  0.00    +0.000 HD
ENDROOT
BRANCH   2   5
ATOM      5  C   UNL     1       3.040   2.041  17.939  0.00  0.00    +0.000 C 
BRANCH   5   6
ATOM      6  N   UNL     1       2.500   2.374  19.250  0.00  0.00    +0.000 N 
ATOM      7  C   UNL     1       3.354   2.621  20.301  0.00  0.00    +0.000 A 
ATOM      8  C   UNL     1       2.882   2.948  21.502  0.00  0.00    +0.000 A 
ATOM      9  C   UNL     1       1.418   3.021  21.579  0.00  0.00    +0.000 A 
ATOM     10  N   UNL     1       0.597   2.819  20.606  0.00  0.00    +0.000 NA
ATOM     11  C   UNL     1       1.113   2.513  19.369  0.00  0.00    +0.000 A 
ATOM     12  O   UNL     1       0.382   2.366  18.389  0.00  0.00    +0.000 OA
ENDBRANCH   5   6
ENDBRANCH   2   5
BRANCH   3  13
ATOM     13  C   UNL     1       5.455   4.173  15.927  0.00  0.00    +0.000 C 
BRANCH  13  14
ATOM     14  C   UNL     1       6.277   5.096  16.787  0.00  0.00    +0.000 A 
ATOM     15  C   UNL     1       7.069   4.585  17.843  0.00  0.00    +0.000 A 
ATOM     16  C   UNL     1       7.854   5.436  18.628  0.00  0.00    +0.000 A 
ATOM     17  C   UNL     1       7.834   6.780  18.328  0.00  0.00    +0.000 A 
ATOM     18  C   UNL     1       7.039   7.288  17.326  0.00  0.00    +0.000 A 
ATOM     19  C   UNL     1       6.237   6.479  16.554  0.00  0.00    +0.000 A 
ATOM     20  O   UNL     1       7.179   8.634  17.184  0.00  0.00    +0.000 OA
ATOM     21  C   UNL     1       8.301   8.864  18.059  0.00  0.00    +0.000 C 
ATOM     22  O   UNL     1       8.579   7.748  18.930  0.00  0.00    +0.000 OA
ENDBRANCH  13  14
ENDBRANCH   3  13
TORSDOF 4
ENDMDL
MODEL 2
REMARK VINA RESULT:      -7.3      4.336      4.949
REMARK  Name = 
REMARK  4 active torsions:
REMARK  status: ('A' for Active; 'I' for Inactive)
REMARK    1  A    between atoms: C_2  and  C_3
REMARK    2  A    between atoms: C_3  and  N_4
REMARK    3  A    between atoms: N_11  and  C_12
REMARK    4  A    between atoms: C_12  and  C_13
REMARK                            x       y       z     vdW  Elec       q    Type
REMARK                         _______ _______ _______ _____ _____    ______ ____
ROOT
ATOM      1  O   UNL     1       5.354   4.770  17.820  0.00  0.00    +0.000 OA
ATOM      2  C   UNL     1       4.146   4.551  17.753  0.00  0.00    +0.000 C 
ATOM      3  N   UNL     1       3.196   5.532  17.584  0.00  0.00    +0.000 N 
ATOM      4  H   UNL     1       2.231   5.293  17.808  0.00  0.00    +0.000 HD
ENDROOT
BRANCH   2   5
ATOM      5  C   UNL     1       3.562   3.153  17.945  0.00  0.00    +0.000 C 
BRANCH   5   6
ATOM      6  N   UNL     1       2.909   3.079  19.245  0.00  0.00    +0.000 N 
ATOM      7  C   UNL     1       1.574   3.395  19.360  0.00  0.00    +0.000 A 
ATOM      8  C   UNL     1       0.953   3.314  20.535  0.00  0.00    +0.000 A 
ATOM      9  C   UNL     1       1.804   2.862  21.642  0.00  0.00    +0.000 A 
ATOM     10  N   UNL     1       3.048   2.536  21.556  0.00  0.00    +0.000 NA
ATOM     11  C   UNL     1       3.657   2.600  20.325  0.00  0.00    +0.000 A 
ATOM     12  O   UNL     1       4.827   2.247  20.170  0.00  0.00    +0.000 OA
ENDBRANCH   5   6
ENDBRANCH   2   5
BRANCH   3  13
ATOM     13  C   UNL     1       3.534   6.932  17.558  0.00  0.00    +0.000 C 
BRANCH  13  14
ATOM     14  C   UNL     1       2.612   7.712  18.456  0.00  0.00    +0.000 A 
ATOM     15  C   UNL     1       2.304   7.244  19.756  0.00  0.00    +0.000 A 
ATOM     16  C   UNL     1       1.468   7.979  20.603  0.00  0.00    +0.000 A 
ATOM     17  C   UNL     1       0.968   9.172  20.130  0.00  0.00    +0.000 A 
ATOM     18  C   UNL     1       1.236   9.615  18.855  0.00  0.00    +0.000 A 
ATOM     19  C   UNL     1       2.033   8.903  17.989  0.00  0.00    +0.000 A 
ATOM     20  O   UNL     1       0.661  10.820  18.593  0.00  0.00    +0.000 OA
ATOM     21  C   UNL     1       0.193  11.168  19.912  0.00  0.00    +0.000 C 
ATOM     22  O   UNL     1       0.201  10.054  20.828  0.00  0.00    +0.000 OA
ENDBRANCH  13  14
ENDBRANCH   3  13
TORSDOF 4
ENDMDL
MODEL 3
REMARK VINA RESULT:      -7.3      4.089      4.623
REMARK  Name = 
REMARK  4 active torsions:
REMARK  status: ('A' for Active; 'I' for Inactive)
REMARK    1  A    between atoms: C_2  and  C_3
REMARK    2  A    between atoms: C_3  and  N_4
REMARK    3  A    between atoms: N_11  and  C_12
REMARK    4  A    between atoms: C_12  and  C_13
REMARK                            x       y       z     vdW  Elec       q    Type
REMARK                         _______ _______ _______ _____ _____    ______ ____
ROOT
ATOM      1  O   UNL     1       5.472   4.895  18.633  0.00  0.00    +0.000 OA
ATOM      2  C   UNL     1       4.423   4.594  18.069  0.00  0.00    +0.000 C 
ATOM      3  N   UNL     1       3.604   5.502  17.437  0.00  0.00    +0.000 N 
ATOM      4  H   UNL     1       2.647   5.211  17.240  0.00  0.00    +0.000 HD
ENDROOT
BRANCH   2   5
ATOM      5  C   UNL     1       3.867   3.173  18.090  0.00  0.00    +0.000 C 
BRANCH   5   6
ATOM      6  N   UNL     1       2.925   3.041  19.193  0.00  0.00    +0.000 N 
ATOM      7  C   UNL     1       3.390   2.794  20.466  0.00  0.00    +0.000 A 
ATOM      8  C   UNL     1       2.547   2.691  21.492  0.00  0.00    +0.000 A 
ATOM      9  C   UNL     1       1.134   2.871  21.137  0.00  0.00    +0.000 A 
ATOM     10  N   UNL     1       0.675   3.129  19.960  0.00  0.00    +0.000 NA
ATOM     11  C   UNL     1       1.570   3.259  18.924  0.00  0.00    +0.000 A 
ATOM     12  O   UNL     1       1.197   3.561  17.790  0.00  0.00    +0.000 OA
ENDBRANCH   5   6
ENDBRANCH   2   5
BRANCH   3  13
ATOM     13  C   UNL     1       3.867   6.918  17.458  0.00  0.00    +0.000 C 
BRANCH  13  14
ATOM     14  C   UNL     1       2.861   7.626  18.327  0.00  0.00    +0.000 A 
ATOM     15  C   UNL     1       2.513   7.108  19.598  0.00  0.00    +0.000 A 
ATOM     16  C   UNL     1       1.600   7.777  20.419  0.00  0.00    +0.000 A 
ATOM     17  C   UNL     1       1.062   8.955  19.950  0.00  0.00    +0.000 A 
ATOM     18  C   UNL     1       1.369   9.445  18.701  0.00  0.00    +0.000 A 
ATOM     19  C   UNL     1       2.245   8.797  17.860  0.00  0.00    +0.000 A 
ATOM     20  O   UNL     1       0.746  10.626  18.440  0.00  0.00    +0.000 OA
ATOM     21  C   UNL     1       0.196  10.914  19.740  0.00  0.00    +0.000 C 
ATOM     22  O   UNL     1       0.216   9.777  20.629  0.00  0.00    +0.000 OA
ENDBRANCH  13  14
ENDBRANCH   3  13
TORSDOF 4
ENDMDL
MODEL 4
REMARK VINA RESULT:      -7.2      2.863      7.371
REMARK  Name = 
REMARK  4 active torsions:
REMARK  status: ('A' for Active; 'I' for Inactive)
REMARK    1  A    between atoms: C_2  and  C_3
REMARK    2  A    between atoms: C_3  and  N_4
REMARK    3  A    between atoms: N_11  and  C_12
REMARK    4  A    between atoms: C_12  and  C_13
REMARK                            x       y       z     vdW  Elec       q    Type
REMARK                         _______ _______ _______ _____ _____    ______ ____
ROOT
ATOM      1  O   UNL     1       6.157   7.029  16.088  0.00  0.00    +0.000 OA
ATOM      2  C   UNL     1       6.013   5.815  16.220  0.00  0.00    +0.000 C 
ATOM      3  N   UNL     1       4.937   5.235  16.851  0.00  0.00    +0.000 N 
ATOM      4  H   UNL     1       5.034   4.264  17.145  0.00  0.00    +0.000 HD
ENDROOT
BRANCH   2   5
ATOM      5  C   UNL     1       7.076   4.817  15.769  0.00  0.00    +0.000 C 
BRANCH   5   6
ATOM      6  N   UNL     1       6.852   4.477  14.371  0.00  0.00    +0.000 N 
ATOM      7  C   UNL     1       5.795   3.666  14.023  0.00  0.00    +0.000 A 
ATOM      8  C   UNL     1       5.561   3.360  12.748  0.00  0.00    +0.000 A 
ATOM      9  C   UNL     1       6.502   3.961  11.797  0.00  0.00    +0.000 A 
ATOM     10  N   UNL     1       7.483   4.743  12.093  0.00  0.00    +0.000 NA
ATOM     11  C   UNL     1       7.685   5.067  13.414  0.00  0.00    +0.000 A 
ATOM     12  O   UNL     1       8.569   5.854  13.753  0.00  0.00    +0.000 OA
ENDBRANCH   5   6
ENDBRANCH   2   5
BRANCH   3  13
ATOM     13  C   UNL     1       3.913   6.015  17.497  0.00  0.00    +0.000 C 
BRANCH  13  14
ATOM     14  C   UNL     1       3.005   5.125  18.304  0.00  0.00    +0.000 A 
ATOM     15  C   UNL     1       1.973   4.388  17.676  0.00  0.00    +0.000 A 
ATOM     16  C   UNL     1       1.145   3.539  18.418  0.00  0.00    +0.000 A 
ATOM     17  C   UNL     1       1.378   3.441  19.772  0.00  0.00    +0.000 A 
ATOM     18  C   UNL     1       2.358   4.182  20.394  0.00  0.00    +0.000 A 
ATOM     19  C   UNL     1       3.171   5.044  19.695  0.00  0.00    +0.000 A 
ATOM     20  O   UNL     1       2.433   3.926  21.728  0.00  0.00    +0.000 OA
ATOM     21  C   UNL     1       1.543   2.796  21.818  0.00  0.00    +0.000 C 
ATOM     22  O   UNL     1       0.727   2.621  20.642  0.00  0.00    +0.000 OA
ENDBRANCH  13  14
ENDBRANCH   3  13
TORSDOF 4
ENDMDL
MODEL 5
REMARK VINA RESULT:      -7.1      4.717      6.682
REMARK  Name = 
REMARK  4 active torsions:
REMARK  status: ('A' for Active; 'I' for Inactive)
REMARK    1  A    between atoms: C_2  and  C_3
REMARK    2  A    between atoms: C_3  and  N_4
REMARK    3  A    between atoms: N_11  and  C_12
REMARK    4  A    between atoms: C_12  and  C_13
REMARK                            x       y       z     vdW  Elec       q    Type
REMARK                         _______ _______ _______ _____ _____    ______ ____
ROOT
ATOM      1  O   UNL     1       3.494   4.185  18.505  0.00  0.00    +0.000 OA
ATOM      2  C   UNL     1       4.170   5.012  19.114  0.00  0.00    +0.000 C 
ATOM      3  N   UNL     1       3.640   6.006  19.904  0.00  0.00    +0.000 N 
ATOM      4  H   UNL     1       4.247   6.788  20.143  0.00  0.00    +0.000 HD
ENDROOT
BRANCH   2   5
ATOM      5  C   UNL     1       5.689   5.074  18.982  0.00  0.00    +0.000 C 
BRANCH   5   6
ATOM      6  N   UNL     1       6.048   5.080  17.570  0.00  0.00    +0.000 N 
ATOM      7  C   UNL     1       5.172   5.596  16.642  0.00  0.00    +0.000 A 
ATOM      8  C   UNL     1       5.489   5.630  15.349  0.00  0.00    +0.000 A 
ATOM      9  C   UNL     1       6.818   5.091  15.035  0.00  0.00    +0.000 A 
ATOM     10  N   UNL     1       7.667   4.626  15.887  0.00  0.00    +0.000 NA
ATOM     11  C   UNL     1       7.326   4.630  17.219  0.00  0.00    +0.000 A 
ATOM     12  O   UNL     1       8.116   4.252  18.084  0.00  0.00    +0.000 OA
ENDBRANCH   5   6
ENDBRANCH   2   5
BRANCH   3  13
ATOM     13  C   UNL     1       2.219   6.221  20.017  0.00  0.00    +0.000 C 
BRANCH  13  14
ATOM     14  C   UNL     1       1.867   7.626  19.607  0.00  0.00    +0.000 A 
ATOM     15  C   UNL     1       2.155   8.091  18.302  0.00  0.00    +0.000 A 
ATOM     16  C   UNL     1       1.805   9.387  17.908  0.00  0.00    +0.000 A 
ATOM     17  C   UNL     1       1.166  10.184  18.832  0.00  0.00    +0.000 A 
ATOM     18  C   UNL     1       0.915   9.750  20.113  0.00  0.00    +0.000 A 
ATOM     19  C   UNL     1       1.269   8.490  20.537  0.00  0.00    +0.000 A 
ATOM     20  O   UNL     1       0.262  10.683  20.858  0.00  0.00    +0.000 OA
ATOM     21  C   UNL     1      -0.050  11.649  19.835  0.00  0.00    +0.000 C 
ATOM     22  O   UNL     1       0.689  11.441  18.614  0.00  0.00    +0.000 OA
ENDBRANCH  13  14
ENDBRANCH   3  13
TORSDOF 4
ENDMDL
MODEL 6
REMARK VINA RESULT:      -7.1      3.797      4.783
REMARK  Name = 
REMARK  4 active torsions:
REMARK  status: ('A' for Active; 'I' for Inactive)
REMARK    1  A    between atoms: C_2  and  C_3
REMARK    2  A    between atoms: C_3  and  N_4
REMARK    3  A    between atoms: N_11  and  C_12
REMARK    4  A    between atoms: C_12  and  C_13
REMARK                            x       y       z     vdW  Elec       q    Type
REMARK                         _______ _______ _______ _____ _____    ______ ____
ROOT
ATOM      1  O   UNL     1       3.059   3.875  16.319  0.00  0.00    +0.000 OA
ATOM      2  C   UNL     1       3.502   3.879  17.466  0.00  0.00    +0.000 C 
ATOM      3  N   UNL     1       3.923   5.013  18.121  0.00  0.00    +0.000 N 
ATOM      4  H   UNL     1       4.511   4.888  18.944  0.00  0.00    +0.000 HD
ENDROOT
BRANCH   2   5
ATOM      5  C   UNL     1       3.717   2.593  18.259  0.00  0.00    +0.000 C 
BRANCH   5   6
ATOM      6  N   UNL     1       2.955   2.660  19.498  0.00  0.00    +0.000 N 
ATOM      7  C   UNL     1       1.604   2.928  19.459  0.00  0.00    +0.000 A 
ATOM      8  C   UNL     1       0.885   2.973  20.579  0.00  0.00    +0.000 A 
ATOM      9  C   UNL     1       1.650   2.707  21.803  0.00  0.00    +0.000 A 
ATOM     10  N   UNL     1       2.907   2.428  21.865  0.00  0.00    +0.000 NA
ATOM     11  C   UNL     1       3.620   2.359  20.691  0.00  0.00    +0.000 A 
ATOM     12  O   UNL     1       4.810   2.041  20.682  0.00  0.00    +0.000 OA
ENDBRANCH   5   6
ENDBRANCH   2   5
BRANCH   3  13
ATOM     13  C   UNL     1       3.962   6.302  17.478  0.00  0.00    +0.000 C 
BRANCH  13  14
ATOM     14  C   UNL     1       3.039   7.265  18.177  0.00  0.00    +0.000 A 
ATOM     15  C   UNL     1       2.582   8.433  17.520  0.00  0.00    +0.000 A 
ATOM     16  C   UNL     1       1.703   9.316  18.156  0.00  0.00    +0.000 A 
ATOM     17  C   UNL     1       1.295   9.002  19.433  0.00  0.00    +0.000 A 
ATOM     18  C   UNL     1       1.762   7.886  20.090  0.00  0.00    +0.000 A 
ATOM     19  C   UNL     1       2.647   7.012  19.501  0.00  0.00    +0.000 A 
ATOM     20  O   UNL     1       1.223   7.751  21.332  0.00  0.00    +0.000 OA
ATOM     21  C   UNL     1       0.216   8.782  21.282  0.00  0.00    +0.000 C 
ATOM     22  O   UNL     1       0.395   9.697  20.182  0.00  0.00    +0.000 OA
ENDBRANCH  13  14
ENDBRANCH   3  13
TORSDOF 4
ENDMDL
MODEL 7
REMARK VINA RESULT:      -7.0      3.499      4.464
REMARK  Name = 
REMARK  4 active torsions:
REMARK  status: ('A' for Active; 'I' for Inactive)
REMARK    1  A    between atoms: C_2  and  C_3
REMARK    2  A    between atoms: C_3  and  N_4
REMARK    3  A    between atoms: N_11  and  C_12
REMARK    4  A    between atoms: C_12  and  C_13
REMARK                            x       y       z     vdW  Elec       q    Type
REMARK                         _______ _______ _______ _____ _____    ______ ____
ROOT
ATOM      1  O   UNL     1       6.068   4.258  18.895  0.00  0.00    +0.000 OA
ATOM      2  C   UNL     1       4.952   3.875  18.550  0.00  0.00    +0.000 C 
ATOM      3  N   UNL     1       4.075   4.634  17.809  0.00  0.00    +0.000 N 
ATOM      4  H   UNL     1       3.097   4.348  17.803  0.00  0.00    +0.000 HD
ENDROOT
BRANCH   2   5
ATOM      5  C   UNL     1       4.381   2.531  18.993  0.00  0.00    +0.000 C 
BRANCH   5   6
ATOM      6  N   UNL     1       3.020   2.722  19.476  0.00  0.00    +0.000 N 
ATOM      7  C   UNL     1       2.805   3.202  20.748  0.00  0.00    +0.000 A 
ATOM      8  C   UNL     1       1.569   3.404  21.201  0.00  0.00    +0.000 A 
ATOM      9  C   UNL     1       0.509   3.083  20.238  0.00  0.00    +0.000 A 
ATOM     10  N   UNL     1       0.684   2.657  19.034  0.00  0.00    +0.000 NA
ATOM     11  C   UNL     1       1.971   2.486  18.581  0.00  0.00    +0.000 A 
ATOM     12  O   UNL     1       2.201   2.136  17.423  0.00  0.00    +0.000 OA
ENDBRANCH   5   6
ENDBRANCH   2   5
BRANCH   3  13
ATOM     13  C   UNL     1       4.361   5.997  17.441  0.00  0.00    +0.000 C 
BRANCH  13  14
ATOM     14  C   UNL     1       3.399   6.936  18.118  0.00  0.00    +0.000 A 
ATOM     15  C   UNL     1       2.981   8.128  17.479  0.00  0.00    +0.000 A 
ATOM     16  C   UNL     1       2.067   8.989  18.094  0.00  0.00    +0.000 A 
ATOM     17  C   UNL     1       1.584   8.630  19.333  0.00  0.00    +0.000 A 
ATOM     18  C   UNL     1       2.012   7.490  19.975  0.00  0.00    +0.000 A 
ATOM     19  C   UNL     1       2.930   6.636  19.407  0.00  0.00    +0.000 A 
ATOM     20  O   UNL     1       1.402   7.311  21.178  0.00  0.00    +0.000 OA
ATOM     21  C   UNL     1       0.400   8.345  21.107  0.00  0.00    +0.000 C 
ATOM     22  O   UNL     1       0.642   9.299  20.053  0.00  0.00    +0.000 OA
ENDBRANCH  13  14
ENDBRANCH   3  13
TORSDOF 4
ENDMDL
MODEL 8
REMARK VINA RESULT:      -7.0      2.355      3.093
REMARK  Name = 
REMARK  4 active torsions:
REMARK  status: ('A' for Active; 'I' for Inactive)
REMARK    1  A    between atoms: C_2  and  C_3
REMARK    2  A    between atoms: C_3  and  N_4
REMARK    3  A    between atoms: N_11  and  C_12
REMARK    4  A    between atoms: C_12  and  C_13
REMARK                            x       y       z     vdW  Elec       q    Type
REMARK                         _______ _______ _______ _____ _____    ______ ____
ROOT
ATOM      1  O   UNL     1       1.298   4.476  17.342  0.00  0.00    +0.000 OA
ATOM      2  C   UNL     1       1.622   4.506  18.528  0.00  0.00    +0.000 C 
ATOM      3  N   UNL     1       2.430   5.475  19.077  0.00  0.00    +0.000 N 
ATOM      4  H   UNL     1       2.855   5.273  19.981  0.00  0.00    +0.000 HD
ENDROOT
BRANCH   2   5
ATOM      5  C   UNL     1       1.228   3.404  19.506  0.00  0.00    +0.000 C 
BRANCH   5   6
ATOM      6  N   UNL     1       2.425   2.698  19.943  0.00  0.00    +0.000 N 
ATOM      7  C   UNL     1       3.292   2.175  19.009  0.00  0.00    +0.000 A 
ATOM      8  C   UNL     1       4.403   1.545  19.387  0.00  0.00    +0.000 A 
ATOM      9  C   UNL     1       4.599   1.480  20.840  0.00  0.00    +0.000 A 
ATOM     10  N   UNL     1       3.818   1.983  21.733  0.00  0.00    +0.000 NA
ATOM     11  C   UNL     1       2.694   2.654  21.315  0.00  0.00    +0.000 A 
ATOM     12  O   UNL     1       1.940   3.205  22.119  0.00  0.00    +0.000 OA
ENDBRANCH   5   6
ENDBRANCH   2   5
BRANCH   3  13
ATOM     13  C   UNL     1       3.045   6.505  18.280  0.00  0.00    +0.000 C 
BRANCH  13  14
ATOM     14  C   UNL     1       4.362   6.026  17.730  0.00  0.00    +0.000 A 
ATOM     15  C   UNL     1       5.322   5.423  18.578  0.00  0.00    +0.000 A 
ATOM     16  C   UNL     1       6.536   4.953  18.066  0.00  0.00    +0.000 A 
ATOM     17  C   UNL     1       6.756   5.090  16.714  0.00  0.00    +0.000 A 
ATOM     18  C   UNL     1       5.842   5.707  15.890  0.00  0.00    +0.000 A 
ATOM     19  C   UNL     1       4.650   6.202  16.368  0.00  0.00    +0.000 A 
ATOM     20  O   UNL     1       6.243   5.724  14.590  0.00  0.00    +0.000 OA
ATOM     21  C   UNL     1       7.397   4.864  14.672  0.00  0.00    +0.000 C 
ATOM     22  O   UNL     1       7.838   4.634  16.025  0.00  0.00    +0.000 OA
ENDBRANCH  13  14
ENDBRANCH   3  13
TORSDOF 4
ENDMDL
MODEL 9
REMARK VINA RESULT:      -7.0      2.989      7.236
REMARK  Name = 
REMARK  4 active torsions:
REMARK  status: ('A' for Active; 'I' for Inactive)
REMARK    1  A    between atoms: C_2  and  C_3
REMARK    2  A    between atoms: C_3  and  N_4
REMARK    3  A    between atoms: N_11  and  C_12
REMARK    4  A    between atoms: C_12  and  C_13
REMARK                            x       y       z     vdW  Elec       q    Type
REMARK                         _______ _______ _______ _____ _____    ______ ____
ROOT
ATOM      1  O   UNL     1       7.934   4.262  16.902  0.00  0.00    +0.000 OA
ATOM      2  C   UNL     1       7.165   5.213  16.785  0.00  0.00    +0.000 C 
ATOM      3  N   UNL     1       6.274   5.604  17.757  0.00  0.00    +0.000 N 
ATOM      4  H   UNL     1       5.509   6.215  17.474  0.00  0.00    +0.000 HD
ENDROOT
BRANCH   2   5
ATOM      5  C   UNL     1       7.058   6.016  15.491  0.00  0.00    +0.000 C 
BRANCH   5   6
ATOM      6  N   UNL     1       6.783   5.109  14.385  0.00  0.00    +0.000 N 
ATOM      7  C   UNL     1       5.640   4.340  14.396  0.00  0.00    +0.000 A 
ATOM      8  C   UNL     1       5.360   3.521  13.385  0.00  0.00    +0.000 A 
ATOM      9  C   UNL     1       6.349   3.532  12.302  0.00  0.00    +0.000 A 
ATOM     10  N   UNL     1       7.412   4.259  12.254  0.00  0.00    +0.000 NA
ATOM     11  C   UNL     1       7.663   5.119  13.297  0.00  0.00    +0.000 A 
ATOM     12  O   UNL     1       8.631   5.880  13.282  0.00  0.00    +0.000 OA
ENDBRANCH   5   6
ENDBRANCH   2   5
BRANCH   3  13
ATOM     13  C   UNL     1       6.102   4.866  18.982  0.00  0.00    +0.000 C 
BRANCH  13  14
ATOM     14  C   UNL     1       4.649   4.533  19.194  0.00  0.00    +0.000 A 
ATOM     15  C   UNL     1       3.752   5.501  19.706  0.00  0.00    +0.000 A 
ATOM     16  C   UNL     1       2.397   5.203  19.879  0.00  0.00    +0.000 A 
ATOM     17  C   UNL     1       1.969   3.943  19.525  0.00  0.00    +0.000 A 
ATOM     18  C   UNL     1       2.842   2.986  19.059  0.00  0.00    +0.000 A 
ATOM     19  C   UNL     1       4.185   3.240  18.902  0.00  0.00    +0.000 A 
ATOM     20  O   UNL     1       2.215   1.818  18.752  0.00  0.00    +0.000 OA
ATOM     21  C   UNL     1       0.839   2.230  18.875  0.00  0.00    +0.000 C 
ATOM     22  O   UNL     1       0.684   3.493  19.555  0.00  0.00    +0.000 OA
ENDBRANCH  13  14
ENDBRANCH   3  13
TORSDOF 4
ENDMDL
