MODEL 1
REMARK VINA RESULT:      -7.1      0.000      0.000
REMARK  Name = 
REMARK  6 active torsions:
REMARK  status: ('A' for Active; 'I' for Inactive)
REMARK    1  A    between atoms: C_1  and  C_2
REMARK    2  A    between atoms: C_2  and  C_3
REMARK    3  A    between atoms: C_6  and  C_7
REMARK    4  A    between atoms: N_9  and  C_10
REMARK    5  A    between atoms: C_12  and  N_13
REMARK    6  A    between atoms: C_16  and  O_17
REMARK                            x       y       z     vdW  Elec       q    Type
REMARK                         _______ _______ _______ _____ _____    ______ ____
ROOT
ATOM      1  C   UNL     1       2.801   6.603  18.608  0.00  0.00    +0.000 C 
ATOM      2  O   UNL     1       3.754   6.622  17.834  0.00  0.00    +0.000 OA
ATOM      3  N   UNL     1       2.232   5.476  19.176  0.00  0.00    +0.000 N 
ATOM      4  H   UNL     1       1.325   5.545  19.626  0.00  0.00    +0.000 HD
ENDROOT
BRANCH   1   8
ATOM      5  C   UNL     1       0.747  10.246  19.562  0.00  0.00    +0.000 A 
ATOM      6  C   UNL     1       0.943   9.247  20.521  0.00  0.00    +0.000 A 
ATOM      7  C   UNL     1       1.638   8.086  20.191  0.00  0.00    +0.000 A 
ATOM      8  C   UNL     1       2.165   7.910  18.904  0.00  0.00    +0.000 A 
ATOM      9  C   UNL     1       1.985   8.907  17.940  0.00  0.00    +0.000 A 
ATOM     10  C   UNL     1       1.279  10.071  18.273  0.00  0.00    +0.000 A 
BRANCH   5  12
ATOM     11  C   UNL     1      -1.437  11.469  19.345  0.00  0.00    +0.000 C 
ATOM     12  C   UNL     1      -0.030  11.486  19.922  0.00  0.00    +0.000 C 
ENDBRANCH   5  12
ENDBRANCH   1   8
BRANCH   3  13
ATOM     13  C   UNL     1       2.692   4.147  18.976  0.00  0.00    +0.000 A 
ATOM     14  C   UNL     1       3.712   3.572  19.742  0.00  0.00    +0.000 A 
ATOM     15  C   UNL     1       4.210   2.297  19.460  0.00  0.00    +0.000 A 
ATOM     16  C   UNL     1       3.588   1.536  18.471  0.00  0.00    +0.000 A 
ATOM     17  C   UNL     1       2.543   2.074  17.713  0.00  0.00    +0.000 A 
ATOM     18  C   UNL     1       2.101   3.374  17.970  0.00  0.00    +0.000 A 
BRANCH  15  19
ATOM     19  N   UNL     1       5.164   1.722  20.311  0.00  0.00    +0.000 N 
ATOM     20  H   UNL     1       5.185   0.706  20.248  0.00  0.00    +0.000 HD
ATOM     21  H   UNL     1       5.103   2.039  21.272  0.00  0.00    +0.000 HD
ENDBRANCH  15  19
BRANCH  18  22
ATOM     22  O   UNL     1       1.076   3.913  17.235  0.00  0.00    +0.000 OA
ATOM     23  H   UNL     1       1.183   3.624  16.313  0.00  0.00    +0.000 HD
ENDBRANCH  18  22
ENDBRANCH   3  13
TORSDOF 5
ENDMDL
MODEL 2
REMARK VINA RESULT:      -7.0      0.923      1.067
REMARK  Name = 
REMARK  6 active torsions:
REMARK  status: ('A' for Active; 'I' for Inactive)
REMARK    1  A    between atoms: C_1  and  C_2
REMARK    2  A    between atoms: C_2  and  C_3
REMARK    3  A    between atoms: C_6  and  C_7
REMARK    4  A    between atoms: N_9  and  C_10
REMARK    5  A    between atoms: C_12  and  N_13
REMARK    6  A    between atoms: C_16  and  O_17
REMARK                            x       y       z     vdW  Elec       q    Type
REMARK                         _______ _______ _______ _____ _____    ______ ____
ROOT
ATOM      1  C   UNL     1       2.586   6.596  19.180  0.00  0.00    +0.000 C 
ATOM      2  O   UNL     1       3.529   6.768  18.413  0.00  0.00    +0.000 OA
ATOM      3  N   UNL     1       2.071   5.375  19.580  0.00  0.00    +0.000 N 
ATOM      4  H   UNL     1       1.166   5.339  20.039  0.00  0.00    +0.000 HD
ENDROOT
BRANCH   1   8
ATOM      5  C   UNL     1       0.401   9.967  20.683  0.00  0.00    +0.000 A 
ATOM      6  C   UNL     1       0.704   8.873  21.499  0.00  0.00    +0.000 A 
ATOM      7  C   UNL     1       1.439   7.804  20.993  0.00  0.00    +0.000 A 
ATOM      8  C   UNL     1       1.900   7.817  19.669  0.00  0.00    +0.000 A 
ATOM      9  C   UNL     1       1.614   8.912  18.847  0.00  0.00    +0.000 A 
ATOM     10  C   UNL     1       0.868   9.983  19.358  0.00  0.00    +0.000 A 
BRANCH   5  12
ATOM     11  C   UNL     1      -0.795  10.889  22.692  0.00  0.00    +0.000 C 
ATOM     12  C   UNL     1      -0.418  11.107  21.234  0.00  0.00    +0.000 C 
ENDBRANCH   5  12
ENDBRANCH   1   8
BRANCH   3  13
ATOM     13  C   UNL     1       2.582   4.111  19.184  0.00  0.00    +0.000 A 
ATOM     14  C   UNL     1       3.606   3.454  19.877  0.00  0.00    +0.000 A 
ATOM     15  C   UNL     1       4.156   2.256  19.409  0.00  0.00    +0.000 A 
ATOM     16  C   UNL     1       3.583   1.643  18.296  0.00  0.00    +0.000 A 
ATOM     17  C   UNL     1       2.536   2.261  17.605  0.00  0.00    +0.000 A 
ATOM     18  C   UNL     1       2.042   3.489  18.053  0.00  0.00    +0.000 A 
BRANCH  15  19
ATOM     19  N   UNL     1       5.112   1.585  20.184  0.00  0.00    +0.000 N 
ATOM     20  H   UNL     1       4.721   1.200  21.042  0.00  0.00    +0.000 HD
ATOM     21  H   UNL     1       5.952   2.124  20.360  0.00  0.00    +0.000 HD
ENDBRANCH  15  19
BRANCH  18  22
ATOM     22  O   UNL     1       1.014   4.105  17.385  0.00  0.00    +0.000 OA
ATOM     23  H   UNL     1       0.583   3.442  16.819  0.00  0.00    +0.000 HD
ENDBRANCH  18  22
ENDBRANCH   3  13
TORSDOF 5
ENDMDL
MODEL 3
REMARK VINA RESULT:      -6.8      0.317      1.153
REMARK  Name = 
REMARK  6 active torsions:
REMARK  status: ('A' for Active; 'I' for Inactive)
REMARK    1  A    between atoms: C_1  and  C_2
REMARK    2  A    between atoms: C_2  and  C_3
REMARK    3  A    between atoms: C_6  and  C_7
REMARK    4  A    between atoms: N_9  and  C_10
REMARK    5  A    between atoms: C_12  and  N_13
REMARK    6  A    between atoms: C_16  and  O_17
REMARK                            x       y       z     vdW  Elec       q    Type
REMARK                         _______ _______ _______ _____ _____    ______ ____
ROOT
ATOM      1  C   UNL     1       2.671   6.654  18.827  0.00  0.00    +0.000 C 
ATOM      2  O   UNL     1       3.657   6.744  18.102  0.00  0.00    +0.000 OA
ATOM      3  N   UNL     1       2.113   5.480  19.304  0.00  0.00    +0.000 N 
ATOM      4  H   UNL     1       1.183   5.497  19.713  0.00  0.00    +0.000 HD
ENDROOT
BRANCH   1   8
ATOM      5  C   UNL     1       0.892  10.456  19.708  0.00  0.00    +0.000 A 
ATOM      6  C   UNL     1       1.353  10.148  18.425  0.00  0.00    +0.000 A 
ATOM      7  C   UNL     1       1.901   8.895  18.160  0.00  0.00    +0.000 A 
ATOM      8  C   UNL     1       1.981   7.923  19.166  0.00  0.00    +0.000 A 
ATOM      9  C   UNL     1       1.512   8.216  20.451  0.00  0.00    +0.000 A 
ATOM     10  C   UNL     1       0.968   9.480  20.716  0.00  0.00    +0.000 A 
BRANCH   5  12
ATOM     11  C   UNL     1      -0.830  12.168  19.062  0.00  0.00    +0.000 C 
ATOM     12  C   UNL     1       0.325  11.825  19.990  0.00  0.00    +0.000 C 
ENDBRANCH   5  12
ENDBRANCH   1   8
BRANCH   3  13
ATOM     13  C   UNL     1       2.622   4.179  19.051  0.00  0.00    +0.000 A 
ATOM     14  C   UNL     1       3.647   3.603  19.811  0.00  0.00    +0.000 A 
ATOM     15  C   UNL     1       4.195   2.361  19.479  0.00  0.00    +0.000 A 
ATOM     16  C   UNL     1       3.618   1.627  18.444  0.00  0.00    +0.000 A 
ATOM     17  C   UNL     1       2.570   2.164  17.691  0.00  0.00    +0.000 A 
ATOM     18  C   UNL     1       2.077   3.434  17.999  0.00  0.00    +0.000 A 
BRANCH  15  19
ATOM     19  N   UNL     1       5.153   1.779  20.322  0.00  0.00    +0.000 N 
ATOM     20  H   UNL     1       5.231   2.260  21.216  0.00  0.00    +0.000 HD
ATOM     21  H   UNL     1       6.058   1.645  19.885  0.00  0.00    +0.000 HD
ENDBRANCH  15  19
BRANCH  18  22
ATOM     22  O   UNL     1       1.048   3.972  17.269  0.00  0.00    +0.000 OA
ATOM     23  H   UNL     1       1.271   3.886  16.326  0.00  0.00    +0.000 HD
ENDBRANCH  18  22
ENDBRANCH   3  13
TORSDOF 5
ENDMDL
MODEL 4
REMARK VINA RESULT:      -6.8      1.931      2.341
REMARK  Name = 
REMARK  6 active torsions:
REMARK  status: ('A' for Active; 'I' for Inactive)
REMARK    1  A    between atoms: C_1  and  C_2
REMARK    2  A    between atoms: C_2  and  C_3
REMARK    3  A    between atoms: C_6  and  C_7
REMARK    4  A    between atoms: N_9  and  C_10
REMARK    5  A    between atoms: C_12  and  N_13
REMARK    6  A    between atoms: C_16  and  O_17
REMARK                            x       y       z     vdW  Elec       q    Type
REMARK                         _______ _______ _______ _____ _____    ______ ____
ROOT
ATOM      1  C   UNL     1       1.913   7.526  19.913  0.00  0.00    +0.000 C 
ATOM      2  O   UNL     1       2.278   7.759  18.765  0.00  0.00    +0.000 OA
ATOM      3  N   UNL     1       2.055   6.326  20.588  0.00  0.00    +0.000 N 
ATOM      4  H   UNL     1       1.534   6.168  21.445  0.00  0.00    +0.000 HD
ENDROOT
BRANCH   1   8
ATOM      5  C   UNL     1      -0.312  10.496  22.064  0.00  0.00    +0.000 A 
ATOM      6  C   UNL     1       0.346   9.457  22.728  0.00  0.00    +0.000 A 
ATOM      7  C   UNL     1       1.085   8.522  22.007  0.00  0.00    +0.000 A 
ATOM      8  C   UNL     1       1.194   8.619  20.613  0.00  0.00    +0.000 A 
ATOM      9  C   UNL     1       0.550   9.662  19.939  0.00  0.00    +0.000 A 
ATOM     10  C   UNL     1      -0.198  10.597  20.668  0.00  0.00    +0.000 A 
BRANCH   5  12
ATOM     11  C   UNL     1      -0.758  12.926  22.527  0.00  0.00    +0.000 C 
ATOM     12  C   UNL     1      -1.130  11.487  22.853  0.00  0.00    +0.000 C 
ENDBRANCH   5  12
ENDBRANCH   1   8
BRANCH   3  13
ATOM     13  C   UNL     1       2.686   5.169  20.059  0.00  0.00    +0.000 A 
ATOM     14  C   UNL     1       4.033   5.145  19.678  0.00  0.00    +0.000 A 
ATOM     15  C   UNL     1       4.603   4.021  19.071  0.00  0.00    +0.000 A 
ATOM     16  C   UNL     1       3.841   2.859  18.960  0.00  0.00    +0.000 A 
ATOM     17  C   UNL     1       2.503   2.845  19.364  0.00  0.00    +0.000 A 
ATOM     18  C   UNL     1       1.934   3.998  19.912  0.00  0.00    +0.000 A 
BRANCH  15  19
ATOM     19  N   UNL     1       5.976   4.007  18.793  0.00  0.00    +0.000 N 
ATOM     20  H   UNL     1       6.175   4.018  17.794  0.00  0.00    +0.000 HD
ATOM     21  H   UNL     1       6.485   3.271  19.270  0.00  0.00    +0.000 HD
ENDBRANCH  15  19
BRANCH  18  22
ATOM     22  O   UNL     1       0.623   3.997  20.315  0.00  0.00    +0.000 OA
ATOM     23  H   UNL     1       0.112   3.476  19.672  0.00  0.00    +0.000 HD
ENDBRANCH  18  22
ENDBRANCH   3  13
TORSDOF 5
ENDMDL
MODEL 5
REMARK VINA RESULT:      -6.8      0.924      1.545
REMARK  Name = 
REMARK  6 active torsions:
REMARK  status: ('A' for Active; 'I' for Inactive)
REMARK    1  A    between atoms: C_1  and  C_2
REMARK    2  A    between atoms: C_2  and  C_3
REMARK    3  A    between atoms: C_6  and  C_7
REMARK    4  A    between atoms: N_9  and  C_10
REMARK    5  A    between atoms: C_12  and  N_13
REMARK    6  A    between atoms: C_16  and  O_17
REMARK                            x       y       z     vdW  Elec       q    Type
REMARK                         _______ _______ _______ _____ _____    ______ ____
ROOT
ATOM      1  C   UNL     1       2.459   6.634  19.290  0.00  0.00    +0.000 C 
ATOM      2  O   UNL     1       3.386   6.860  18.518  0.00  0.00    +0.000 OA
ATOM      3  N   UNL     1       1.989   5.385  19.659  0.00  0.00    +0.000 N 
ATOM      4  H   UNL     1       1.092   5.306  20.128  0.00  0.00    +0.000 HD
ENDROOT
BRANCH   1   8
ATOM      5  C   UNL     1       0.584  10.208  20.743  0.00  0.00    +0.000 A 
ATOM      6  C   UNL     1       1.020  10.101  19.419  0.00  0.00    +0.000 A 
ATOM      7  C   UNL     1       1.600   8.918  18.966  0.00  0.00    +0.000 A 
ATOM      8  C   UNL     1       1.738   7.817  19.822  0.00  0.00    +0.000 A 
ATOM      9  C   UNL     1       1.295   7.908  21.145  0.00  0.00    +0.000 A 
ATOM     10  C   UNL     1       0.718   9.102  21.599  0.00  0.00    +0.000 A 
BRANCH   5  12
ATOM     11  C   UNL     1      -0.727  11.338  22.565  0.00  0.00    +0.000 C 
ATOM     12  C   UNL     1      -0.019  11.502  21.229  0.00  0.00    +0.000 C 
ENDBRANCH   5  12
ENDBRANCH   1   8
BRANCH   3  13
ATOM     13  C   UNL     1       2.537   4.151  19.221  0.00  0.00    +0.000 A 
ATOM     14  C   UNL     1       3.560   3.486  19.909  0.00  0.00    +0.000 A 
ATOM     15  C   UNL     1       4.147   2.323  19.403  0.00  0.00    +0.000 A 
ATOM     16  C   UNL     1       3.613   1.747  18.251  0.00  0.00    +0.000 A 
ATOM     17  C   UNL     1       2.568   2.372  17.563  0.00  0.00    +0.000 A 
ATOM     18  C   UNL     1       2.036   3.568  18.052  0.00  0.00    +0.000 A 
BRANCH  15  19
ATOM     19  N   UNL     1       5.100   1.639  20.171  0.00  0.00    +0.000 N 
ATOM     20  H   UNL     1       4.733   0.779  20.576  0.00  0.00    +0.000 HD
ATOM     21  H   UNL     1       5.561   2.216  20.865  0.00  0.00    +0.000 HD
ENDBRANCH  15  19
BRANCH  18  22
ATOM     22  O   UNL     1       1.010   4.190  17.388  0.00  0.00    +0.000 OA
ATOM     23  H   UNL     1       0.325   3.525  17.202  0.00  0.00    +0.000 HD
ENDBRANCH  18  22
ENDBRANCH   3  13
TORSDOF 5
ENDMDL
MODEL 6
REMARK VINA RESULT:      -6.7      1.266      1.421
REMARK  Name = 
REMARK  6 active torsions:
REMARK  status: ('A' for Active; 'I' for Inactive)
REMARK    1  A    between atoms: C_1  and  C_2
REMARK    2  A    between atoms: C_2  and  C_3
REMARK    3  A    between atoms: C_6  and  C_7
REMARK    4  A    between atoms: N_9  and  C_10
REMARK    5  A    between atoms: C_12  and  N_13
REMARK    6  A    between atoms: C_16  and  O_17
REMARK                            x       y       z     vdW  Elec       q    Type
REMARK                         _______ _______ _______ _____ _____    ______ ____
ROOT
ATOM      1  C   UNL     1       2.049   6.579  19.575  0.00  0.00    +0.000 C 
ATOM      2  O   UNL     1       1.741   6.166  20.690  0.00  0.00    +0.000 OA
ATOM      3  N   UNL     1       2.592   5.828  18.547  0.00  0.00    +0.000 N 
ATOM      4  H   UNL     1       3.009   6.297  17.749  0.00  0.00    +0.000 HD
ENDROOT
BRANCH   1   8
ATOM      5  C   UNL     1       1.304  10.758  18.962  0.00  0.00    +0.000 A 
ATOM      6  C   UNL     1       0.972  10.128  20.165  0.00  0.00    +0.000 A 
ATOM      7  C   UNL     1       1.251   8.776  20.348  0.00  0.00    +0.000 A 
ATOM      8  C   UNL     1       1.882   8.034  19.340  0.00  0.00    +0.000 A 
ATOM      9  C   UNL     1       2.229   8.656  18.136  0.00  0.00    +0.000 A 
ATOM     10  C   UNL     1       1.940  10.016  17.954  0.00  0.00    +0.000 A 
BRANCH   5  12
ATOM     11  C   UNL     1       2.164  13.010  18.254  0.00  0.00    +0.000 C 
ATOM     12  C   UNL     1       0.972  12.216  18.766  0.00  0.00    +0.000 C 
ENDBRANCH   5  12
ENDBRANCH   1   8
BRANCH   3  13
ATOM     13  C   UNL     1       2.849   4.432  18.611  0.00  0.00    +0.000 A 
ATOM     14  C   UNL     1       3.865   3.882  19.401  0.00  0.00    +0.000 A 
ATOM     15  C   UNL     1       4.158   2.515  19.370  0.00  0.00    +0.000 A 
ATOM     16  C   UNL     1       3.334   1.668  18.630  0.00  0.00    +0.000 A 
ATOM     17  C   UNL     1       2.291   2.188  17.859  0.00  0.00    +0.000 A 
ATOM     18  C   UNL     1       2.053   3.565  17.855  0.00  0.00    +0.000 A 
BRANCH  15  19
ATOM     19  N   UNL     1       5.119   1.993  20.247  0.00  0.00    +0.000 N 
ATOM     20  H   UNL     1       4.715   1.378  20.951  0.00  0.00    +0.000 HD
ATOM     21  H   UNL     1       5.723   2.695  20.662  0.00  0.00    +0.000 HD
ENDBRANCH  15  19
BRANCH  18  22
ATOM     22  O   UNL     1       1.031   4.088  17.104  0.00  0.00    +0.000 OA
ATOM     23  H   UNL     1       0.779   4.942  17.493  0.00  0.00    +0.000 HD
ENDBRANCH  18  22
ENDBRANCH   3  13
TORSDOF 5
ENDMDL
MODEL 7
REMARK VINA RESULT:      -6.7      1.906      2.511
REMARK  Name = 
REMARK  6 active torsions:
REMARK  status: ('A' for Active; 'I' for Inactive)
REMARK    1  A    between atoms: C_1  and  C_2
REMARK    2  A    between atoms: C_2  and  C_3
REMARK    3  A    between atoms: C_6  and  C_7
REMARK    4  A    between atoms: N_9  and  C_10
REMARK    5  A    between atoms: C_12  and  N_13
REMARK    6  A    between atoms: C_16  and  O_17
REMARK                            x       y       z     vdW  Elec       q    Type
REMARK                         _______ _______ _______ _____ _____    ______ ____
ROOT
ATOM      1  C   UNL     1       1.935   7.478  19.915  0.00  0.00    +0.000 C 
ATOM      2  O   UNL     1       2.381   7.725  18.798  0.00  0.00    +0.000 OA
ATOM      3  N   UNL     1       2.016   6.265  20.578  0.00  0.00    +0.000 N 
ATOM      4  H   UNL     1       1.435   6.101  21.394  0.00  0.00    +0.000 HD
ENDROOT
BRANCH   1   8
ATOM      5  C   UNL     1      -0.053  10.806  21.751  0.00  0.00    +0.000 A 
ATOM      6  C   UNL     1       0.273  10.812  20.392  0.00  0.00    +0.000 A 
ATOM      7  C   UNL     1       0.893   9.706  19.815  0.00  0.00    +0.000 A 
ATOM      8  C   UNL     1       1.182   8.569  20.582  0.00  0.00    +0.000 A 
ATOM      9  C   UNL     1       0.850   8.546  21.940  0.00  0.00    +0.000 A 
ATOM     10  C   UNL     1       0.232   9.664  22.518  0.00  0.00    +0.000 A 
BRANCH   5  12
ATOM     11  C   UNL     1      -1.961  11.664  23.143  0.00  0.00    +0.000 C 
ATOM     12  C   UNL     1      -0.700  12.019  22.370  0.00  0.00    +0.000 C 
ENDBRANCH   5  12
ENDBRANCH   1   8
BRANCH   3  13
ATOM     13  C   UNL     1       2.669   5.109  20.075  0.00  0.00    +0.000 A 
ATOM     14  C   UNL     1       4.013   5.104  19.685  0.00  0.00    +0.000 A 
ATOM     15  C   UNL     1       4.603   3.978  19.103  0.00  0.00    +0.000 A 
ATOM     16  C   UNL     1       3.866   2.797  19.028  0.00  0.00    +0.000 A 
ATOM     17  C   UNL     1       2.531   2.765  19.442  0.00  0.00    +0.000 A 
ATOM     18  C   UNL     1       1.942   3.919  19.964  0.00  0.00    +0.000 A 
BRANCH  15  19
ATOM     19  N   UNL     1       5.975   3.986  18.816  0.00  0.00    +0.000 N 
ATOM     20  H   UNL     1       6.515   3.414  19.464  0.00  0.00    +0.000 HD
ATOM     21  H   UNL     1       6.369   4.914  18.714  0.00  0.00    +0.000 HD
ENDBRANCH  15  19
BRANCH  18  22
ATOM     22  O   UNL     1       0.633   3.900  20.376  0.00  0.00    +0.000 OA
ATOM     23  H   UNL     1       0.071   3.820  19.587  0.00  0.00    +0.000 HD
ENDBRANCH  18  22
ENDBRANCH   3  13
TORSDOF 5
ENDMDL
MODEL 8
REMARK VINA RESULT:      -6.7      4.648      6.305
REMARK  Name = 
REMARK  6 active torsions:
REMARK  status: ('A' for Active; 'I' for Inactive)
REMARK    1  A    between atoms: C_1  and  C_2
REMARK    2  A    between atoms: C_2  and  C_3
REMARK    3  A    between atoms: C_6  and  C_7
REMARK    4  A    between atoms: N_9  and  C_10
REMARK    5  A    between atoms: C_12  and  N_13
REMARK    6  A    between atoms: C_16  and  O_17
REMARK                            x       y       z     vdW  Elec       q    Type
REMARK                         _______ _______ _______ _____ _____    ______ ____
ROOT
ATOM      1  C   UNL     1       4.784   5.314  16.539  0.00  0.00    +0.000 C 
ATOM      2  O   UNL     1       4.782   6.462  16.105  0.00  0.00    +0.000 OA
ATOM      3  N   UNL     1       5.267   4.194  15.885  0.00  0.00    +0.000 N 
ATOM      4  H   UNL     1       5.030   3.270  16.233  0.00  0.00    +0.000 HD
ENDROOT
BRANCH   1   8
ATOM      5  C   UNL     1       2.840   4.484  20.272  0.00  0.00    +0.000 A 
ATOM      6  C   UNL     1       3.694   3.554  19.673  0.00  0.00    +0.000 A 
ATOM      7  C   UNL     1       4.334   3.860  18.474  0.00  0.00    +0.000 A 
ATOM      8  C   UNL     1       4.147   5.108  17.863  0.00  0.00    +0.000 A 
ATOM      9  C   UNL     1       3.304   6.052  18.459  0.00  0.00    +0.000 A 
ATOM     10  C   UNL     1       2.657   5.737  19.662  0.00  0.00    +0.000 A 
BRANCH   5  12
ATOM     11  C   UNL     1       1.583   2.712  21.535  0.00  0.00    +0.000 C 
ATOM     12  C   UNL     1       2.131   4.131  21.555  0.00  0.00    +0.000 C 
ENDBRANCH   5  12
ENDBRANCH   1   8
BRANCH   3  13
ATOM     13  C   UNL     1       5.877   4.204  14.603  0.00  0.00    +0.000 A 
ATOM     14  C   UNL     1       5.356   3.504  13.508  0.00  0.00    +0.000 A 
ATOM     15  C   UNL     1       6.030   3.454  12.284  0.00  0.00    +0.000 A 
ATOM     16  C   UNL     1       7.181   4.222  12.118  0.00  0.00    +0.000 A 
ATOM     17  C   UNL     1       7.703   4.958  13.185  0.00  0.00    +0.000 A 
ATOM     18  C   UNL     1       7.049   4.947  14.419  0.00  0.00    +0.000 A 
BRANCH  15  19
ATOM     19  N   UNL     1       5.426   2.821  11.188  0.00  0.00    +0.000 N 
ATOM     20  H   UNL     1       4.464   3.122  11.042  0.00  0.00    +0.000 HD
ATOM     21  H   UNL     1       5.507   1.811  11.200  0.00  0.00    +0.000 HD
ENDBRANCH  15  19
BRANCH  18  22
ATOM     22  O   UNL     1       7.550   5.666  15.474  0.00  0.00    +0.000 OA
ATOM     23  H   UNL     1       6.808   5.905  16.055  0.00  0.00    +0.000 HD
ENDBRANCH  18  22
ENDBRANCH   3  13
TORSDOF 5
ENDMDL
MODEL 9
REMARK VINA RESULT:      -6.6      4.258      5.117
REMARK  Name = 
REMARK  6 active torsions:
REMARK  status: ('A' for Active; 'I' for Inactive)
REMARK    1  A    between atoms: C_1  and  C_2
REMARK    2  A    between atoms: C_2  and  C_3
REMARK    3  A    between atoms: C_6  and  C_7
REMARK    4  A    between atoms: N_9  and  C_10
REMARK    5  A    between atoms: C_12  and  N_13
REMARK    6  A    between atoms: C_16  and  O_17
REMARK                            x       y       z     vdW  Elec       q    Type
REMARK                         _______ _______ _______ _____ _____    ______ ____
ROOT
ATOM      1  C   UNL     1       5.121   4.635  18.785  0.00  0.00    +0.000 C 
ATOM      2  O   UNL     1       5.647   3.535  18.929  0.00  0.00    +0.000 OA
ATOM      3  N   UNL     1       3.775   4.923  18.930  0.00  0.00    +0.000 N 
ATOM      4  H   UNL     1       3.411   5.805  18.583  0.00  0.00    +0.000 HD
ENDROOT
BRANCH   1   8
ATOM      5  C   UNL     1       7.719   7.902  17.793  0.00  0.00    +0.000 A 
ATOM      6  C   UNL     1       8.094   6.931  18.727  0.00  0.00    +0.000 A 
ATOM      7  C   UNL     1       7.242   5.865  19.009  0.00  0.00    +0.000 A 
ATOM      8  C   UNL     1       6.011   5.741  18.352  0.00  0.00    +0.000 A 
ATOM      9  C   UNL     1       5.630   6.700  17.408  0.00  0.00    +0.000 A 
ATOM     10  C   UNL     1       6.486   7.775  17.131  0.00  0.00    +0.000 A 
BRANCH   5  12
ATOM     11  C   UNL     1       9.002   9.822  18.783  0.00  0.00    +0.000 C 
ATOM     12  C   UNL     1       8.637   9.065  17.515  0.00  0.00    +0.000 C 
ENDBRANCH   5  12
ENDBRANCH   1   8
BRANCH   3  13
ATOM     13  C   UNL     1       2.781   3.981  19.307  0.00  0.00    +0.000 A 
ATOM     14  C   UNL     1       2.521   3.643  20.640  0.00  0.00    +0.000 A 
ATOM     15  C   UNL     1       1.605   2.642  20.977  0.00  0.00    +0.000 A 
ATOM     16  C   UNL     1       0.844   2.059  19.964  0.00  0.00    +0.000 A 
ATOM     17  C   UNL     1       1.060   2.404  18.626  0.00  0.00    +0.000 A 
ATOM     18  C   UNL     1       2.025   3.362  18.306  0.00  0.00    +0.000 A 
BRANCH  15  19
ATOM     19  N   UNL     1       1.305   2.403  22.325  0.00  0.00    +0.000 N 
ATOM     20  H   UNL     1       0.345   2.643  22.562  0.00  0.00    +0.000 HD
ATOM     21  H   UNL     1       1.968   2.814  22.973  0.00  0.00    +0.000 HD
ENDBRANCH  15  19
BRANCH  18  22
ATOM     22  O   UNL     1       2.245   3.710  16.997  0.00  0.00    +0.000 OA
ATOM     23  H   UNL     1       2.389   2.894  16.489  0.00  0.00    +0.000 HD
ENDBRANCH  18  22
ENDBRANCH   3  13
TORSDOF 5
ENDMDL
