MODEL 1
REMARK VINA RESULT:      -6.8      0.000      0.000
REMARK  Name = 
REMARK  6 active torsions:
REMARK  status: ('A' for Active; 'I' for Inactive)
REMARK    1  A    between atoms: C_1  and  C_2
REMARK    2  A    between atoms: C_5  and  C_6
REMARK    3  A    between atoms: C_12  and  C_13
REMARK    4  A    between atoms: N_15  and  C_16
REMARK    5  A    between atoms: C_16  and  C_17
REMARK    6  A    between atoms: C_16  and  C_18
REMARK                            x       y       z     vdW  Elec       q    Type
REMARK                         _______ _______ _______ _____ _____    ______ ____
ROOT
ATOM      1  C   UNL     1       1.815   2.624  21.573  0.00  0.00    +0.000 C 
ATOM      2  C   UNL     1       2.969   2.984  20.725  0.00  0.00    +0.000 A 
ATOM      3  O   UNL     1       4.029   2.141  20.817  0.00  0.00    +0.000 OA
ATOM      4  N   UNL     1       5.027   2.550  19.969  0.00  0.00    +0.000 NA
ATOM      5  C   UNL     1       4.581   3.659  19.355  0.00  0.00    +0.000 A 
ATOM      6  C   UNL     1       3.247   3.968  19.794  0.00  0.00    +0.000 A 
ENDROOT
BRANCH   5   7
ATOM      7  C   UNL     1       5.449   4.376  18.412  0.00  0.00    +0.000 A 
ATOM      8  C   UNL     1       6.388   5.308  18.882  0.00  0.00    +0.000 A 
ATOM      9  C   UNL     1       7.218   5.997  17.991  0.00  0.00    +0.000 A 
ATOM     10  C   UNL     1       7.119   5.763  16.621  0.00  0.00    +0.000 A 
ATOM     11  C   UNL     1       6.179   4.858  16.140  0.00  0.00    +0.000 A 
ATOM     12  C   UNL     1       5.341   4.181  17.028  0.00  0.00    +0.000 A 
ENDBRANCH   5   7
BRANCH   6  13
ATOM     13  C   UNL     1       2.376   5.026  19.321  0.00  0.00    +0.000 C 
ATOM     14  O   UNL     1       1.502   4.822  18.484  0.00  0.00    +0.000 OA
ATOM     15  N   UNL     1       2.618   6.287  19.826  0.00  0.00    +0.000 N 
ATOM     16  H   UNL     1       3.345   6.423  20.513  0.00  0.00    +0.000 HD
BRANCH  15  17
ATOM     17  C   UNL     1       1.867   7.447  19.367  0.00  0.00    +0.000 C 
ATOM     18  C   UNL     1       1.563   8.392  20.527  0.00  0.00    +0.000 C 
ATOM     19  C   UNL     1       2.625   8.173  18.260  0.00  0.00    +0.000 C 
ENDBRANCH  15  17
ENDBRANCH   6  13
TORSDOF 3
ENDMDL
MODEL 2
REMARK VINA RESULT:      -6.7      0.209      1.152
REMARK  Name = 
REMARK  6 active torsions:
REMARK  status: ('A' for Active; 'I' for Inactive)
REMARK    1  A    between atoms: C_1  and  C_2
REMARK    2  A    between atoms: C_5  and  C_6
REMARK    3  A    between atoms: C_12  and  C_13
REMARK    4  A    between atoms: N_15  and  C_16
REMARK    5  A    between atoms: C_16  and  C_17
REMARK    6  A    between atoms: C_16  and  C_18
REMARK                            x       y       z     vdW  Elec       q    Type
REMARK                         _______ _______ _______ _____ _____    ______ ____
ROOT
ATOM      1  C   UNL     1       1.790   2.816  21.556  0.00  0.00    +0.000 C 
ATOM      2  C   UNL     1       2.935   3.101  20.667  0.00  0.00    +0.000 A 
ATOM      3  O   UNL     1       3.964   2.223  20.764  0.00  0.00    +0.000 OA
ATOM      4  N   UNL     1       4.955   2.562  19.877  0.00  0.00    +0.000 NA
ATOM      5  C   UNL     1       4.534   3.665  19.234  0.00  0.00    +0.000 A 
ATOM      6  C   UNL     1       3.225   4.040  19.694  0.00  0.00    +0.000 A 
ENDROOT
BRANCH   5   7
ATOM      7  C   UNL     1       5.404   4.315  18.244  0.00  0.00    +0.000 A 
ATOM      8  C   UNL     1       5.203   4.096  16.872  0.00  0.00    +0.000 A 
ATOM      9  C   UNL     1       6.027   4.709  15.923  0.00  0.00    +0.000 A 
ATOM     10  C   UNL     1       7.062   5.548  16.333  0.00  0.00    +0.000 A 
ATOM     11  C   UNL     1       7.285   5.757  17.690  0.00  0.00    +0.000 A 
ATOM     12  C   UNL     1       6.471   5.133  18.639  0.00  0.00    +0.000 A 
ENDBRANCH   5   7
BRANCH   6  13
ATOM     13  C   UNL     1       2.381   5.114  19.205  0.00  0.00    +0.000 C 
ATOM     14  O   UNL     1       1.590   4.948  18.281  0.00  0.00    +0.000 OA
ATOM     15  N   UNL     1       2.556   6.346  19.799  0.00  0.00    +0.000 N 
ATOM     16  H   UNL     1       3.216   6.451  20.555  0.00  0.00    +0.000 HD
BRANCH  15  17
ATOM     17  C   UNL     1       1.828   7.521  19.339  0.00  0.00    +0.000 C 
ATOM     18  C   UNL     1       1.546   8.473  20.499  0.00  0.00    +0.000 C 
ATOM     19  C   UNL     1       2.601   8.230  18.232  0.00  0.00    +0.000 C 
ENDBRANCH  15  17
ENDBRANCH   6  13
TORSDOF 3
ENDMDL
MODEL 3
REMARK VINA RESULT:      -6.7      2.237      5.361
REMARK  Name = 
REMARK  6 active torsions:
REMARK  status: ('A' for Active; 'I' for Inactive)
REMARK    1  A    between atoms: C_1  and  C_2
REMARK    2  A    between atoms: C_5  and  C_6
REMARK    3  A    between atoms: C_12  and  C_13
REMARK    4  A    between atoms: N_15  and  C_16
REMARK    5  A    between atoms: C_16  and  C_17
REMARK    6  A    between atoms: C_16  and  C_18
REMARK                            x       y       z     vdW  Elec       q    Type
REMARK                         _______ _______ _______ _____ _____    ______ ____
ROOT
ATOM      1  C   UNL     1       5.084   3.890  16.498  0.00  0.00    +0.000 C 
ATOM      2  C   UNL     1       4.469   5.125  17.024  0.00  0.00    +0.000 A 
ATOM      3  O   UNL     1       5.174   6.260  16.786  0.00  0.00    +0.000 OA
ATOM      4  N   UNL     1       4.500   7.344  17.288  0.00  0.00    +0.000 NA
ATOM      5  C   UNL     1       3.372   6.873  17.846  0.00  0.00    +0.000 A 
ATOM      6  C   UNL     1       3.295   5.446  17.682  0.00  0.00    +0.000 A 
ENDROOT
BRANCH   5   7
ATOM      7  C   UNL     1       2.447   7.791  18.524  0.00  0.00    +0.000 A 
ATOM      8  C   UNL     1       1.915   8.894  17.838  0.00  0.00    +0.000 A 
ATOM      9  C   UNL     1       1.035   9.775  18.476  0.00  0.00    +0.000 A 
ATOM     10  C   UNL     1       0.678   9.565  19.807  0.00  0.00    +0.000 A 
ATOM     11  C   UNL     1       1.216   8.487  20.504  0.00  0.00    +0.000 A 
ATOM     12  C   UNL     1       2.104   7.616  19.872  0.00  0.00    +0.000 A 
ENDBRANCH   5   7
BRANCH   6  13
ATOM     13  C   UNL     1       2.210   4.562  18.062  0.00  0.00    +0.000 C 
ATOM     14  O   UNL     1       1.231   4.390  17.343  0.00  0.00    +0.000 OA
ATOM     15  N   UNL     1       2.315   3.966  19.301  0.00  0.00    +0.000 N 
ATOM     16  H   UNL     1       3.132   4.128  19.871  0.00  0.00    +0.000 HD
BRANCH  15  17
ATOM     17  C   UNL     1       1.251   3.123  19.832  0.00  0.00    +0.000 C 
ATOM     18  C   UNL     1       1.260   1.751  19.163  0.00  0.00    +0.000 C 
ATOM     19  C   UNL     1       1.379   2.989  21.346  0.00  0.00    +0.000 C 
ENDBRANCH  15  17
ENDBRANCH   6  13
TORSDOF 3
ENDMDL
MODEL 4
REMARK VINA RESULT:      -6.7      0.961      1.436
REMARK  Name = 
REMARK  6 active torsions:
REMARK  status: ('A' for Active; 'I' for Inactive)
REMARK    1  A    between atoms: C_1  and  C_2
REMARK    2  A    between atoms: C_5  and  C_6
REMARK    3  A    between atoms: C_12  and  C_13
REMARK    4  A    between atoms: N_15  and  C_16
REMARK    5  A    between atoms: C_16  and  C_17
REMARK    6  A    between atoms: C_16  and  C_18
REMARK                            x       y       z     vdW  Elec       q    Type
REMARK                         _______ _______ _______ _____ _____    ______ ____
ROOT
ATOM      1  C   UNL     1       1.733   2.494  20.331  0.00  0.00    +0.000 C 
ATOM      2  C   UNL     1       2.999   3.131  19.912  0.00  0.00    +0.000 A 
ATOM      3  O   UNL     1       4.111   2.385  20.129  0.00  0.00    +0.000 OA
ATOM      4  N   UNL     1       5.220   3.054  19.677  0.00  0.00    +0.000 NA
ATOM      5  C   UNL     1       4.787   4.227  19.183  0.00  0.00    +0.000 A 
ATOM      6  C   UNL     1       3.356   4.314  19.293  0.00  0.00    +0.000 A 
ENDROOT
BRANCH   5   7
ATOM      7  C   UNL     1       5.751   5.206  18.664  0.00  0.00    +0.000 A 
ATOM      8  C   UNL     1       5.485   5.897  17.471  0.00  0.00    +0.000 A 
ATOM      9  C   UNL     1       6.399   6.830  16.967  0.00  0.00    +0.000 A 
ATOM     10  C   UNL     1       7.587   7.082  17.649  0.00  0.00    +0.000 A 
ATOM     11  C   UNL     1       7.873   6.389  18.822  0.00  0.00    +0.000 A 
ATOM     12  C   UNL     1       6.968   5.447  19.316  0.00  0.00    +0.000 A 
ENDBRANCH   5   7
BRANCH   6  13
ATOM     13  C   UNL     1       2.488   5.370  18.807  0.00  0.00    +0.000 C 
ATOM     14  O   UNL     1       1.755   5.212  17.835  0.00  0.00    +0.000 OA
ATOM     15  N   UNL     1       2.570   6.578  19.466  0.00  0.00    +0.000 N 
ATOM     16  H   UNL     1       3.184   6.678  20.261  0.00  0.00    +0.000 HD
BRANCH  15  17
ATOM     17  C   UNL     1       1.811   7.740  19.021  0.00  0.00    +0.000 C 
ATOM     18  C   UNL     1       1.463   8.645  20.200  0.00  0.00    +0.000 C 
ATOM     19  C   UNL     1       2.586   8.510  17.957  0.00  0.00    +0.000 C 
ENDBRANCH  15  17
ENDBRANCH   6  13
TORSDOF 3
ENDMDL
MODEL 5
REMARK VINA RESULT:      -6.7      2.304      5.278
REMARK  Name = 
REMARK  6 active torsions:
REMARK  status: ('A' for Active; 'I' for Inactive)
REMARK    1  A    between atoms: C_1  and  C_2
REMARK    2  A    between atoms: C_5  and  C_6
REMARK    3  A    between atoms: C_12  and  C_13
REMARK    4  A    between atoms: N_15  and  C_16
REMARK    5  A    between atoms: C_16  and  C_17
REMARK    6  A    between atoms: C_16  and  C_18
REMARK                            x       y       z     vdW  Elec       q    Type
REMARK                         _______ _______ _______ _____ _____    ______ ____
ROOT
ATOM      1  C   UNL     1       4.962   3.799  16.535  0.00  0.00    +0.000 C 
ATOM      2  C   UNL     1       4.370   5.058  17.029  0.00  0.00    +0.000 A 
ATOM      3  O   UNL     1       5.107   6.170  16.784  0.00  0.00    +0.000 OA
ATOM      4  N   UNL     1       4.452   7.280  17.255  0.00  0.00    +0.000 NA
ATOM      5  C   UNL     1       3.304   6.846  17.802  0.00  0.00    +0.000 A 
ATOM      6  C   UNL     1       3.194   5.419  17.661  0.00  0.00    +0.000 A 
ENDROOT
BRANCH   5   7
ATOM      7  C   UNL     1       2.392   7.799  18.448  0.00  0.00    +0.000 A 
ATOM      8  C   UNL     1       2.129   7.706  19.824  0.00  0.00    +0.000 A 
ATOM      9  C   UNL     1       1.260   8.608  20.448  0.00  0.00    +0.000 A 
ATOM     10  C   UNL     1       0.645   9.613  19.704  0.00  0.00    +0.000 A 
ATOM     11  C   UNL     1       0.881   9.704  18.336  0.00  0.00    +0.000 A 
ATOM     12  C   UNL     1       1.736   8.795  17.711  0.00  0.00    +0.000 A 
ENDBRANCH   5   7
BRANCH   6  13
ATOM     13  C   UNL     1       2.081   4.569  18.038  0.00  0.00    +0.000 C 
ATOM     14  O   UNL     1       1.173   4.305  17.255  0.00  0.00    +0.000 OA
ATOM     15  N   UNL     1       2.072   4.118  19.341  0.00  0.00    +0.000 N 
ATOM     16  H   UNL     1       2.832   4.354  19.961  0.00  0.00    +0.000 HD
BRANCH  15  17
ATOM     17  C   UNL     1       0.966   3.327  19.863  0.00  0.00    +0.000 C 
ATOM     18  C   UNL     1       0.717   2.099  18.991  0.00  0.00    +0.000 C 
ATOM     19  C   UNL     1       1.234   2.920  21.309  0.00  0.00    +0.000 C 
ENDBRANCH  15  17
ENDBRANCH   6  13
TORSDOF 3
ENDMDL
MODEL 6
REMARK VINA RESULT:      -6.6      2.055      5.098
REMARK  Name = 
REMARK  6 active torsions:
REMARK  status: ('A' for Active; 'I' for Inactive)
REMARK    1  A    between atoms: C_1  and  C_2
REMARK    2  A    between atoms: C_5  and  C_6
REMARK    3  A    between atoms: C_12  and  C_13
REMARK    4  A    between atoms: N_15  and  C_16
REMARK    5  A    between atoms: C_16  and  C_17
REMARK    6  A    between atoms: C_16  and  C_18
REMARK                            x       y       z     vdW  Elec       q    Type
REMARK                         _______ _______ _______ _____ _____    ______ ____
ROOT
ATOM      1  C   UNL     1       5.529   3.738  16.030  0.00  0.00    +0.000 C 
ATOM      2  C   UNL     1       4.868   4.932  16.596  0.00  0.00    +0.000 A 
ATOM      3  O   UNL     1       5.410   6.116  16.218  0.00  0.00    +0.000 OA
ATOM      4  N   UNL     1       4.704   7.153  16.772  0.00  0.00    +0.000 NA
ATOM      5  C   UNL     1       3.721   6.602  17.505  0.00  0.00    +0.000 A 
ATOM      6  C   UNL     1       3.772   5.168  17.405  0.00  0.00    +0.000 A 
ENDROOT
BRANCH   5   7
ATOM      7  C   UNL     1       2.811   7.459  18.277  0.00  0.00    +0.000 A 
ATOM      8  C   UNL     1       2.495   7.139  19.607  0.00  0.00    +0.000 A 
ATOM      9  C   UNL     1       1.627   7.948  20.349  0.00  0.00    +0.000 A 
ATOM     10  C   UNL     1       1.066   9.085  19.771  0.00  0.00    +0.000 A 
ATOM     11  C   UNL     1       1.355   9.401  18.447  0.00  0.00    +0.000 A 
ATOM     12  C   UNL     1       2.209   8.586  17.702  0.00  0.00    +0.000 A 
ENDBRANCH   5   7
BRANCH   6  13
ATOM     13  C   UNL     1       2.849   4.202  17.970  0.00  0.00    +0.000 C 
ATOM     14  O   UNL     1       1.969   3.675  17.297  0.00  0.00    +0.000 OA
ATOM     15  N   UNL     1       2.982   3.949  19.319  0.00  0.00    +0.000 N 
ATOM     16  H   UNL     1       3.715   4.399  19.846  0.00  0.00    +0.000 HD
BRANCH  15  17
ATOM     17  C   UNL     1       2.063   3.062  20.020  0.00  0.00    +0.000 C 
ATOM     18  C   UNL     1       2.689   2.540  21.311  0.00  0.00    +0.000 C 
ATOM     19  C   UNL     1       0.745   3.775  20.307  0.00  0.00    +0.000 C 
ENDBRANCH  15  17
ENDBRANCH   6  13
TORSDOF 3
ENDMDL
MODEL 7
REMARK VINA RESULT:      -6.5      1.868      4.670
REMARK  Name = 
REMARK  6 active torsions:
REMARK  status: ('A' for Active; 'I' for Inactive)
REMARK    1  A    between atoms: C_1  and  C_2
REMARK    2  A    between atoms: C_5  and  C_6
REMARK    3  A    between atoms: C_12  and  C_13
REMARK    4  A    between atoms: N_15  and  C_16
REMARK    5  A    between atoms: C_16  and  C_17
REMARK    6  A    between atoms: C_16  and  C_18
REMARK                            x       y       z     vdW  Elec       q    Type
REMARK                         _______ _______ _______ _____ _____    ______ ____
ROOT
ATOM      1  C   UNL     1       3.936   1.005  18.569  0.00  0.00    +0.000 C 
ATOM      2  C   UNL     1       3.293   2.319  18.774  0.00  0.00    +0.000 A 
ATOM      3  O   UNL     1       1.985   2.263  19.131  0.00  0.00    +0.000 OA
ATOM      4  N   UNL     1       1.498   3.531  19.325  0.00  0.00    +0.000 NA
ATOM      5  C   UNL     1       2.514   4.376  19.078  0.00  0.00    +0.000 A 
ATOM      6  C   UNL     1       3.701   3.639  18.739  0.00  0.00    +0.000 A 
ENDROOT
BRANCH   5   7
ATOM      7  C   UNL     1       2.296   5.827  19.150  0.00  0.00    +0.000 A 
ATOM      8  C   UNL     1       2.535   6.635  18.027  0.00  0.00    +0.000 A 
ATOM      9  C   UNL     1       2.332   8.018  18.086  0.00  0.00    +0.000 A 
ATOM     10  C   UNL     1       1.890   8.609  19.268  0.00  0.00    +0.000 A 
ATOM     11  C   UNL     1       1.670   7.822  20.395  0.00  0.00    +0.000 A 
ATOM     12  C   UNL     1       1.885   6.444  20.339  0.00  0.00    +0.000 A 
ENDBRANCH   5   7
BRANCH   6  13
ATOM     13  C   UNL     1       5.031   4.160  18.484  0.00  0.00    +0.000 C 
ATOM     14  O   UNL     1       5.836   4.356  19.389  0.00  0.00    +0.000 OA
ATOM     15  N   UNL     1       5.321   4.474  17.172  0.00  0.00    +0.000 N 
ATOM     16  H   UNL     1       4.637   4.303  16.450  0.00  0.00    +0.000 HD
BRANCH  15  17
ATOM     17  C   UNL     1       6.592   5.082  16.800  0.00  0.00    +0.000 C 
ATOM     18  C   UNL     1       6.978   4.702  15.373  0.00  0.00    +0.000 C 
ATOM     19  C   UNL     1       6.527   6.597  16.959  0.00  0.00    +0.000 C 
ENDBRANCH  15  17
ENDBRANCH   6  13
TORSDOF 3
ENDMDL
MODEL 8
REMARK VINA RESULT:      -6.5      2.958      5.595
REMARK  Name = 
REMARK  6 active torsions:
REMARK  status: ('A' for Active; 'I' for Inactive)
REMARK    1  A    between atoms: C_1  and  C_2
REMARK    2  A    between atoms: C_5  and  C_6
REMARK    3  A    between atoms: C_12  and  C_13
REMARK    4  A    between atoms: N_15  and  C_16
REMARK    5  A    between atoms: C_16  and  C_17
REMARK    6  A    between atoms: C_16  and  C_18
REMARK                            x       y       z     vdW  Elec       q    Type
REMARK                         _______ _______ _______ _____ _____    ______ ____
ROOT
ATOM      1  C   UNL     1       8.291   7.162  18.338  0.00  0.00    +0.000 C 
ATOM      2  C   UNL     1       7.173   6.213  18.514  0.00  0.00    +0.000 A 
ATOM      3  O   UNL     1       6.952   5.822  19.794  0.00  0.00    +0.000 OA
ATOM      4  N   UNL     1       5.877   4.971  19.846  0.00  0.00    +0.000 NA
ATOM      5  C   UNL     1       5.436   4.831  18.584  0.00  0.00    +0.000 A 
ATOM      6  C   UNL     1       6.228   5.631  17.689  0.00  0.00    +0.000 A 
ENDROOT
BRANCH   5   7
ATOM      7  C   UNL     1       4.313   3.929  18.295  0.00  0.00    +0.000 A 
ATOM      8  C   UNL     1       4.428   2.552  18.544  0.00  0.00    +0.000 A 
ATOM      9  C   UNL     1       3.364   1.686  18.270  0.00  0.00    +0.000 A 
ATOM     10  C   UNL     1       2.174   2.185  17.743  0.00  0.00    +0.000 A 
ATOM     11  C   UNL     1       2.055   3.545  17.471  0.00  0.00    +0.000 A 
ATOM     12  C   UNL     1       3.122   4.407  17.732  0.00  0.00    +0.000 A 
ENDBRANCH   5   7
BRANCH   6  13
ATOM     13  C   UNL     1       6.036   5.829  16.265  0.00  0.00    +0.000 C 
ATOM     14  O   UNL     1       5.285   6.695  15.825  0.00  0.00    +0.000 OA
ATOM     15  N   UNL     1       6.704   4.956  15.432  0.00  0.00    +0.000 N 
ATOM     16  H   UNL     1       7.313   4.253  15.824  0.00  0.00    +0.000 HD
BRANCH  15  17
ATOM     17  C   UNL     1       6.528   4.999  13.987  0.00  0.00    +0.000 C 
ATOM     18  C   UNL     1       7.863   5.227  13.284  0.00  0.00    +0.000 C 
ATOM     19  C   UNL     1       5.865   3.718  13.490  0.00  0.00    +0.000 C 
ENDBRANCH  15  17
ENDBRANCH   6  13
TORSDOF 3
ENDMDL
MODEL 9
REMARK VINA RESULT:      -6.5      1.766      4.640
REMARK  Name = 
REMARK  6 active torsions:
REMARK  status: ('A' for Active; 'I' for Inactive)
REMARK    1  A    between atoms: C_1  and  C_2
REMARK    2  A    between atoms: C_5  and  C_6
REMARK    3  A    between atoms: C_12  and  C_13
REMARK    4  A    between atoms: N_15  and  C_16
REMARK    5  A    between atoms: C_16  and  C_17
REMARK    6  A    between atoms: C_16  and  C_18
REMARK                            x       y       z     vdW  Elec       q    Type
REMARK                         _______ _______ _______ _____ _____    ______ ____
ROOT
ATOM      1  C   UNL     1       4.369   2.095  20.142  0.00  0.00    +0.000 C 
ATOM      2  C   UNL     1       3.635   3.375  20.076  0.00  0.00    +0.000 A 
ATOM      3  O   UNL     1       2.535   3.442  20.868  0.00  0.00    +0.000 OA
ATOM      4  N   UNL     1       1.951   4.678  20.754  0.00  0.00    +0.000 NA
ATOM      5  C   UNL     1       2.694   5.376  19.878  0.00  0.00    +0.000 A 
ATOM      6  C   UNL     1       3.807   4.584  19.428  0.00  0.00    +0.000 A 
ENDROOT
BRANCH   5   7
ATOM      7  C   UNL     1       2.295   6.738  19.497  0.00  0.00    +0.000 A 
ATOM      8  C   UNL     1       1.712   7.596  20.443  0.00  0.00    +0.000 A 
ATOM      9  C   UNL     1       1.327   8.894  20.089  0.00  0.00    +0.000 A 
ATOM     10  C   UNL     1       1.520   9.348  18.786  0.00  0.00    +0.000 A 
ATOM     11  C   UNL     1       2.077   8.501  17.833  0.00  0.00    +0.000 A 
ATOM     12  C   UNL     1       2.448   7.201  18.183  0.00  0.00    +0.000 A 
ENDBRANCH   5   7
BRANCH   6  13
ATOM     13  C   UNL     1       4.889   4.986  18.551  0.00  0.00    +0.000 C 
ATOM     14  O   UNL     1       5.844   5.642  18.956  0.00  0.00    +0.000 OA
ATOM     15  N   UNL     1       4.760   4.635  17.223  0.00  0.00    +0.000 N 
ATOM     16  H   UNL     1       3.962   4.096  16.920  0.00  0.00    +0.000 HD
BRANCH  15  17
ATOM     17  C   UNL     1       5.739   5.052  16.228  0.00  0.00    +0.000 C 
ATOM     18  C   UNL     1       6.013   3.928  15.232  0.00  0.00    +0.000 C 
ATOM     19  C   UNL     1       5.268   6.311  15.508  0.00  0.00    +0.000 C 
ENDBRANCH  15  17
ENDBRANCH   6  13
TORSDOF 3
ENDMDL
