MODEL 1
REMARK VINA RESULT:      -8.9      0.000      0.000
REMARK  Name = 
REMARK  6 active torsions:
REMARK  status: ('A' for Active; 'I' for Inactive)
REMARK    1  A    between atoms: N_3  and  C_4
REMARK    2  A    between atoms: C_4  and  C_5
REMARK    3  A    between atoms: C_8  and  C_9
REMARK    4  A    between atoms: C_12  and  C_13
REMARK    5  A    between atoms: N_21  and  C_22
REMARK    6  A    between atoms: C_27  and  N_28
REMARK                            x       y       z     vdW  Elec       q    Type
REMARK                         _______ _______ _______ _____ _____    ______ ____
ROOT
ATOM      1  O   UNL     1       3.914   5.626  17.779  0.00  0.00    +0.000 OA
ATOM      2  C   UNL     1       4.237   5.734  18.952  0.00  0.00    +0.000 C 
ATOM      3  N   UNL     1       3.399   6.089  19.969  0.00  0.00    +0.000 N 
ATOM      4  N   UNL     1       5.503   5.476  19.408  0.00  0.00    +0.000 N 
ATOM      5  H   UNL     1       3.755   6.171  20.906  0.00  0.00    +0.000 HD
ATOM      6  H   UNL     1       5.749   5.888  20.298  0.00  0.00    +0.000 HD
ENDROOT
BRANCH   4   7
ATOM      7  C   UNL     1       6.597   5.094  18.498  0.00  0.00    +0.000 C 
ATOM      8  C   UNL     1       7.195   6.364  17.858  0.00  0.00    +0.000 C 
ATOM      9  O   UNL     1       7.624   6.322  16.506  0.00  0.00    +0.000 OA
ATOM     10  C   UNL     1       7.086   5.413  15.712  0.00  0.00    +0.000 A 
ATOM     11  N   UNL     1       7.204   5.435  14.408  0.00  0.00    +0.000 NA
ATOM     12  C   UNL     1       6.611   4.266  13.983  0.00  0.00    +0.000 A 
ATOM     13  C   UNL     1       6.135   3.531  15.052  0.00  0.00    +0.000 A 
ATOM     14  N   UNL     1       6.428   4.301  16.142  0.00  0.00    +0.000 N 
ATOM     15  C   UNL     1       6.153   3.996  17.522  0.00  0.00    +0.000 C 
BRANCH  12  16
ATOM     16  N   UNL     1       6.566   3.913  12.577  0.00  0.00    +0.000 N 
ATOM     17  O   UNL     1       5.700   3.088  12.245  0.00  0.00    +0.000 OA
ATOM     18  O   UNL     1       7.374   4.454  11.815  0.00  0.00    +0.000 OA
ENDBRANCH  12  16
ENDBRANCH   4   7
BRANCH   3  19
ATOM     19  C   UNL     1       1.993   6.362  19.766  0.00  0.00    +0.000 C 
BRANCH  19  20
ATOM     20  C   UNL     1       1.766   7.834  19.539  0.00  0.00    +0.000 A 
ATOM     21  C   UNL     1       1.241   8.613  20.569  0.00  0.00    +0.000 A 
ATOM     22  C   UNL     1       0.989   9.973  20.372  0.00  0.00    +0.000 A 
ATOM     23  C   UNL     1       1.259  10.608  19.145  0.00  0.00    +0.000 A 
ATOM     24  C   UNL     1       1.784   9.810  18.115  0.00  0.00    +0.000 A 
ATOM     25  C   UNL     1       2.027   8.439  18.304  0.00  0.00    +0.000 A 
BRANCH  23  26
ATOM     26  C   UNL     1       0.979  12.055  18.973  0.00  0.00    +0.000 A 
ATOM     27  C   UNL     1       2.017  12.960  18.685  0.00  0.00    +0.000 A 
ATOM     28  C   UNL     1       1.796  14.338  18.601  0.00  0.00    +0.000 A 
ATOM     29  C   UNL     1       0.513  14.862  18.777  0.00  0.00    +0.000 A 
ATOM     30  C   UNL     1      -0.544  13.973  19.025  0.00  0.00    +0.000 A 
ATOM     31  C   UNL     1      -0.312  12.593  19.125  0.00  0.00    +0.000 A 
BRANCH  29  32
ATOM     32  C   UNL     1       0.267  16.347  18.705  0.00  0.00    +0.000 C 
ATOM     33  F   UNL     1      -0.797  16.686  17.921  0.00  0.00    +0.000 F 
ATOM     34  F   UNL     1       0.017  16.894  19.926  0.00  0.00    +0.000 F 
ATOM     35  F   UNL     1       1.331  17.029  18.199  0.00  0.00    +0.000 F 
ENDBRANCH  29  32
ENDBRANCH  23  26
ENDBRANCH  19  20
ENDBRANCH   3  19
TORSDOF 6
ENDMDL
MODEL 2
REMARK VINA RESULT:      -8.7      0.578      1.354
REMARK  Name = 
REMARK  6 active torsions:
REMARK  status: ('A' for Active; 'I' for Inactive)
REMARK    1  A    between atoms: N_3  and  C_4
REMARK    2  A    between atoms: C_4  and  C_5
REMARK    3  A    between atoms: C_8  and  C_9
REMARK    4  A    between atoms: C_12  and  C_13
REMARK    5  A    between atoms: N_21  and  C_22
REMARK    6  A    between atoms: C_27  and  N_28
REMARK                            x       y       z     vdW  Elec       q    Type
REMARK                         _______ _______ _______ _____ _____    ______ ____
ROOT
ATOM      1  O   UNL     1       3.906   5.283  17.927  0.00  0.00    +0.000 OA
ATOM      2  C   UNL     1       4.327   5.573  19.036  0.00  0.00    +0.000 C 
ATOM      3  N   UNL     1       3.555   5.969  20.090  0.00  0.00    +0.000 N 
ATOM      4  N   UNL     1       5.652   5.505  19.377  0.00  0.00    +0.000 N 
ATOM      5  H   UNL     1       3.988   6.206  20.966  0.00  0.00    +0.000 HD
ATOM      6  H   UNL     1       5.933   6.050  20.180  0.00  0.00    +0.000 HD
ENDROOT
BRANCH   4   7
ATOM      7  C   UNL     1       6.689   5.122  18.404  0.00  0.00    +0.000 C 
ATOM      8  C   UNL     1       7.221   6.388  17.700  0.00  0.00    +0.000 C 
ATOM      9  O   UNL     1       7.559   6.325  16.323  0.00  0.00    +0.000 OA
ATOM     10  C   UNL     1       6.986   5.391  15.585  0.00  0.00    +0.000 A 
ATOM     11  N   UNL     1       7.016   5.388  14.276  0.00  0.00    +0.000 NA
ATOM     12  C   UNL     1       6.417   4.201  13.915  0.00  0.00    +0.000 A 
ATOM     13  C   UNL     1       6.026   3.481  15.028  0.00  0.00    +0.000 A 
ATOM     14  N   UNL     1       6.378   4.277  16.080  0.00  0.00    +0.000 N 
ATOM     15  C   UNL     1       6.200   3.997  17.481  0.00  0.00    +0.000 C 
BRANCH  12  16
ATOM     16  N   UNL     1       6.284   3.818  12.523  0.00  0.00    +0.000 N 
ATOM     17  O   UNL     1       7.266   4.035  11.795  0.00  0.00    +0.000 OA
ATOM     18  O   UNL     1       5.221   3.301  12.161  0.00  0.00    +0.000 OA
ENDBRANCH  12  16
ENDBRANCH   4   7
BRANCH   3  19
ATOM     19  C   UNL     1       2.115   6.070  20.012  0.00  0.00    +0.000 C 
BRANCH  19  20
ATOM     20  C   UNL     1       1.690   7.509  19.884  0.00  0.00    +0.000 A 
ATOM     21  C   UNL     1       1.895   8.180  18.678  0.00  0.00    +0.000 A 
ATOM     22  C   UNL     1       1.541   9.524  18.546  0.00  0.00    +0.000 A 
ATOM     23  C   UNL     1       0.961  10.248  19.605  0.00  0.00    +0.000 A 
ATOM     24  C   UNL     1       0.764   9.561  20.815  0.00  0.00    +0.000 A 
ATOM     25  C   UNL     1       1.131   8.212  20.957  0.00  0.00    +0.000 A 
BRANCH  23  26
ATOM     26  C   UNL     1       0.598  11.676  19.427  0.00  0.00    +0.000 A 
ATOM     27  C   UNL     1       1.445  12.550  18.722  0.00  0.00    +0.000 A 
ATOM     28  C   UNL     1       1.170  13.917  18.610  0.00  0.00    +0.000 A 
ATOM     29  C   UNL     1       0.016  14.457  19.183  0.00  0.00    +0.000 A 
ATOM     30  C   UNL     1      -0.862  13.594  19.856  0.00  0.00    +0.000 A 
ATOM     31  C   UNL     1      -0.572  12.227  19.979  0.00  0.00    +0.000 A 
BRANCH  29  32
ATOM     32  C   UNL     1      -0.280  15.931  19.083  0.00  0.00    +0.000 C 
ATOM     33  F   UNL     1       0.730  16.722  19.545  0.00  0.00    +0.000 F 
ATOM     34  F   UNL     1      -0.510  16.332  17.803  0.00  0.00    +0.000 F 
ATOM     35  F   UNL     1      -1.385  16.291  19.793  0.00  0.00    +0.000 F 
ENDBRANCH  29  32
ENDBRANCH  23  26
ENDBRANCH  19  20
ENDBRANCH   3  19
TORSDOF 6
ENDMDL
MODEL 3
REMARK VINA RESULT:      -8.7      0.379      1.043
REMARK  Name = 
REMARK  6 active torsions:
REMARK  status: ('A' for Active; 'I' for Inactive)
REMARK    1  A    between atoms: N_3  and  C_4
REMARK    2  A    between atoms: C_4  and  C_5
REMARK    3  A    between atoms: C_8  and  C_9
REMARK    4  A    between atoms: C_12  and  C_13
REMARK    5  A    between atoms: N_21  and  C_22
REMARK    6  A    between atoms: C_27  and  N_28
REMARK                            x       y       z     vdW  Elec       q    Type
REMARK                         _______ _______ _______ _____ _____    ______ ____
ROOT
ATOM      1  O   UNL     1       3.799   5.634  17.720  0.00  0.00    +0.000 OA
ATOM      2  C   UNL     1       4.154   5.717  18.886  0.00  0.00    +0.000 C 
ATOM      3  N   UNL     1       3.348   6.074  19.928  0.00  0.00    +0.000 N 
ATOM      4  N   UNL     1       5.425   5.425  19.306  0.00  0.00    +0.000 N 
ATOM      5  H   UNL     1       3.730   6.134  20.858  0.00  0.00    +0.000 HD
ATOM      6  H   UNL     1       5.701   5.817  20.195  0.00  0.00    +0.000 HD
ENDROOT
BRANCH   4   7
ATOM      7  C   UNL     1       6.487   5.034  18.363  0.00  0.00    +0.000 C 
ATOM      8  C   UNL     1       7.041   6.295  17.667  0.00  0.00    +0.000 C 
ATOM      9  O   UNL     1       7.416   6.223  16.300  0.00  0.00    +0.000 OA
ATOM     10  C   UNL     1       6.860   5.287  15.552  0.00  0.00    +0.000 A 
ATOM     11  N   UNL     1       6.926   5.277  14.244  0.00  0.00    +0.000 NA
ATOM     12  C   UNL     1       6.334   4.090  13.874  0.00  0.00    +0.000 A 
ATOM     13  C   UNL     1       5.911   3.376  14.979  0.00  0.00    +0.000 A 
ATOM     14  N   UNL     1       6.236   4.178  16.036  0.00  0.00    +0.000 N 
ATOM     15  C   UNL     1       6.020   3.905  17.434  0.00  0.00    +0.000 C 
BRANCH  12  16
ATOM     16  N   UNL     1       6.238   3.699  12.480  0.00  0.00    +0.000 N 
ATOM     17  O   UNL     1       5.101   3.433  12.060  0.00  0.00    +0.000 OA
ATOM     18  O   UNL     1       7.278   3.665  11.813  0.00  0.00    +0.000 OA
ENDBRANCH  12  16
ENDBRANCH   4   7
BRANCH   3  19
ATOM     19  C   UNL     1       1.945   6.380  19.765  0.00  0.00    +0.000 C 
BRANCH  19  20
ATOM     20  C   UNL     1       1.740   7.864  19.606  0.00  0.00    +0.000 A 
ATOM     21  C   UNL     1       1.227   8.603  20.671  0.00  0.00    +0.000 A 
ATOM     22  C   UNL     1       0.996   9.974  20.536  0.00  0.00    +0.000 A 
ATOM     23  C   UNL     1       1.276  10.661  19.340  0.00  0.00    +0.000 A 
ATOM     24  C   UNL     1       1.790   9.903  18.274  0.00  0.00    +0.000 A 
ATOM     25  C   UNL     1       2.011   8.521  18.400  0.00  0.00    +0.000 A 
BRANCH  23  26
ATOM     26  C   UNL     1       1.018  12.118  19.234  0.00  0.00    +0.000 A 
ATOM     27  C   UNL     1      -0.189  12.597  18.693  0.00  0.00    +0.000 A 
ATOM     28  C   UNL     1      -0.426  13.962  18.504  0.00  0.00    +0.000 A 
ATOM     29  C   UNL     1       0.535  14.906  18.876  0.00  0.00    +0.000 A 
ATOM     30  C   UNL     1       1.730  14.451  19.453  0.00  0.00    +0.000 A 
ATOM     31  C   UNL     1       1.967  13.080  19.625  0.00  0.00    +0.000 A 
BRANCH  29  32
ATOM     32  C   UNL     1       0.297  16.378  18.659  0.00  0.00    +0.000 C 
ATOM     33  F   UNL     1       1.230  16.969  17.858  0.00  0.00    +0.000 F 
ATOM     34  F   UNL     1      -0.907  16.633  18.077  0.00  0.00    +0.000 F 
ATOM     35  F   UNL     1       0.309  17.086  19.823  0.00  0.00    +0.000 F 
ENDBRANCH  29  32
ENDBRANCH  23  26
ENDBRANCH  19  20
ENDBRANCH   3  19
TORSDOF 6
ENDMDL
MODEL 4
REMARK VINA RESULT:      -8.7      1.528      2.312
REMARK  Name = 
REMARK  6 active torsions:
REMARK  status: ('A' for Active; 'I' for Inactive)
REMARK    1  A    between atoms: N_3  and  C_4
REMARK    2  A    between atoms: C_4  and  C_5
REMARK    3  A    between atoms: C_8  and  C_9
REMARK    4  A    between atoms: C_12  and  C_13
REMARK    5  A    between atoms: N_21  and  C_22
REMARK    6  A    between atoms: C_27  and  N_28
REMARK                            x       y       z     vdW  Elec       q    Type
REMARK                         _______ _______ _______ _____ _____    ______ ____
ROOT
ATOM      1  O   UNL     1       1.624   5.401  19.537  0.00  0.00    +0.000 OA
ATOM      2  C   UNL     1       2.442   6.248  19.864  0.00  0.00    +0.000 C 
ATOM      3  N   UNL     1       2.160   7.378  20.576  0.00  0.00    +0.000 N 
ATOM      4  N   UNL     1       3.778   6.150  19.577  0.00  0.00    +0.000 N 
ATOM      5  H   UNL     1       2.895   8.032  20.787  0.00  0.00    +0.000 HD
ATOM      6  H   UNL     1       4.302   7.014  19.600  0.00  0.00    +0.000 HD
ENDROOT
BRANCH   4   7
ATOM      7  C   UNL     1       4.329   5.028  18.797  0.00  0.00    +0.000 C 
ATOM      8  C   UNL     1       5.789   4.777  19.227  0.00  0.00    +0.000 C 
ATOM      9  O   UNL     1       6.744   4.397  18.248  0.00  0.00    +0.000 OA
ATOM     10  C   UNL     1       6.507   4.726  16.990  0.00  0.00    +0.000 A 
ATOM     11  N   UNL     1       7.414   4.662  16.047  0.00  0.00    +0.000 NA
ATOM     12  C   UNL     1       6.734   4.968  14.888  0.00  0.00    +0.000 A 
ATOM     13  C   UNL     1       5.399   5.216  15.143  0.00  0.00    +0.000 A 
ATOM     14  N   UNL     1       5.288   5.081  16.498  0.00  0.00    +0.000 N 
ATOM     15  C   UNL     1       4.097   5.227  17.293  0.00  0.00    +0.000 C 
BRANCH  12  16
ATOM     16  N   UNL     1       7.404   4.975  13.602  0.00  0.00    +0.000 N 
ATOM     17  O   UNL     1       6.961   4.194  12.746  0.00  0.00    +0.000 OA
ATOM     18  O   UNL     1       8.353   5.753  13.445  0.00  0.00    +0.000 OA
ENDBRANCH  12  16
ENDBRANCH   4   7
BRANCH   3  19
ATOM     19  C   UNL     1       0.832   7.694  21.052  0.00  0.00    +0.000 C 
BRANCH  19  20
ATOM     20  C   UNL     1       0.502   9.138  20.784  0.00  0.00    +0.000 A 
ATOM     21  C   UNL     1       0.929   9.729  19.595  0.00  0.00    +0.000 A 
ATOM     22  C   UNL     1       0.664  11.077  19.338  0.00  0.00    +0.000 A 
ATOM     23  C   UNL     1      -0.042  11.882  20.252  0.00  0.00    +0.000 A 
ATOM     24  C   UNL     1      -0.462  11.275  21.447  0.00  0.00    +0.000 A 
ATOM     25  C   UNL     1      -0.187   9.923  21.715  0.00  0.00    +0.000 A 
BRANCH  23  26
ATOM     26  C   UNL     1      -0.304  13.310  19.944  0.00  0.00    +0.000 A 
ATOM     27  C   UNL     1       0.489  14.002  19.010  0.00  0.00    +0.000 A 
ATOM     28  C   UNL     1       0.319  15.368  18.763  0.00  0.00    +0.000 A 
ATOM     29  C   UNL     1      -0.675  16.090  19.428  0.00  0.00    +0.000 A 
ATOM     30  C   UNL     1      -1.502  15.410  20.334  0.00  0.00    +0.000 A 
ATOM     31  C   UNL     1      -1.316  14.044  20.590  0.00  0.00    +0.000 A 
BRANCH  29  32
ATOM     32  C   UNL     1      -0.854  17.566  19.181  0.00  0.00    +0.000 C 
ATOM     33  F   UNL     1       0.319  18.229  18.967  0.00  0.00    +0.000 F 
ATOM     34  F   UNL     1      -1.630  17.824  18.093  0.00  0.00    +0.000 F 
ATOM     35  F   UNL     1      -1.451  18.202  20.227  0.00  0.00    +0.000 F 
ENDBRANCH  29  32
ENDBRANCH  23  26
ENDBRANCH  19  20
ENDBRANCH   3  19
TORSDOF 6
ENDMDL
MODEL 5
REMARK VINA RESULT:      -8.7      7.730     10.649
REMARK  Name = 
REMARK  6 active torsions:
REMARK  status: ('A' for Active; 'I' for Inactive)
REMARK    1  A    between atoms: N_3  and  C_4
REMARK    2  A    between atoms: C_4  and  C_5
REMARK    3  A    between atoms: C_8  and  C_9
REMARK    4  A    between atoms: C_12  and  C_13
REMARK    5  A    between atoms: N_21  and  C_22
REMARK    6  A    between atoms: C_27  and  N_28
REMARK                            x       y       z     vdW  Elec       q    Type
REMARK                         _______ _______ _______ _____ _____    ______ ____
ROOT
ATOM      1  O   UNL     1       2.641  13.787  20.676  0.00  0.00    +0.000 OA
ATOM      2  C   UNL     1       2.781  13.765  19.463  0.00  0.00    +0.000 C 
ATOM      3  N   UNL     1       1.992  13.068  18.594  0.00  0.00    +0.000 N 
ATOM      4  N   UNL     1       3.750  14.476  18.807  0.00  0.00    +0.000 N 
ATOM      5  H   UNL     1       2.191  13.093  17.608  0.00  0.00    +0.000 HD
ATOM      6  H   UNL     1       3.986  14.156  17.878  0.00  0.00    +0.000 HD
ENDROOT
BRANCH   4   7
ATOM      7  C   UNL     1       4.742  15.292  19.529  0.00  0.00    +0.000 C 
ATOM      8  C   UNL     1       4.480  16.785  19.241  0.00  0.00    +0.000 C 
ATOM      9  O   UNL     1       5.583  17.668  19.103  0.00  0.00    +0.000 OA
ATOM     10  C   UNL     1       6.748  17.156  18.749  0.00  0.00    +0.000 A 
ATOM     11  N   UNL     1       7.761  17.882  18.346  0.00  0.00    +0.000 NA
ATOM     12  C   UNL     1       8.795  16.984  18.195  0.00  0.00    +0.000 A 
ATOM     13  C   UNL     1       8.395  15.701  18.517  0.00  0.00    +0.000 A 
ATOM     14  N   UNL     1       7.074  15.837  18.841  0.00  0.00    +0.000 N 
ATOM     15  C   UNL     1       6.171  14.798  19.262  0.00  0.00    +0.000 C 
BRANCH  12  16
ATOM     16  N   UNL     1      10.115  17.420  17.780  0.00  0.00    +0.000 N 
ATOM     17  O   UNL     1      10.896  16.531  17.407  0.00  0.00    +0.000 OA
ATOM     18  O   UNL     1      10.367  18.630  17.817  0.00  0.00    +0.000 OA
ENDBRANCH  12  16
ENDBRANCH   4   7
BRANCH   3  19
ATOM     19  C   UNL     1       0.861  12.277  19.024  0.00  0.00    +0.000 C 
BRANCH  19  20
ATOM     20  C   UNL     1       1.228  10.818  19.090  0.00  0.00    +0.000 A 
ATOM     21  C   UNL     1       1.868  10.223  18.003  0.00  0.00    +0.000 A 
ATOM     22  C   UNL     1       2.187   8.863  18.026  0.00  0.00    +0.000 A 
ATOM     23  C   UNL     1       1.890   8.048  19.135  0.00  0.00    +0.000 A 
ATOM     24  C   UNL     1       1.241   8.661  20.221  0.00  0.00    +0.000 A 
ATOM     25  C   UNL     1       0.906  10.025  20.197  0.00  0.00    +0.000 A 
BRANCH  23  26
ATOM     26  C   UNL     1       2.245   6.608  19.123  0.00  0.00    +0.000 A 
ATOM     27  C   UNL     1       2.636   5.973  17.930  0.00  0.00    +0.000 A 
ATOM     28  C   UNL     1       2.895   4.601  17.872  0.00  0.00    +0.000 A 
ATOM     29  C   UNL     1       2.796   3.812  19.021  0.00  0.00    +0.000 A 
ATOM     30  C   UNL     1       2.446   4.432  20.230  0.00  0.00    +0.000 A 
ATOM     31  C   UNL     1       2.172   5.807  20.277  0.00  0.00    +0.000 A 
BRANCH  29  32
ATOM     32  C   UNL     1       3.056   2.328  18.965  0.00  0.00    +0.000 C 
ATOM     33  F   UNL     1       1.970   1.572  19.299  0.00  0.00    +0.000 F 
ATOM     34  F   UNL     1       3.433   1.910  17.726  0.00  0.00    +0.000 F 
ATOM     35  F   UNL     1       4.050   1.939  19.811  0.00  0.00    +0.000 F 
ENDBRANCH  29  32
ENDBRANCH  23  26
ENDBRANCH  19  20
ENDBRANCH   3  19
TORSDOF 6
ENDMDL
MODEL 6
REMARK VINA RESULT:      -8.6      0.286      1.380
REMARK  Name = 
REMARK  6 active torsions:
REMARK  status: ('A' for Active; 'I' for Inactive)
REMARK    1  A    between atoms: N_3  and  C_4
REMARK    2  A    between atoms: C_4  and  C_5
REMARK    3  A    between atoms: C_8  and  C_9
REMARK    4  A    between atoms: C_12  and  C_13
REMARK    5  A    between atoms: N_21  and  C_22
REMARK    6  A    between atoms: C_27  and  N_28
REMARK                            x       y       z     vdW  Elec       q    Type
REMARK                         _______ _______ _______ _____ _____    ______ ____
ROOT
ATOM      1  O   UNL     1       3.827   5.585  17.691  0.00  0.00    +0.000 OA
ATOM      2  C   UNL     1       4.197   5.748  18.844  0.00  0.00    +0.000 C 
ATOM      3  N   UNL     1       3.395   6.136  19.878  0.00  0.00    +0.000 N 
ATOM      4  N   UNL     1       5.484   5.529  19.257  0.00  0.00    +0.000 N 
ATOM      5  H   UNL     1       3.789   6.264  20.796  0.00  0.00    +0.000 HD
ATOM      6  H   UNL     1       5.760   5.982  20.117  0.00  0.00    +0.000 HD
ENDROOT
BRANCH   4   7
ATOM      7  C   UNL     1       6.546   5.122  18.319  0.00  0.00    +0.000 C 
ATOM      8  C   UNL     1       7.094   6.371  17.598  0.00  0.00    +0.000 C 
ATOM      9  O   UNL     1       7.466   6.274  16.232  0.00  0.00    +0.000 OA
ATOM     10  C   UNL     1       6.912   5.321  15.503  0.00  0.00    +0.000 A 
ATOM     11  N   UNL     1       6.975   5.285  14.196  0.00  0.00    +0.000 NA
ATOM     12  C   UNL     1       6.385   4.089  13.850  0.00  0.00    +0.000 A 
ATOM     13  C   UNL     1       5.967   3.397  14.970  0.00  0.00    +0.000 A 
ATOM     14  N   UNL     1       6.292   4.220  16.011  0.00  0.00    +0.000 N 
ATOM     15  C   UNL     1       6.080   3.974  17.414  0.00  0.00    +0.000 C 
BRANCH  12  16
ATOM     16  N   UNL     1       6.287   3.671  12.465  0.00  0.00    +0.000 N 
ATOM     17  O   UNL     1       5.154   3.370  12.059  0.00  0.00    +0.000 OA
ATOM     18  O   UNL     1       7.322   3.651  11.789  0.00  0.00    +0.000 OA
ENDBRANCH  12  16
ENDBRANCH   4   7
BRANCH   3  19
ATOM     19  C   UNL     1       1.979   6.381  19.723  0.00  0.00    +0.000 C 
BRANCH  19  20
ATOM     20  C   UNL     1       1.702   7.858  19.630  0.00  0.00    +0.000 A 
ATOM     21  C   UNL     1       1.973   8.533  18.439  0.00  0.00    +0.000 A 
ATOM     22  C   UNL     1       1.758   9.909  18.340  0.00  0.00    +0.000 A 
ATOM     23  C   UNL     1       1.256  10.663  19.418  0.00  0.00    +0.000 A 
ATOM     24  C   UNL     1       0.991   9.971  20.612  0.00  0.00    +0.000 A 
ATOM     25  C   UNL     1       1.219   8.589  20.721  0.00  0.00    +0.000 A 
BRANCH  23  26
ATOM     26  C   UNL     1       1.040  12.124  19.274  0.00  0.00    +0.000 A 
ATOM     27  C   UNL     1      -0.257  12.668  19.328  0.00  0.00    +0.000 A 
ATOM     28  C   UNL     1      -0.499  14.028  19.113  0.00  0.00    +0.000 A 
ATOM     29  C   UNL     1       0.559  14.904  18.859  0.00  0.00    +0.000 A 
ATOM     30  C   UNL     1       1.864  14.389  18.841  0.00  0.00    +0.000 A 
ATOM     31  C   UNL     1       2.098  13.021  19.041  0.00  0.00    +0.000 A 
BRANCH  29  32
ATOM     32  C   UNL     1       0.308  16.368  18.608  0.00  0.00    +0.000 C 
ATOM     33  F   UNL     1       0.029  17.075  19.741  0.00  0.00    +0.000 F 
ATOM     34  F   UNL     1       1.375  16.991  18.036  0.00  0.00    +0.000 F 
ATOM     35  F   UNL     1      -0.744  16.582  17.770  0.00  0.00    +0.000 F 
ENDBRANCH  29  32
ENDBRANCH  23  26
ENDBRANCH  19  20
ENDBRANCH   3  19
TORSDOF 6
ENDMDL
MODEL 7
REMARK VINA RESULT:      -8.6      1.468      2.315
REMARK  Name = 
REMARK  6 active torsions:
REMARK  status: ('A' for Active; 'I' for Inactive)
REMARK    1  A    between atoms: N_3  and  C_4
REMARK    2  A    between atoms: C_4  and  C_5
REMARK    3  A    between atoms: C_8  and  C_9
REMARK    4  A    between atoms: C_12  and  C_13
REMARK    5  A    between atoms: N_21  and  C_22
REMARK    6  A    between atoms: C_27  and  N_28
REMARK                            x       y       z     vdW  Elec       q    Type
REMARK                         _______ _______ _______ _____ _____    ______ ____
ROOT
ATOM      1  O   UNL     1       1.852   5.279  19.332  0.00  0.00    +0.000 OA
ATOM      2  C   UNL     1       2.672   6.081  19.753  0.00  0.00    +0.000 C 
ATOM      3  N   UNL     1       2.380   7.172  20.520  0.00  0.00    +0.000 N 
ATOM      4  N   UNL     1       4.018   5.966  19.528  0.00  0.00    +0.000 N 
ATOM      5  H   UNL     1       3.118   7.792  20.809  0.00  0.00    +0.000 HD
ATOM      6  H   UNL     1       4.561   6.812  19.633  0.00  0.00    +0.000 HD
ENDROOT
BRANCH   4   7
ATOM      7  C   UNL     1       4.582   4.880  18.707  0.00  0.00    +0.000 C 
ATOM      8  C   UNL     1       6.055   4.653  19.105  0.00  0.00    +0.000 C 
ATOM      9  O   UNL     1       7.002   4.325  18.100  0.00  0.00    +0.000 OA
ATOM     10  C   UNL     1       6.736   4.683  16.856  0.00  0.00    +0.000 A 
ATOM     11  N   UNL     1       7.627   4.668  15.896  0.00  0.00    +0.000 NA
ATOM     12  C   UNL     1       6.920   4.990  14.759  0.00  0.00    +0.000 A 
ATOM     13  C   UNL     1       5.584   5.198  15.043  0.00  0.00    +0.000 A 
ATOM     14  N   UNL     1       5.500   5.021  16.395  0.00  0.00    +0.000 N 
ATOM     15  C   UNL     1       4.319   5.116  17.214  0.00  0.00    +0.000 C 
BRANCH  12  16
ATOM     16  N   UNL     1       7.568   5.050  13.462  0.00  0.00    +0.000 N 
ATOM     17  O   UNL     1       8.556   5.795  13.374  0.00  0.00    +0.000 OA
ATOM     18  O   UNL     1       7.103   4.359  12.548  0.00  0.00    +0.000 OA
ENDBRANCH  12  16
ENDBRANCH   4   7
BRANCH   3  19
ATOM     19  C   UNL     1       1.037   7.493  20.948  0.00  0.00    +0.000 C 
BRANCH  19  20
ATOM     20  C   UNL     1       0.749   8.956  20.739  0.00  0.00    +0.000 A 
ATOM     21  C   UNL     1       1.145   9.570  19.551  0.00  0.00    +0.000 A 
ATOM     22  C   UNL     1       0.920  10.934  19.349  0.00  0.00    +0.000 A 
ATOM     23  C   UNL     1       0.284  11.734  20.318  0.00  0.00    +0.000 A 
ATOM     24  C   UNL     1      -0.105  11.103  21.511  0.00  0.00    +0.000 A 
ATOM     25  C   UNL     1       0.131   9.735  21.724  0.00  0.00    +0.000 A 
BRANCH  23  26
ATOM     26  C   UNL     1       0.063  13.180  20.067  0.00  0.00    +0.000 A 
ATOM     27  C   UNL     1      -0.937  13.885  20.762  0.00  0.00    +0.000 A 
ATOM     28  C   UNL     1      -1.225  15.225  20.487  0.00  0.00    +0.000 A 
ATOM     29  C   UNL     1      -0.499  15.921  19.517  0.00  0.00    +0.000 A 
ATOM     30  C   UNL     1       0.530  15.247  18.841  0.00  0.00    +0.000 A 
ATOM     31  C   UNL     1       0.802  13.898  19.110  0.00  0.00    +0.000 A 
BRANCH  29  32
ATOM     32  C   UNL     1      -0.812  17.360  19.200  0.00  0.00    +0.000 C 
ATOM     33  F   UNL     1      -1.428  18.021  20.222  0.00  0.00    +0.000 F 
ATOM     34  F   UNL     1       0.302  18.086  18.908  0.00  0.00    +0.000 F 
ATOM     35  F   UNL     1      -1.638  17.492  18.125  0.00  0.00    +0.000 F 
ENDBRANCH  29  32
ENDBRANCH  23  26
ENDBRANCH  19  20
ENDBRANCH   3  19
TORSDOF 6
ENDMDL
MODEL 8
REMARK VINA RESULT:      -8.6      1.309      1.991
REMARK  Name = 
REMARK  6 active torsions:
REMARK  status: ('A' for Active; 'I' for Inactive)
REMARK    1  A    between atoms: N_3  and  C_4
REMARK    2  A    between atoms: C_4  and  C_5
REMARK    3  A    between atoms: C_8  and  C_9
REMARK    4  A    between atoms: C_12  and  C_13
REMARK    5  A    between atoms: N_21  and  C_22
REMARK    6  A    between atoms: C_27  and  N_28
REMARK                            x       y       z     vdW  Elec       q    Type
REMARK                         _______ _______ _______ _____ _____    ______ ____
ROOT
ATOM      1  O   UNL     1       1.977   5.574  18.936  0.00  0.00    +0.000 OA
ATOM      2  C   UNL     1       2.773   6.169  19.647  0.00  0.00    +0.000 C 
ATOM      3  N   UNL     1       2.462   7.213  20.470  0.00  0.00    +0.000 N 
ATOM      4  N   UNL     1       4.098   5.836  19.732  0.00  0.00    +0.000 N 
ATOM      5  H   UNL     1       3.185   7.658  21.009  0.00  0.00    +0.000 HD
ATOM      6  H   UNL     1       4.717   6.556  20.079  0.00  0.00    +0.000 HD
ENDROOT
BRANCH   4   7
ATOM      7  C   UNL     1       4.684   4.753  18.922  0.00  0.00    +0.000 C 
ATOM      8  C   UNL     1       6.185   4.623  19.254  0.00  0.00    +0.000 C 
ATOM      9  O   UNL     1       7.100   4.311  18.215  0.00  0.00    +0.000 OA
ATOM     10  C   UNL     1       6.755   4.607  16.974  0.00  0.00    +0.000 A 
ATOM     11  N   UNL     1       7.599   4.604  15.973  0.00  0.00    +0.000 NA
ATOM     12  C   UNL     1       6.821   4.844  14.861  0.00  0.00    +0.000 A 
ATOM     13  C   UNL     1       5.490   4.988  15.204  0.00  0.00    +0.000 A 
ATOM     14  N   UNL     1       5.481   4.858  16.564  0.00  0.00    +0.000 N 
ATOM     15  C   UNL     1       4.337   4.918  17.436  0.00  0.00    +0.000 C 
BRANCH  12  16
ATOM     16  N   UNL     1       7.401   4.891  13.533  0.00  0.00    +0.000 N 
ATOM     17  O   UNL     1       6.971   4.063  12.714  0.00  0.00    +0.000 OA
ATOM     18  O   UNL     1       8.267   5.744  13.306  0.00  0.00    +0.000 OA
ENDBRANCH  12  16
ENDBRANCH   4   7
BRANCH   3  19
ATOM     19  C   UNL     1       1.117   7.727  20.610  0.00  0.00    +0.000 C 
BRANCH  19  20
ATOM     20  C   UNL     1       1.072   9.194  20.271  0.00  0.00    +0.000 A 
ATOM     21  C   UNL     1       0.702  10.113  21.253  0.00  0.00    +0.000 A 
ATOM     22  C   UNL     1       0.620  11.475  20.954  0.00  0.00    +0.000 A 
ATOM     23  C   UNL     1       0.911  11.973  19.670  0.00  0.00    +0.000 A 
ATOM     24  C   UNL     1       1.279  11.035  18.690  0.00  0.00    +0.000 A 
ATOM     25  C   UNL     1       1.350   9.663  18.982  0.00  0.00    +0.000 A 
BRANCH  23  26
ATOM     26  C   UNL     1       0.813  13.427  19.390  0.00  0.00    +0.000 A 
ATOM     27  C   UNL     1      -0.420  14.011  19.046  0.00  0.00    +0.000 A 
ATOM     28  C   UNL     1      -0.528  15.360  18.696  0.00  0.00    +0.000 A 
ATOM     29  C   UNL     1       0.599  16.186  18.702  0.00  0.00    +0.000 A 
ATOM     30  C   UNL     1       1.831  15.632  19.080  0.00  0.00    +0.000 A 
ATOM     31  C   UNL     1       1.935  14.274  19.415  0.00  0.00    +0.000 A 
BRANCH  29  32
ATOM     32  C   UNL     1       0.496  17.637  18.308  0.00  0.00    +0.000 C 
ATOM     33  F   UNL     1       0.539  18.493  19.369  0.00  0.00    +0.000 F 
ATOM     34  F   UNL     1       1.502  18.025  17.478  0.00  0.00    +0.000 F 
ATOM     35  F   UNL     1      -0.662  17.920  17.652  0.00  0.00    +0.000 F 
ENDBRANCH  29  32
ENDBRANCH  23  26
ENDBRANCH  19  20
ENDBRANCH   3  19
TORSDOF 6
ENDMDL
MODEL 9
REMARK VINA RESULT:      -8.5      2.713      3.220
REMARK  Name = 
REMARK  6 active torsions:
REMARK  status: ('A' for Active; 'I' for Inactive)
REMARK    1  A    between atoms: N_3  and  C_4
REMARK    2  A    between atoms: C_4  and  C_5
REMARK    3  A    between atoms: C_8  and  C_9
REMARK    4  A    between atoms: C_12  and  C_13
REMARK    5  A    between atoms: N_21  and  C_22
REMARK    6  A    between atoms: C_27  and  N_28
REMARK                            x       y       z     vdW  Elec       q    Type
REMARK                         _______ _______ _______ _____ _____    ______ ____
ROOT
ATOM      1  O   UNL     1       3.379   4.967  20.062  0.00  0.00    +0.000 OA
ATOM      2  C   UNL     1       3.339   6.064  19.525  0.00  0.00    +0.000 C 
ATOM      3  N   UNL     1       2.438   7.047  19.815  0.00  0.00    +0.000 N 
ATOM      4  N   UNL     1       4.231   6.462  18.566  0.00  0.00    +0.000 N 
ATOM      5  H   UNL     1       2.467   7.917  19.309  0.00  0.00    +0.000 HD
ATOM      6  H   UNL     1       3.937   7.226  17.973  0.00  0.00    +0.000 HD
ENDROOT
BRANCH   4   7
ATOM      7  C   UNL     1       5.290   5.568  18.065  0.00  0.00    +0.000 C 
ATOM      8  C   UNL     1       6.542   6.402  17.723  0.00  0.00    +0.000 C 
ATOM      9  O   UNL     1       7.326   6.043  16.596  0.00  0.00    +0.000 OA
ATOM     10  C   UNL     1       6.745   5.357  15.627  0.00  0.00    +0.000 A 
ATOM     11  N   UNL     1       7.278   5.190  14.443  0.00  0.00    +0.000 NA
ATOM     12  C   UNL     1       6.420   4.332  13.792  0.00  0.00    +0.000 A 
ATOM     13  C   UNL     1       5.358   3.977  14.602  0.00  0.00    +0.000 A 
ATOM     14  N   UNL     1       5.577   4.669  15.760  0.00  0.00    +0.000 N 
ATOM     15  C   UNL     1       4.766   4.654  16.949  0.00  0.00    +0.000 C 
BRANCH  12  16
ATOM     16  N   UNL     1       6.689   3.881  12.440  0.00  0.00    +0.000 N 
ATOM     17  O   UNL     1       5.989   2.945  12.021  0.00  0.00    +0.000 OA
ATOM     18  O   UNL     1       7.579   4.455  11.802  0.00  0.00    +0.000 OA
ENDBRANCH  12  16
ENDBRANCH   4   7
BRANCH   3  19
ATOM     19  C   UNL     1       1.420   6.903  20.832  0.00  0.00    +0.000 C 
BRANCH  19  20
ATOM     20  C   UNL     1       0.852   8.247  21.208  0.00  0.00    +0.000 A 
ATOM     21  C   UNL     1       0.079   8.364  22.363  0.00  0.00    +0.000 A 
ATOM     22  C   UNL     1      -0.486   9.592  22.715  0.00  0.00    +0.000 A 
ATOM     23  C   UNL     1      -0.295  10.749  21.936  0.00  0.00    +0.000 A 
ATOM     24  C   UNL     1       0.482  10.615  20.773  0.00  0.00    +0.000 A 
ATOM     25  C   UNL     1       1.042   9.379  20.408  0.00  0.00    +0.000 A 
BRANCH  23  26
ATOM     26  C   UNL     1      -0.912  12.036  22.342  0.00  0.00    +0.000 A 
ATOM     27  C   UNL     1      -0.238  13.253  22.136  0.00  0.00    +0.000 A 
ATOM     28  C   UNL     1      -0.757  14.472  22.583  0.00  0.00    +0.000 A 
ATOM     29  C   UNL     1      -1.992  14.520  23.236  0.00  0.00    +0.000 A 
ATOM     30  C   UNL     1      -2.699  13.322  23.416  0.00  0.00    +0.000 A 
ATOM     31  C   UNL     1      -2.165  12.101  22.979  0.00  0.00    +0.000 A 
BRANCH  29  32
ATOM     32  C   UNL     1      -2.551  15.826  23.738  0.00  0.00    +0.000 C 
ATOM     33  F   UNL     1      -3.044  15.755  25.008  0.00  0.00    +0.000 F 
ATOM     34  F   UNL     1      -1.622  16.820  23.756  0.00  0.00    +0.000 F 
ATOM     35  F   UNL     1      -3.577  16.285  22.969  0.00  0.00    +0.000 F 
ENDBRANCH  29  32
ENDBRANCH  23  26
ENDBRANCH  19  20
ENDBRANCH   3  19
TORSDOF 6
ENDMDL
