MODEL 1
REMARK VINA RESULT:      -6.9      0.000      0.000
REMARK  Name = 
REMARK  5 active torsions:
REMARK  status: ('A' for Active; 'I' for Inactive)
REMARK    1  A    between atoms: C_1  and  O_2
REMARK    2  A    between atoms: O_2  and  C_3
REMARK    3  A    between atoms: C_6  and  C_7
REMARK    4  A    between atoms: N_8  and  O_9
REMARK    5  A    between atoms: N_10  and  C_11
REMARK                            x       y       z     vdW  Elec       q    Type
REMARK                         _______ _______ _______ _____ _____    ______ ____
ROOT
ATOM      1  C   UNL     1       5.036   4.757  16.552  0.00  0.00    +0.000 C 
ATOM      2  N   UNL     1       5.092   6.053  16.334  0.00  0.00    +0.000 NA
ATOM      3  N   UNL     1       5.878   3.924  15.826  0.00  0.00    +0.000 N 
ATOM      4  H   UNL     1       6.101   3.012  16.201  0.00  0.00    +0.000 HD
ENDROOT
BRANCH   1   8
ATOM      5  C   UNL     1       2.391   2.871  19.421  0.00  0.00    +0.000 A 
ATOM      6  C   UNL     1       2.009   3.026  18.086  0.00  0.00    +0.000 A 
ATOM      7  C   UNL     1       2.873   3.630  17.163  0.00  0.00    +0.000 A 
ATOM      8  C   UNL     1       4.134   4.092  17.566  0.00  0.00    +0.000 A 
ATOM      9  C   UNL     1       4.514   3.916  18.902  0.00  0.00    +0.000 A 
ATOM     10  C   UNL     1       3.641   3.328  19.828  0.00  0.00    +0.000 A 
BRANCH   5  12
ATOM     11  C   UNL     1       1.553   2.604  21.622  0.00  0.00    +0.000 C 
ATOM     12  O   UNL     1       1.450   2.301  20.235  0.00  0.00    +0.000 OA
ENDBRANCH   5  12
ENDBRANCH   1   8
BRANCH   3  13
ATOM     13  C   UNL     1       6.310   4.134  14.499  0.00  0.00    +0.000 A 
ATOM     14  C   UNL     1       5.713   3.417  13.457  0.00  0.00    +0.000 A 
ATOM     15  C   UNL     1       6.156   3.562  12.136  0.00  0.00    +0.000 A 
ATOM     16  C   UNL     1       7.201   4.434  11.839  0.00  0.00    +0.000 A 
ATOM     17  C   UNL     1       7.812   5.149  12.864  0.00  0.00    +0.000 A 
ATOM     18  C   UNL     1       7.378   4.988  14.185  0.00  0.00    +0.000 A 
ENDBRANCH   3  13
BRANCH   2  19
ATOM     19  O   UNL     1       4.173   6.821  17.043  0.00  0.00    +0.000 OA
ATOM     20  H   UNL     1       3.433   6.874  16.409  0.00  0.00    +0.000 HD
ENDBRANCH   2  19
TORSDOF 4
ENDMDL
MODEL 2
REMARK VINA RESULT:      -6.9      0.108      1.139
REMARK  Name = 
REMARK  5 active torsions:
REMARK  status: ('A' for Active; 'I' for Inactive)
REMARK    1  A    between atoms: C_1  and  O_2
REMARK    2  A    between atoms: O_2  and  C_3
REMARK    3  A    between atoms: C_6  and  C_7
REMARK    4  A    between atoms: N_8  and  O_9
REMARK    5  A    between atoms: N_10  and  C_11
REMARK                            x       y       z     vdW  Elec       q    Type
REMARK                         _______ _______ _______ _____ _____    ______ ____
ROOT
ATOM      1  C   UNL     1       5.016   4.732  16.528  0.00  0.00    +0.000 C 
ATOM      2  N   UNL     1       5.101   6.030  16.341  0.00  0.00    +0.000 NA
ATOM      3  N   UNL     1       5.856   3.899  15.801  0.00  0.00    +0.000 N 
ATOM      4  H   UNL     1       6.055   2.975  16.160  0.00  0.00    +0.000 HD
ENDROOT
BRANCH   1   8
ATOM      5  C   UNL     1       2.393   2.789  19.380  0.00  0.00    +0.000 A 
ATOM      6  C   UNL     1       3.654   3.249  19.763  0.00  0.00    +0.000 A 
ATOM      7  C   UNL     1       4.494   3.882  18.837  0.00  0.00    +0.000 A 
ATOM      8  C   UNL     1       4.081   4.062  17.509  0.00  0.00    +0.000 A 
ATOM      9  C   UNL     1       2.808   3.613  17.140  0.00  0.00    +0.000 A 
ATOM     10  C   UNL     1       1.977   2.963  18.063  0.00  0.00    +0.000 A 
BRANCH   5  12
ATOM     11  C   UNL     1       1.622   2.816  21.621  0.00  0.00    +0.000 C 
ATOM     12  O   UNL     1       1.680   2.155  20.361  0.00  0.00    +0.000 OA
ENDBRANCH   5  12
ENDBRANCH   1   8
BRANCH   3  13
ATOM     13  C   UNL     1       6.320   4.129  14.488  0.00  0.00    +0.000 A 
ATOM     14  C   UNL     1       5.753   3.423  13.422  0.00  0.00    +0.000 A 
ATOM     15  C   UNL     1       6.227   3.588  12.114  0.00  0.00    +0.000 A 
ATOM     16  C   UNL     1       7.274   4.471  11.856  0.00  0.00    +0.000 A 
ATOM     17  C   UNL     1       7.855   5.176  12.904  0.00  0.00    +0.000 A 
ATOM     18  C   UNL     1       7.390   4.994  14.212  0.00  0.00    +0.000 A 
ENDBRANCH   3  13
BRANCH   2  19
ATOM     19  O   UNL     1       4.181   6.800  17.048  0.00  0.00    +0.000 OA
ATOM     20  H   UNL     1       3.995   7.516  16.411  0.00  0.00    +0.000 HD
ENDBRANCH   2  19
TORSDOF 4
ENDMDL
MODEL 3
REMARK VINA RESULT:      -6.8      0.077      1.136
REMARK  Name = 
REMARK  5 active torsions:
REMARK  status: ('A' for Active; 'I' for Inactive)
REMARK    1  A    between atoms: C_1  and  O_2
REMARK    2  A    between atoms: O_2  and  C_3
REMARK    3  A    between atoms: C_6  and  C_7
REMARK    4  A    between atoms: N_8  and  O_9
REMARK    5  A    between atoms: N_10  and  C_11
REMARK                            x       y       z     vdW  Elec       q    Type
REMARK                         _______ _______ _______ _____ _____    ______ ____
ROOT
ATOM      1  C   UNL     1       5.070   4.695  16.573  0.00  0.00    +0.000 C 
ATOM      2  N   UNL     1       5.144   5.986  16.335  0.00  0.00    +0.000 NA
ATOM      3  N   UNL     1       5.911   3.841  15.871  0.00  0.00    +0.000 N 
ATOM      4  H   UNL     1       6.120   2.933  16.263  0.00  0.00    +0.000 HD
ENDROOT
BRANCH   1   8
ATOM      5  C   UNL     1       2.369   2.884  19.438  0.00  0.00    +0.000 A 
ATOM      6  C   UNL     1       2.011   3.010  18.095  0.00  0.00    +0.000 A 
ATOM      7  C   UNL     1       2.893   3.590  17.173  0.00  0.00    +0.000 A 
ATOM      8  C   UNL     1       4.149   4.057  17.586  0.00  0.00    +0.000 A 
ATOM      9  C   UNL     1       4.505   3.909  18.932  0.00  0.00    +0.000 A 
ATOM     10  C   UNL     1       3.614   3.346  19.856  0.00  0.00    +0.000 A 
BRANCH   5  12
ATOM     11  C   UNL     1       1.530   2.619  21.639  0.00  0.00    +0.000 C 
ATOM     12  O   UNL     1       1.412   2.336  20.249  0.00  0.00    +0.000 OA
ENDBRANCH   5  12
ENDBRANCH   1   8
BRANCH   3  13
ATOM     13  C   UNL     1       6.362   4.025  14.547  0.00  0.00    +0.000 A 
ATOM     14  C   UNL     1       7.399   4.929  14.290  0.00  0.00    +0.000 A 
ATOM     15  C   UNL     1       7.833   5.175  12.982  0.00  0.00    +0.000 A 
ATOM     16  C   UNL     1       7.239   4.511  11.910  0.00  0.00    +0.000 A 
ATOM     17  C   UNL     1       6.202   3.615  12.145  0.00  0.00    +0.000 A 
ATOM     18  C   UNL     1       5.759   3.386  13.453  0.00  0.00    +0.000 A 
ENDBRANCH   3  13
BRANCH   2  19
ATOM     19  O   UNL     1       4.224   6.776  17.020  0.00  0.00    +0.000 OA
ATOM     20  H   UNL     1       4.269   6.395  17.917  0.00  0.00    +0.000 HD
ENDBRANCH   2  19
TORSDOF 4
ENDMDL
MODEL 4
REMARK VINA RESULT:      -6.8      0.161      1.609
REMARK  Name = 
REMARK  5 active torsions:
REMARK  status: ('A' for Active; 'I' for Inactive)
REMARK    1  A    between atoms: C_1  and  O_2
REMARK    2  A    between atoms: O_2  and  C_3
REMARK    3  A    between atoms: C_6  and  C_7
REMARK    4  A    between atoms: N_8  and  O_9
REMARK    5  A    between atoms: N_10  and  C_11
REMARK                            x       y       z     vdW  Elec       q    Type
REMARK                         _______ _______ _______ _____ _____    ______ ____
ROOT
ATOM      1  C   UNL     1       5.029   4.623  16.572  0.00  0.00    +0.000 C 
ATOM      2  N   UNL     1       5.138   5.919  16.376  0.00  0.00    +0.000 NA
ATOM      3  N   UNL     1       5.861   3.771  15.857  0.00  0.00    +0.000 N 
ATOM      4  H   UNL     1       6.040   2.846  16.224  0.00  0.00    +0.000 HD
ENDROOT
BRANCH   1   8
ATOM      5  C   UNL     1       2.346   2.741  19.408  0.00  0.00    +0.000 A 
ATOM      6  C   UNL     1       3.640   3.110  19.781  0.00  0.00    +0.000 A 
ATOM      7  C   UNL     1       4.500   3.725  18.860  0.00  0.00    +0.000 A 
ATOM      8  C   UNL     1       4.074   3.977  17.548  0.00  0.00    +0.000 A 
ATOM      9  C   UNL     1       2.769   3.619  17.190  0.00  0.00    +0.000 A 
ATOM     10  C   UNL     1       1.917   2.987  18.107  0.00  0.00    +0.000 A 
BRANCH   5  12
ATOM     11  C   UNL     1       1.593   2.752  21.656  0.00  0.00    +0.000 C 
ATOM     12  O   UNL     1       1.615   2.116  20.382  0.00  0.00    +0.000 OA
ENDBRANCH   5  12
ENDBRANCH   1   8
BRANCH   3  13
ATOM     13  C   UNL     1       6.341   3.985  14.547  0.00  0.00    +0.000 A 
ATOM     14  C   UNL     1       7.378   4.900  14.333  0.00  0.00    +0.000 A 
ATOM     15  C   UNL     1       7.840   5.176  13.041  0.00  0.00    +0.000 A 
ATOM     16  C   UNL     1       7.273   4.532  11.942  0.00  0.00    +0.000 A 
ATOM     17  C   UNL     1       6.236   3.626  12.135  0.00  0.00    +0.000 A 
ATOM     18  C   UNL     1       5.765   3.367  13.427  0.00  0.00    +0.000 A 
ENDBRANCH   3  13
BRANCH   2  19
ATOM     19  O   UNL     1       4.226   6.710  17.070  0.00  0.00    +0.000 OA
ATOM     20  H   UNL     1       3.378   6.406  16.694  0.00  0.00    +0.000 HD
ENDBRANCH   2  19
TORSDOF 4
ENDMDL
MODEL 5
REMARK VINA RESULT:      -6.6      2.375      6.831
REMARK  Name = 
REMARK  5 active torsions:
REMARK  status: ('A' for Active; 'I' for Inactive)
REMARK    1  A    between atoms: C_1  and  O_2
REMARK    2  A    between atoms: O_2  and  C_3
REMARK    3  A    between atoms: C_6  and  C_7
REMARK    4  A    between atoms: N_8  and  O_9
REMARK    5  A    between atoms: N_10  and  C_11
REMARK                            x       y       z     vdW  Elec       q    Type
REMARK                         _______ _______ _______ _____ _____    ______ ____
ROOT
ATOM      1  C   UNL     1       5.147   4.854  17.473  0.00  0.00    +0.000 C 
ATOM      2  N   UNL     1       5.809   4.600  18.581  0.00  0.00    +0.000 NA
ATOM      3  N   UNL     1       3.829   5.282  17.570  0.00  0.00    +0.000 N 
ATOM      4  H   UNL     1       3.429   5.798  16.798  0.00  0.00    +0.000 HD
ENDROOT
BRANCH   1   8
ATOM      5  C   UNL     1       6.766   4.462  13.472  0.00  0.00    +0.000 A 
ATOM      6  C   UNL     1       5.590   3.804  13.838  0.00  0.00    +0.000 A 
ATOM      7  C   UNL     1       5.069   3.941  15.132  0.00  0.00    +0.000 A 
ATOM      8  C   UNL     1       5.722   4.740  16.081  0.00  0.00    +0.000 A 
ATOM      9  C   UNL     1       6.890   5.410  15.697  0.00  0.00    +0.000 A 
ATOM     10  C   UNL     1       7.420   5.257  14.409  0.00  0.00    +0.000 A 
BRANCH   5  12
ATOM     11  C   UNL     1       6.833   2.964  11.637  0.00  0.00    +0.000 C 
ATOM     12  O   UNL     1       7.196   4.223  12.195  0.00  0.00    +0.000 OA
ENDBRANCH   5  12
ENDBRANCH   1   8
BRANCH   3  13
ATOM     13  C   UNL     1       2.904   4.902  18.565  0.00  0.00    +0.000 A 
ATOM     14  C   UNL     1       2.141   3.742  18.390  0.00  0.00    +0.000 A 
ATOM     15  C   UNL     1       1.176   3.366  19.332  0.00  0.00    +0.000 A 
ATOM     16  C   UNL     1       0.965   4.145  20.469  0.00  0.00    +0.000 A 
ATOM     17  C   UNL     1       1.709   5.305  20.655  0.00  0.00    +0.000 A 
ATOM     18  C   UNL     1       2.660   5.687  19.702  0.00  0.00    +0.000 A 
ENDBRANCH   3  13
BRANCH   2  19
ATOM     19  O   UNL     1       7.099   4.106  18.409  0.00  0.00    +0.000 OA
ATOM     20  H   UNL     1       7.441   4.692  17.708  0.00  0.00    +0.000 HD
ENDBRANCH   2  19
TORSDOF 4
ENDMDL
MODEL 6
REMARK VINA RESULT:      -6.6      2.377      6.919
REMARK  Name = 
REMARK  5 active torsions:
REMARK  status: ('A' for Active; 'I' for Inactive)
REMARK    1  A    between atoms: C_1  and  O_2
REMARK    2  A    between atoms: O_2  and  C_3
REMARK    3  A    between atoms: C_6  and  C_7
REMARK    4  A    between atoms: N_8  and  O_9
REMARK    5  A    between atoms: N_10  and  C_11
REMARK                            x       y       z     vdW  Elec       q    Type
REMARK                         _______ _______ _______ _____ _____    ______ ____
ROOT
ATOM      1  C   UNL     1       5.062   4.877  17.500  0.00  0.00    +0.000 C 
ATOM      2  N   UNL     1       5.688   4.594  18.621  0.00  0.00    +0.000 NA
ATOM      3  N   UNL     1       3.750   5.328  17.567  0.00  0.00    +0.000 N 
ATOM      4  H   UNL     1       3.380   5.863  16.793  0.00  0.00    +0.000 HD
ENDROOT
BRANCH   1   8
ATOM      5  C   UNL     1       6.784   4.518  13.538  0.00  0.00    +0.000 A 
ATOM      6  C   UNL     1       5.589   3.873  13.862  0.00  0.00    +0.000 A 
ATOM      7  C   UNL     1       5.034   3.999  15.143  0.00  0.00    +0.000 A 
ATOM      8  C   UNL     1       5.673   4.775  16.122  0.00  0.00    +0.000 A 
ATOM      9  C   UNL     1       6.861   5.432  15.781  0.00  0.00    +0.000 A 
ATOM     10  C   UNL     1       7.424   5.289  14.505  0.00  0.00    +0.000 A 
BRANCH   5  12
ATOM     11  C   UNL     1       6.854   3.059  11.672  0.00  0.00    +0.000 C 
ATOM     12  O   UNL     1       7.245   4.290  12.270  0.00  0.00    +0.000 OA
ENDBRANCH   5  12
ENDBRANCH   1   8
BRANCH   3  13
ATOM     13  C   UNL     1       2.790   4.949  18.529  0.00  0.00    +0.000 A 
ATOM     14  C   UNL     1       2.629   5.722  19.684  0.00  0.00    +0.000 A 
ATOM     15  C   UNL     1       1.724   5.344  20.684  0.00  0.00    +0.000 A 
ATOM     16  C   UNL     1       0.962   4.187  20.538  0.00  0.00    +0.000 A 
ATOM     17  C   UNL     1       1.114   3.401  19.400  0.00  0.00    +0.000 A 
ATOM     18  C   UNL     1       2.033   3.774  18.412  0.00  0.00    +0.000 A 
ENDBRANCH   3  13
BRANCH   2  19
ATOM     19  O   UNL     1       6.974   4.080  18.477  0.00  0.00    +0.000 OA
ATOM     20  H   UNL     1       6.792   3.126  18.378  0.00  0.00    +0.000 HD
ENDBRANCH   2  19
TORSDOF 4
ENDMDL
MODEL 7
REMARK VINA RESULT:      -6.5      2.054      6.983
REMARK  Name = 
REMARK  5 active torsions:
REMARK  status: ('A' for Active; 'I' for Inactive)
REMARK    1  A    between atoms: C_1  and  O_2
REMARK    2  A    between atoms: O_2  and  C_3
REMARK    3  A    between atoms: C_6  and  C_7
REMARK    4  A    between atoms: N_8  and  O_9
REMARK    5  A    between atoms: N_10  and  C_11
REMARK                            x       y       z     vdW  Elec       q    Type
REMARK                         _______ _______ _______ _____ _____    ______ ____
ROOT
ATOM      1  C   UNL     1       3.648   4.915  17.535  0.00  0.00    +0.000 C 
ATOM      2  N   UNL     1       2.997   5.958  17.999  0.00  0.00    +0.000 NA
ATOM      3  N   UNL     1       3.216   3.646  17.900  0.00  0.00    +0.000 N 
ATOM      4  H   UNL     1       3.459   2.862  17.309  0.00  0.00    +0.000 HD
ENDROOT
BRANCH   1   8
ATOM      5  C   UNL     1       7.067   5.176  14.884  0.00  0.00    +0.000 A 
ATOM      6  C   UNL     1       7.116   5.710  16.173  0.00  0.00    +0.000 A 
ATOM      7  C   UNL     1       6.009   5.615  17.027  0.00  0.00    +0.000 A 
ATOM      8  C   UNL     1       4.832   4.985  16.599  0.00  0.00    +0.000 A 
ATOM      9  C   UNL     1       4.800   4.437  15.311  0.00  0.00    +0.000 A 
ATOM     10  C   UNL     1       5.902   4.550  14.451  0.00  0.00    +0.000 A 
BRANCH   5  12
ATOM     11  C   UNL     1       8.011   5.390  12.720  0.00  0.00    +0.000 C 
ATOM     12  O   UNL     1       8.195   5.362  14.132  0.00  0.00    +0.000 OA
ENDBRANCH   5  12
ENDBRANCH   1   8
BRANCH   3  13
ATOM     13  C   UNL     1       2.629   3.292  19.132  0.00  0.00    +0.000 A 
ATOM     14  C   UNL     1       1.238   3.338  19.272  0.00  0.00    +0.000 A 
ATOM     15  C   UNL     1       0.626   3.045  20.498  0.00  0.00    +0.000 A 
ATOM     16  C   UNL     1       1.402   2.694  21.601  0.00  0.00    +0.000 A 
ATOM     17  C   UNL     1       2.787   2.651  21.483  0.00  0.00    +0.000 A 
ATOM     18  C   UNL     1       3.394   2.962  20.261  0.00  0.00    +0.000 A 
ENDBRANCH   3  13
BRANCH   2  19
ATOM     19  O   UNL     1       3.526   7.199  17.653  0.00  0.00    +0.000 OA
ATOM     20  H   UNL     1       3.617   7.109  16.686  0.00  0.00    +0.000 HD
ENDBRANCH   2  19
TORSDOF 4
ENDMDL
MODEL 8
REMARK VINA RESULT:      -6.5      1.699      1.940
REMARK  Name = 
REMARK  5 active torsions:
REMARK  status: ('A' for Active; 'I' for Inactive)
REMARK    1  A    between atoms: C_1  and  O_2
REMARK    2  A    between atoms: O_2  and  C_3
REMARK    3  A    between atoms: C_6  and  C_7
REMARK    4  A    between atoms: N_8  and  O_9
REMARK    5  A    between atoms: N_10  and  C_11
REMARK                            x       y       z     vdW  Elec       q    Type
REMARK                         _______ _______ _______ _____ _____    ______ ____
ROOT
ATOM      1  C   UNL     1       6.172   4.260  16.869  0.00  0.00    +0.000 C 
ATOM      2  N   UNL     1       7.468   4.402  17.040  0.00  0.00    +0.000 NA
ATOM      3  N   UNL     1       5.706   3.855  15.625  0.00  0.00    +0.000 N 
ATOM      4  H   UNL     1       4.797   3.417  15.565  0.00  0.00    +0.000 HD
ENDROOT
BRANCH   1   8
ATOM      5  C   UNL     1       3.170   4.818  19.946  0.00  0.00    +0.000 A 
ATOM      6  C   UNL     1       3.768   3.572  19.744  0.00  0.00    +0.000 A 
ATOM      7  C   UNL     1       4.743   3.401  18.752  0.00  0.00    +0.000 A 
ATOM      8  C   UNL     1       5.132   4.479  17.943  0.00  0.00    +0.000 A 
ATOM      9  C   UNL     1       4.540   5.727  18.167  0.00  0.00    +0.000 A 
ATOM     10  C   UNL     1       3.551   5.892  19.147  0.00  0.00    +0.000 A 
BRANCH   5  12
ATOM     11  C   UNL     1       1.878   3.604  21.519  0.00  0.00    +0.000 C 
ATOM     12  O   UNL     1       2.207   4.852  20.918  0.00  0.00    +0.000 OA
ENDBRANCH   5  12
ENDBRANCH   1   8
BRANCH   3  13
ATOM     13  C   UNL     1       6.287   4.170  14.378  0.00  0.00    +0.000 A 
ATOM     14  C   UNL     1       5.921   3.440  13.242  0.00  0.00    +0.000 A 
ATOM     15  C   UNL     1       6.519   3.691  12.001  0.00  0.00    +0.000 A 
ATOM     16  C   UNL     1       7.489   4.683  11.879  0.00  0.00    +0.000 A 
ATOM     17  C   UNL     1       7.872   5.414  12.999  0.00  0.00    +0.000 A 
ATOM     18  C   UNL     1       7.285   5.147  14.241  0.00  0.00    +0.000 A 
ENDBRANCH   3  13
BRANCH   2  19
ATOM     19  O   UNL     1       7.860   4.879  18.288  0.00  0.00    +0.000 OA
ATOM     20  H   UNL     1       8.125   4.055  18.738  0.00  0.00    +0.000 HD
ENDBRANCH   2  19
TORSDOF 4
ENDMDL
MODEL 9
REMARK VINA RESULT:      -6.4      2.465      6.892
REMARK  Name = 
REMARK  5 active torsions:
REMARK  status: ('A' for Active; 'I' for Inactive)
REMARK    1  A    between atoms: C_1  and  O_2
REMARK    2  A    between atoms: O_2  and  C_3
REMARK    3  A    between atoms: C_6  and  C_7
REMARK    4  A    between atoms: N_8  and  O_9
REMARK    5  A    between atoms: N_10  and  C_11
REMARK                            x       y       z     vdW  Elec       q    Type
REMARK                         _______ _______ _______ _____ _____    ______ ____
ROOT
ATOM      1  C   UNL     1       5.558   4.790  17.971  0.00  0.00    +0.000 C 
ATOM      2  N   UNL     1       6.393   4.754  18.986  0.00  0.00    +0.000 NA
ATOM      3  N   UNL     1       4.204   4.960  18.230  0.00  0.00    +0.000 N 
ATOM      4  H   UNL     1       3.612   5.329  17.498  0.00  0.00    +0.000 HD
ENDROOT
BRANCH   1   8
ATOM      5  C   UNL     1       6.687   4.427  13.802  0.00  0.00    +0.000 A 
ATOM      6  C   UNL     1       5.583   3.739  14.309  0.00  0.00    +0.000 A 
ATOM      7  C   UNL     1       5.220   3.867  15.657  0.00  0.00    +0.000 A 
ATOM      8  C   UNL     1       5.962   4.687  16.519  0.00  0.00    +0.000 A 
ATOM      9  C   UNL     1       7.056   5.386  15.996  0.00  0.00    +0.000 A 
ATOM     10  C   UNL     1       7.430   5.241  14.652  0.00  0.00    +0.000 A 
BRANCH   5  12
ATOM     11  C   UNL     1       6.378   3.027  11.915  0.00  0.00    +0.000 C 
ATOM     12  O   UNL     1       6.965   4.193  12.483  0.00  0.00    +0.000 OA
ENDBRANCH   5  12
ENDBRANCH   1   8
BRANCH   3  13
ATOM     13  C   UNL     1       3.509   4.483  19.361  0.00  0.00    +0.000 A 
ATOM     14  C   UNL     1       3.655   3.146  19.747  0.00  0.00    +0.000 A 
ATOM     15  C   UNL     1       2.938   2.626  20.832  0.00  0.00    +0.000 A 
ATOM     16  C   UNL     1       2.068   3.443  21.552  0.00  0.00    +0.000 A 
ATOM     17  C   UNL     1       1.905   4.773  21.178  0.00  0.00    +0.000 A 
ATOM     18  C   UNL     1       2.610   5.283  20.082  0.00  0.00    +0.000 A 
ENDBRANCH   3  13
BRANCH   2  19
ATOM     19  O   UNL     1       7.724   4.509  18.660  0.00  0.00    +0.000 OA
ATOM     20  H   UNL     1       8.057   4.108  19.485  0.00  0.00    +0.000 HD
ENDBRANCH   2  19
TORSDOF 4
ENDMDL
