MODEL 1
REMARK VINA RESULT:      -8.3      0.000      0.000
REMARK  Name = 
REMARK  5 active torsions:
REMARK  status: ('A' for Active; 'I' for Inactive)
REMARK    1  A    between atoms: C_1  and  O_2
REMARK    2  A    between atoms: O_2  and  C_3
REMARK    3  A    between atoms: C_3  and  C_5
REMARK    4  A    between atoms: C_8  and  N_9
REMARK    5  A    between atoms: C_10  and  C_12
REMARK                            x       y       z     vdW  Elec       q    Type
REMARK                         _______ _______ _______ _____ _____    ______ ____
ROOT
ATOM      1  C   UNL     1       6.550   6.580  17.752  0.00  0.00    +0.000 A 
ATOM      2  C   UNL     1       5.972   6.368  16.487  0.00  0.00    +0.000 A 
ATOM      3  C   UNL     1       4.889   5.451  16.337  0.00  0.00    +0.000 A 
ATOM      4  C   UNL     1       4.485   4.642  17.403  0.00  0.00    +0.000 A 
ATOM      5  C   UNL     1       5.326   4.677  18.509  0.00  0.00    +0.000 A 
ATOM      6  C   UNL     1       6.203   5.706  18.770  0.00  0.00    +0.000 A 
ATOM      7  N   UNL     1       5.661   3.441  19.091  0.00  0.00    +0.000 N 
ATOM      8  C   UNL     1       4.610   2.642  19.436  0.00  0.00    +0.000 C 
ATOM      9  O   UNL     1       4.682   1.881  20.392  0.00  0.00    +0.000 OA
ATOM     10  C   UNL     1       3.376   2.742  18.544  0.00  0.00    +0.000 C 
ATOM     11  C   UNL     1       2.214   3.145  19.443  0.00  0.00    +0.000 C 
ATOM     12  C   UNL     1       1.209   3.657  18.447  0.00  0.00    +0.000 C 
ATOM     13  C   UNL     1       2.077   4.466  17.471  0.00  0.00    +0.000 C 
ATOM     14  N   UNL     1       3.390   3.748  17.398  0.00  0.00    +0.000 N 
ATOM     15  H   UNL     1       6.079   2.931  18.308  0.00  0.00    +0.000 HD
ENDROOT
BRANCH   1  17
ATOM     16  N   UNL     1       7.388   8.911  17.810  0.00  0.00    +0.000 N 
ATOM     17  C   UNL     1       7.576   7.591  18.158  0.00  0.00    +0.000 C 
ATOM     18  O   UNL     1       8.544   7.162  18.778  0.00  0.00    +0.000 OA
ATOM     19  H   UNL     1       6.554   9.162  17.303  0.00  0.00    +0.000 HD
BRANCH  16  23
ATOM     20  C   UNL     1      10.010  12.162  18.606  0.00  0.00    +0.000 A 
ATOM     21  C   UNL     1      10.188  10.955  19.284  0.00  0.00    +0.000 A 
ATOM     22  C   UNL     1       9.339   9.870  19.033  0.00  0.00    +0.000 A 
ATOM     23  C   UNL     1       8.292   9.967  18.108  0.00  0.00    +0.000 A 
ATOM     24  C   UNL     1       8.119  11.173  17.424  0.00  0.00    +0.000 A 
ATOM     25  C   UNL     1       8.968  12.265  17.673  0.00  0.00    +0.000 A 
BRANCH  20  26
ATOM     26  C   UNL     1      10.948  13.264  18.904  0.00  0.00    +0.000 C 
ATOM     27  O   UNL     1      11.458  13.982  18.064  0.00  0.00    +0.000 OA
BRANCH  26  29
ATOM     28  C   UNL     1      10.708  14.596  20.812  0.00  0.00    +0.000 C 
ATOM     29  O   UNL     1      11.149  13.365  20.256  0.00  0.00    +0.000 OA
ENDBRANCH  26  29
ENDBRANCH  20  26
ENDBRANCH  16  23
ENDBRANCH   1  17
TORSDOF 4
ENDMDL
MODEL 2
REMARK VINA RESULT:      -8.2      7.244      8.169
REMARK  Name = 
REMARK  5 active torsions:
REMARK  status: ('A' for Active; 'I' for Inactive)
REMARK    1  A    between atoms: C_1  and  O_2
REMARK    2  A    between atoms: O_2  and  C_3
REMARK    3  A    between atoms: C_3  and  C_5
REMARK    4  A    between atoms: C_8  and  N_9
REMARK    5  A    between atoms: C_10  and  C_12
REMARK                            x       y       z     vdW  Elec       q    Type
REMARK                         _______ _______ _______ _____ _____    ______ ____
ROOT
ATOM      1  C   UNL     1       1.802   7.954  19.451  0.00  0.00    +0.000 A 
ATOM      2  C   UNL     1       2.780   7.787  18.455  0.00  0.00    +0.000 A 
ATOM      3  C   UNL     1       3.270   6.484  18.142  0.00  0.00    +0.000 A 
ATOM      4  C   UNL     1       2.903   5.378  18.912  0.00  0.00    +0.000 A 
ATOM      5  C   UNL     1       2.203   5.685  20.073  0.00  0.00    +0.000 A 
ATOM      6  C   UNL     1       1.521   6.867  20.264  0.00  0.00    +0.000 A 
ATOM      7  N   UNL     1       2.607   5.029  21.250  0.00  0.00    +0.000 N 
ATOM      8  C   UNL     1       2.655   3.667  21.183  0.00  0.00    +0.000 C 
ATOM      9  O   UNL     1       2.429   2.978  22.169  0.00  0.00    +0.000 OA
ATOM     10  C   UNL     1       3.035   3.079  19.828  0.00  0.00    +0.000 C 
ATOM     11  C   UNL     1       1.887   2.170  19.406  0.00  0.00    +0.000 C 
ATOM     12  C   UNL     1       2.127   2.027  17.927  0.00  0.00    +0.000 C 
ATOM     13  C   UNL     1       2.514   3.453  17.504  0.00  0.00    +0.000 C 
ATOM     14  N   UNL     1       3.266   4.035  18.663  0.00  0.00    +0.000 N 
ATOM     15  H   UNL     1       3.597   5.283  21.319  0.00  0.00    +0.000 HD
ENDROOT
BRANCH   1  17
ATOM     16  N   UNL     1       1.005   9.565  21.156  0.00  0.00    +0.000 N 
ATOM     17  C   UNL     1       1.049   9.191  19.831  0.00  0.00    +0.000 C 
ATOM     18  O   UNL     1       0.501   9.795  18.915  0.00  0.00    +0.000 OA
ATOM     19  H   UNL     1       1.494   9.001  21.833  0.00  0.00    +0.000 HD
BRANCH  16  23
ATOM     20  C   UNL     1      -1.159  12.859  22.752  0.00  0.00    +0.000 A 
ATOM     21  C   UNL     1      -0.142  13.091  21.823  0.00  0.00    +0.000 A 
ATOM     22  C   UNL     1       0.579  12.019  21.282  0.00  0.00    +0.000 A 
ATOM     23  C   UNL     1       0.309  10.698  21.659  0.00  0.00    +0.000 A 
ATOM     24  C   UNL     1      -0.714  10.467  22.583  0.00  0.00    +0.000 A 
ATOM     25  C   UNL     1      -1.441  11.538  23.129  0.00  0.00    +0.000 A 
BRANCH  20  26
ATOM     26  C   UNL     1      -1.893  14.030  23.275  0.00  0.00    +0.000 C 
ATOM     27  O   UNL     1      -1.655  14.576  24.337  0.00  0.00    +0.000 OA
BRANCH  26  29
ATOM     28  C   UNL     1      -4.190  14.223  22.872  0.00  0.00    +0.000 C 
ATOM     29  O   UNL     1      -2.866  14.415  22.390  0.00  0.00    +0.000 OA
ENDBRANCH  26  29
ENDBRANCH  20  26
ENDBRANCH  16  23
ENDBRANCH   1  17
TORSDOF 4
ENDMDL
MODEL 3
REMARK VINA RESULT:      -8.2      6.536      7.347
REMARK  Name = 
REMARK  5 active torsions:
REMARK  status: ('A' for Active; 'I' for Inactive)
REMARK    1  A    between atoms: C_1  and  O_2
REMARK    2  A    between atoms: O_2  and  C_3
REMARK    3  A    between atoms: C_3  and  C_5
REMARK    4  A    between atoms: C_8  and  N_9
REMARK    5  A    between atoms: C_10  and  C_12
REMARK                            x       y       z     vdW  Elec       q    Type
REMARK                         _______ _______ _______ _____ _____    ______ ____
ROOT
ATOM      1  C   UNL     1       2.439   7.859  18.464  0.00  0.00    +0.000 A 
ATOM      2  C   UNL     1       3.498   7.410  17.654  0.00  0.00    +0.000 A 
ATOM      3  C   UNL     1       3.860   6.030  17.646  0.00  0.00    +0.000 A 
ATOM      4  C   UNL     1       3.278   5.132  18.546  0.00  0.00    +0.000 A 
ATOM      5  C   UNL     1       2.493   5.724  19.529  0.00  0.00    +0.000 A 
ATOM      6  C   UNL     1       1.940   6.980  19.413  0.00  0.00    +0.000 A 
ATOM      7  N   UNL     1       2.678   5.270  20.847  0.00  0.00    +0.000 N 
ATOM      8  C   UNL     1       2.570   3.922  21.031  0.00  0.00    +0.000 C 
ATOM      9  O   UNL     1       2.152   3.460  22.085  0.00  0.00    +0.000 OA
ATOM     10  C   UNL     1       3.027   3.050  19.866  0.00  0.00    +0.000 C 
ATOM     11  C   UNL     1       1.835   2.193  19.462  0.00  0.00    +0.000 C 
ATOM     12  C   UNL     1       2.223   1.746  18.078  0.00  0.00    +0.000 C 
ATOM     13  C   UNL     1       2.823   3.020  17.464  0.00  0.00    +0.000 C 
ATOM     14  N   UNL     1       3.503   3.738  18.591  0.00  0.00    +0.000 N 
ATOM     15  H   UNL     1       3.676   5.435  21.002  0.00  0.00    +0.000 HD
ENDROOT
BRANCH   1  17
ATOM     16  N   UNL     1       1.087   9.573  19.634  0.00  0.00    +0.000 N 
ATOM     17  C   UNL     1       1.802   9.212  18.513  0.00  0.00    +0.000 C 
ATOM     18  O   UNL     1       1.956   9.920  17.522  0.00  0.00    +0.000 OA
ATOM     19  H   UNL     1       1.025   8.920  20.398  0.00  0.00    +0.000 HD
BRANCH  16  23
ATOM     20  C   UNL     1      -0.813  13.329  20.232  0.00  0.00    +0.000 A 
ATOM     21  C   UNL     1      -1.393  12.397  19.370  0.00  0.00    +0.000 A 
ATOM     22  C   UNL     1      -0.786  11.152  19.163  0.00  0.00    +0.000 A 
ATOM     23  C   UNL     1       0.413  10.813  19.803  0.00  0.00    +0.000 A 
ATOM     24  C   UNL     1       0.988  11.745  20.672  0.00  0.00    +0.000 A 
ATOM     25  C   UNL     1       0.383  12.995  20.883  0.00  0.00    +0.000 A 
BRANCH  20  26
ATOM     26  C   UNL     1      -1.510  14.619  20.420  0.00  0.00    +0.000 C 
ATOM     27  O   UNL     1      -2.688  14.731  20.708  0.00  0.00    +0.000 OA
BRANCH  26  29
ATOM     28  C   UNL     1      -0.407  15.980  18.869  0.00  0.00    +0.000 C 
ATOM     29  O   UNL     1      -0.641  15.661  20.235  0.00  0.00    +0.000 OA
ENDBRANCH  26  29
ENDBRANCH  20  26
ENDBRANCH  16  23
ENDBRANCH   1  17
TORSDOF 4
ENDMDL
MODEL 4
REMARK VINA RESULT:      -8.2      7.157      7.872
REMARK  Name = 
REMARK  5 active torsions:
REMARK  status: ('A' for Active; 'I' for Inactive)
REMARK    1  A    between atoms: C_1  and  O_2
REMARK    2  A    between atoms: O_2  and  C_3
REMARK    3  A    between atoms: C_3  and  C_5
REMARK    4  A    between atoms: C_8  and  N_9
REMARK    5  A    between atoms: C_10  and  C_12
REMARK                            x       y       z     vdW  Elec       q    Type
REMARK                         _______ _______ _______ _____ _____    ______ ____
ROOT
ATOM      1  C   UNL     1       1.839   7.898  19.460  0.00  0.00    +0.000 A 
ATOM      2  C   UNL     1       2.806   7.734  18.453  0.00  0.00    +0.000 A 
ATOM      3  C   UNL     1       3.286   6.431  18.123  0.00  0.00    +0.000 A 
ATOM      4  C   UNL     1       2.921   5.320  18.888  0.00  0.00    +0.000 A 
ATOM      5  C   UNL     1       2.235   5.622  20.059  0.00  0.00    +0.000 A 
ATOM      6  C   UNL     1       1.562   6.805  20.267  0.00  0.00    +0.000 A 
ATOM      7  N   UNL     1       2.647   4.954  21.226  0.00  0.00    +0.000 N 
ATOM      8  C   UNL     1       2.687   3.592  21.148  0.00  0.00    +0.000 C 
ATOM      9  O   UNL     1       2.467   2.896  22.131  0.00  0.00    +0.000 OA
ATOM     10  C   UNL     1       3.049   3.013  19.784  0.00  0.00    +0.000 C 
ATOM     11  C   UNL     1       1.892   2.114  19.366  0.00  0.00    +0.000 C 
ATOM     12  C   UNL     1       2.116   1.982  17.884  0.00  0.00    +0.000 C 
ATOM     13  C   UNL     1       2.506   3.409  17.469  0.00  0.00    +0.000 C 
ATOM     14  N   UNL     1       3.274   3.977  18.624  0.00  0.00    +0.000 N 
ATOM     15  H   UNL     1       3.639   5.201  21.287  0.00  0.00    +0.000 HD
ENDROOT
BRANCH   1  17
ATOM     16  N   UNL     1       0.999   9.453  21.195  0.00  0.00    +0.000 N 
ATOM     17  C   UNL     1       1.098   9.136  19.858  0.00  0.00    +0.000 C 
ATOM     18  O   UNL     1       0.608   9.791  18.944  0.00  0.00    +0.000 OA
ATOM     19  H   UNL     1       1.442   8.850  21.869  0.00  0.00    +0.000 HD
BRANCH  16  23
ATOM     20  C   UNL     1      -0.992  12.918  22.648  0.00  0.00    +0.000 A 
ATOM     21  C   UNL     1      -1.376  11.660  23.116  0.00  0.00    +0.000 A 
ATOM     22  C   UNL     1      -0.729  10.506  22.654  0.00  0.00    +0.000 A 
ATOM     23  C   UNL     1       0.305  10.581  21.713  0.00  0.00    +0.000 A 
ATOM     24  C   UNL     1       0.693  11.842  21.252  0.00  0.00    +0.000 A 
ATOM     25  C   UNL     1       0.048  13.003  21.712  0.00  0.00    +0.000 A 
BRANCH  20  26
ATOM     26  C   UNL     1      -1.702  14.097  23.185  0.00  0.00    +0.000 C 
ATOM     27  O   UNL     1      -2.757  14.525  22.752  0.00  0.00    +0.000 OA
BRANCH  26  29
ATOM     28  C   UNL     1      -1.127  16.041  24.354  0.00  0.00    +0.000 C 
ATOM     29  O   UNL     1      -1.011  14.628  24.243  0.00  0.00    +0.000 OA
ENDBRANCH  26  29
ENDBRANCH  20  26
ENDBRANCH  16  23
ENDBRANCH   1  17
TORSDOF 4
ENDMDL
MODEL 5
REMARK VINA RESULT:      -8.2      2.762     10.473
REMARK  Name = 
REMARK  5 active torsions:
REMARK  status: ('A' for Active; 'I' for Inactive)
REMARK    1  A    between atoms: C_1  and  O_2
REMARK    2  A    between atoms: O_2  and  C_3
REMARK    3  A    between atoms: C_3  and  C_5
REMARK    4  A    between atoms: C_8  and  N_9
REMARK    5  A    between atoms: C_10  and  C_12
REMARK                            x       y       z     vdW  Elec       q    Type
REMARK                         _______ _______ _______ _____ _____    ______ ____
ROOT
ATOM      1  C   UNL     1       9.657  11.333  18.200  0.00  0.00    +0.000 A 
ATOM      2  C   UNL     1      10.863  11.540  17.508  0.00  0.00    +0.000 A 
ATOM      3  C   UNL     1      11.399  12.856  17.378  0.00  0.00    +0.000 A 
ATOM      4  C   UNL     1      10.669  13.970  17.799  0.00  0.00    +0.000 A 
ATOM      5  C   UNL     1       9.354  13.700  18.160  0.00  0.00    +0.000 A 
ATOM      6  C   UNL     1       8.904  12.451  18.525  0.00  0.00    +0.000 A 
ATOM      7  N   UNL     1       8.368  14.572  17.666  0.00  0.00    +0.000 N 
ATOM      8  C   UNL     1       8.568  15.898  17.919  0.00  0.00    +0.000 C 
ATOM      9  O   UNL     1       7.623  16.661  18.073  0.00  0.00    +0.000 OA
ATOM     10  C   UNL     1      10.022  16.357  17.962  0.00  0.00    +0.000 C 
ATOM     11  C   UNL     1      10.248  16.974  19.337  0.00  0.00    +0.000 C 
ATOM     12  C   UNL     1      11.749  16.956  19.446  0.00  0.00    +0.000 C 
ATOM     13  C   UNL     1      12.118  15.582  18.867  0.00  0.00    +0.000 C 
ATOM     14  N   UNL     1      11.117  15.311  17.785  0.00  0.00    +0.000 N 
ATOM     15  H   UNL     1       8.507  14.516  16.653  0.00  0.00    +0.000 HD
ENDROOT
BRANCH   1  17
ATOM     16  N   UNL     1       8.436   9.264  17.594  0.00  0.00    +0.000 N 
ATOM     17  C   UNL     1       9.002  10.042  18.581  0.00  0.00    +0.000 C 
ATOM     18  O   UNL     1       9.004   9.765  19.776  0.00  0.00    +0.000 OA
ATOM     19  H   UNL     1       8.492   9.580  16.639  0.00  0.00    +0.000 HD
BRANCH  16  23
ATOM     20  C   UNL     1       6.312   5.624  18.158  0.00  0.00    +0.000 A 
ATOM     21  C   UNL     1       7.527   5.818  18.818  0.00  0.00    +0.000 A 
ATOM     22  C   UNL     1       8.240   7.013  18.650  0.00  0.00    +0.000 A 
ATOM     23  C   UNL     1       7.762   8.032  17.817  0.00  0.00    +0.000 A 
ATOM     24  C   UNL     1       6.542   7.839  17.163  0.00  0.00    +0.000 A 
ATOM     25  C   UNL     1       5.823   6.643  17.328  0.00  0.00    +0.000 A 
BRANCH  20  26
ATOM     26  C   UNL     1       5.601   4.350  18.388  0.00  0.00    +0.000 C 
ATOM     27  O   UNL     1       5.574   3.756  19.451  0.00  0.00    +0.000 OA
BRANCH  26  29
ATOM     28  C   UNL     1       3.692   3.362  17.464  0.00  0.00    +0.000 C 
ATOM     29  O   UNL     1       4.970   3.942  17.242  0.00  0.00    +0.000 OA
ENDBRANCH  26  29
ENDBRANCH  20  26
ENDBRANCH  16  23
ENDBRANCH   1  17
TORSDOF 4
ENDMDL
MODEL 6
REMARK VINA RESULT:      -8.1      6.735      7.602
REMARK  Name = 
REMARK  5 active torsions:
REMARK  status: ('A' for Active; 'I' for Inactive)
REMARK    1  A    between atoms: C_1  and  O_2
REMARK    2  A    between atoms: O_2  and  C_3
REMARK    3  A    between atoms: C_3  and  C_5
REMARK    4  A    between atoms: C_8  and  N_9
REMARK    5  A    between atoms: C_10  and  C_12
REMARK                            x       y       z     vdW  Elec       q    Type
REMARK                         _______ _______ _______ _____ _____    ______ ____
ROOT
ATOM      1  C   UNL     1       2.456   7.847  18.560  0.00  0.00    +0.000 A 
ATOM      2  C   UNL     1       3.563   7.441  17.793  0.00  0.00    +0.000 A 
ATOM      3  C   UNL     1       3.960   6.071  17.776  0.00  0.00    +0.000 A 
ATOM      4  C   UNL     1       3.358   5.141  18.628  0.00  0.00    +0.000 A 
ATOM      5  C   UNL     1       2.512   5.692  19.584  0.00  0.00    +0.000 A 
ATOM      6  C   UNL     1       1.934   6.937  19.466  0.00  0.00    +0.000 A 
ATOM      7  N   UNL     1       2.646   5.215  20.900  0.00  0.00    +0.000 N 
ATOM      8  C   UNL     1       2.562   3.862  21.052  0.00  0.00    +0.000 C 
ATOM      9  O   UNL     1       2.106   3.368  22.075  0.00  0.00    +0.000 OA
ATOM     10  C   UNL     1       3.097   3.026  19.894  0.00  0.00    +0.000 C 
ATOM     11  C   UNL     1       1.947   2.149  19.416  0.00  0.00    +0.000 C 
ATOM     12  C   UNL     1       2.411   1.741  18.044  0.00  0.00    +0.000 C 
ATOM     13  C   UNL     1       3.008   3.041  17.484  0.00  0.00    +0.000 C 
ATOM     14  N   UNL     1       3.616   3.751  18.656  0.00  0.00    +0.000 N 
ATOM     15  H   UNL     1       3.631   5.401  21.106  0.00  0.00    +0.000 HD
ENDROOT
BRANCH   1  17
ATOM     16  N   UNL     1       1.142   9.569  19.761  0.00  0.00    +0.000 N 
ATOM     17  C   UNL     1       1.784   9.184  18.604  0.00  0.00    +0.000 C 
ATOM     18  O   UNL     1       1.843   9.855  17.579  0.00  0.00    +0.000 OA
ATOM     19  H   UNL     1       1.156   8.945  20.552  0.00  0.00    +0.000 HD
BRANCH  16  23
ATOM     20  C   UNL     1      -1.075  13.167  20.227  0.00  0.00    +0.000 A 
ATOM     21  C   UNL     1       0.272  13.141  20.589  0.00  0.00    +0.000 A 
ATOM     22  C   UNL     1       1.022  11.967  20.438  0.00  0.00    +0.000 A 
ATOM     23  C   UNL     1       0.444  10.796  19.933  0.00  0.00    +0.000 A 
ATOM     24  C   UNL     1      -0.904  10.826  19.564  0.00  0.00    +0.000 A 
ATOM     25  C   UNL     1      -1.660  12.001  19.713  0.00  0.00    +0.000 A 
BRANCH  20  26
ATOM     26  C   UNL     1      -1.808  14.439  20.395  0.00  0.00    +0.000 C 
ATOM     27  O   UNL     1      -1.334  15.541  20.185  0.00  0.00    +0.000 OA
BRANCH  26  29
ATOM     28  C   UNL     1      -3.299  14.415  22.199  0.00  0.00    +0.000 C 
ATOM     29  O   UNL     1      -3.092  14.199  20.809  0.00  0.00    +0.000 OA
ENDBRANCH  26  29
ENDBRANCH  20  26
ENDBRANCH  16  23
ENDBRANCH   1  17
TORSDOF 4
ENDMDL
MODEL 7
REMARK VINA RESULT:      -7.9      0.857      1.053
REMARK  Name = 
REMARK  5 active torsions:
REMARK  status: ('A' for Active; 'I' for Inactive)
REMARK    1  A    between atoms: C_1  and  O_2
REMARK    2  A    between atoms: O_2  and  C_3
REMARK    3  A    between atoms: C_3  and  C_5
REMARK    4  A    between atoms: C_8  and  N_9
REMARK    5  A    between atoms: C_10  and  C_12
REMARK                            x       y       z     vdW  Elec       q    Type
REMARK                         _______ _______ _______ _____ _____    ______ ____
ROOT
ATOM      1  C   UNL     1       6.323   6.752  17.293  0.00  0.00    +0.000 A 
ATOM      2  C   UNL     1       5.418   6.529  16.240  0.00  0.00    +0.000 A 
ATOM      3  C   UNL     1       4.315   5.641  16.418  0.00  0.00    +0.000 A 
ATOM      4  C   UNL     1       4.199   4.868  17.577  0.00  0.00    +0.000 A 
ATOM      5  C   UNL     1       5.310   4.903  18.411  0.00  0.00    +0.000 A 
ATOM      6  C   UNL     1       6.248   5.911  18.392  0.00  0.00    +0.000 A 
ATOM      7  N   UNL     1       5.763   3.671  18.916  0.00  0.00    +0.000 N 
ATOM      8  C   UNL     1       4.828   2.912  19.558  0.00  0.00    +0.000 C 
ATOM      9  O   UNL     1       5.141   2.171  20.480  0.00  0.00    +0.000 OA
ATOM     10  C   UNL     1       3.400   3.029  19.033  0.00  0.00    +0.000 C 
ATOM     11  C   UNL     1       2.537   3.486  20.202  0.00  0.00    +0.000 C 
ATOM     12  C   UNL     1       1.310   4.006  19.502  0.00  0.00    +0.000 C 
ATOM     13  C   UNL     1       1.897   4.766  18.303  0.00  0.00    +0.000 C 
ATOM     14  N   UNL     1       3.124   4.008  17.897  0.00  0.00    +0.000 N 
ATOM     15  H   UNL     1       5.940   3.131  18.064  0.00  0.00    +0.000 HD
ENDROOT
BRANCH   1  17
ATOM     16  N   UNL     1       7.307   8.839  18.194  0.00  0.00    +0.000 N 
ATOM     17  C   UNL     1       7.445   7.740  17.374  0.00  0.00    +0.000 C 
ATOM     18  O   UNL     1       8.427   7.503  16.680  0.00  0.00    +0.000 OA
ATOM     19  H   UNL     1       6.459   8.939  18.729  0.00  0.00    +0.000 HD
BRANCH  16  23
ATOM     20  C   UNL     1      10.137  11.993  18.546  0.00  0.00    +0.000 A 
ATOM     21  C   UNL     1      10.259  10.868  19.364  0.00  0.00    +0.000 A 
ATOM     22  C   UNL     1       9.340   9.815  19.260  0.00  0.00    +0.000 A 
ATOM     23  C   UNL     1       8.279   9.865  18.347  0.00  0.00    +0.000 A 
ATOM     24  C   UNL     1       8.163  10.989  17.524  0.00  0.00    +0.000 A 
ATOM     25  C   UNL     1       9.081  12.047  17.624  0.00  0.00    +0.000 A 
BRANCH  20  26
ATOM     26  C   UNL     1      11.146  13.062  18.692  0.00  0.00    +0.000 C 
ATOM     27  O   UNL     1      11.952  13.130  19.603  0.00  0.00    +0.000 OA
BRANCH  26  29
ATOM     28  C   UNL     1      11.027  15.314  18.067  0.00  0.00    +0.000 C 
ATOM     29  O   UNL     1      11.050  13.953  17.656  0.00  0.00    +0.000 OA
ENDBRANCH  26  29
ENDBRANCH  20  26
ENDBRANCH  16  23
ENDBRANCH   1  17
TORSDOF 4
ENDMDL
MODEL 8
REMARK VINA RESULT:      -7.9      6.524      7.147
REMARK  Name = 
REMARK  5 active torsions:
REMARK  status: ('A' for Active; 'I' for Inactive)
REMARK    1  A    between atoms: C_1  and  O_2
REMARK    2  A    between atoms: O_2  and  C_3
REMARK    3  A    between atoms: C_3  and  C_5
REMARK    4  A    between atoms: C_8  and  N_9
REMARK    5  A    between atoms: C_10  and  C_12
REMARK                            x       y       z     vdW  Elec       q    Type
REMARK                         _______ _______ _______ _____ _____    ______ ____
ROOT
ATOM      1  C   UNL     1       2.008   8.068  19.154  0.00  0.00    +0.000 A 
ATOM      2  C   UNL     1       2.983   7.736  18.197  0.00  0.00    +0.000 A 
ATOM      3  C   UNL     1       3.359   6.374  17.998  0.00  0.00    +0.000 A 
ATOM      4  C   UNL     1       2.882   5.369  18.845  0.00  0.00    +0.000 A 
ATOM      5  C   UNL     1       2.195   5.830  19.962  0.00  0.00    +0.000 A 
ATOM      6  C   UNL     1       1.619   7.078  20.044  0.00  0.00    +0.000 A 
ATOM      7  N   UNL     1       2.521   5.238  21.196  0.00  0.00    +0.000 N 
ATOM      8  C   UNL     1       2.447   3.876  21.238  0.00  0.00    +0.000 C 
ATOM      9  O   UNL     1       2.145   3.292  22.270  0.00  0.00    +0.000 OA
ATOM     10  C   UNL     1       2.793   3.149  19.943  0.00  0.00    +0.000 C 
ATOM     11  C   UNL     1       1.576   2.314  19.567  0.00  0.00    +0.000 C 
ATOM     12  C   UNL     1       1.825   2.032  18.110  0.00  0.00    +0.000 C 
ATOM     13  C   UNL     1       2.344   3.379  17.585  0.00  0.00    +0.000 C 
ATOM     14  N   UNL     1       3.127   3.984  18.711  0.00  0.00    +0.000 N 
ATOM     15  H   UNL     1       3.528   5.408  21.267  0.00  0.00    +0.000 HD
ENDROOT
BRANCH   1  17
ATOM     16  N   UNL     1       1.557  10.420  18.520  0.00  0.00    +0.000 N 
ATOM     17  C   UNL     1       1.364   9.393  19.418  0.00  0.00    +0.000 C 
ATOM     18  O   UNL     1       0.700   9.477  20.446  0.00  0.00    +0.000 OA
ATOM     19  H   UNL     1       2.117  10.246  17.701  0.00  0.00    +0.000 HD
BRANCH  16  23
ATOM     20  C   UNL     1       0.116  14.395  18.962  0.00  0.00    +0.000 A 
ATOM     21  C   UNL     1      -0.777  13.376  18.627  0.00  0.00    +0.000 A 
ATOM     22  C   UNL     1      -0.323  12.058  18.482  0.00  0.00    +0.000 A 
ATOM     23  C   UNL     1       1.027  11.732  18.659  0.00  0.00    +0.000 A 
ATOM     24  C   UNL     1       1.918  12.752  19.002  0.00  0.00    +0.000 A 
ATOM     25  C   UNL     1       1.469  14.076  19.148  0.00  0.00    +0.000 A 
BRANCH  20  26
ATOM     26  C   UNL     1      -0.426  15.761  19.115  0.00  0.00    +0.000 C 
ATOM     27  O   UNL     1      -0.554  16.560  18.204  0.00  0.00    +0.000 OA
BRANCH  26  29
ATOM     28  C   UNL     1      -2.161  16.226  20.615  0.00  0.00    +0.000 C 
ATOM     29  O   UNL     1      -0.772  15.993  20.421  0.00  0.00    +0.000 OA
ENDBRANCH  26  29
ENDBRANCH  20  26
ENDBRANCH  16  23
ENDBRANCH   1  17
TORSDOF 4
ENDMDL
MODEL 9
REMARK VINA RESULT:      -7.9      6.492      7.120
REMARK  Name = 
REMARK  5 active torsions:
REMARK  status: ('A' for Active; 'I' for Inactive)
REMARK    1  A    between atoms: C_1  and  O_2
REMARK    2  A    between atoms: O_2  and  C_3
REMARK    3  A    between atoms: C_3  and  C_5
REMARK    4  A    between atoms: C_8  and  N_9
REMARK    5  A    between atoms: C_10  and  C_12
REMARK                            x       y       z     vdW  Elec       q    Type
REMARK                         _______ _______ _______ _____ _____    ______ ____
ROOT
ATOM      1  C   UNL     1       1.991   8.089  19.239  0.00  0.00    +0.000 A 
ATOM      2  C   UNL     1       2.921   7.755  18.239  0.00  0.00    +0.000 A 
ATOM      3  C   UNL     1       3.271   6.391  18.011  0.00  0.00    +0.000 A 
ATOM      4  C   UNL     1       2.817   5.384  18.867  0.00  0.00    +0.000 A 
ATOM      5  C   UNL     1       2.184   5.841  20.017  0.00  0.00    +0.000 A 
ATOM      6  C   UNL     1       1.627   7.096  20.135  0.00  0.00    +0.000 A 
ATOM      7  N   UNL     1       2.553   5.233  21.230  0.00  0.00    +0.000 N 
ATOM      8  C   UNL     1       2.464   3.871  21.262  0.00  0.00    +0.000 C 
ATOM      9  O   UNL     1       2.198   3.280  22.300  0.00  0.00    +0.000 OA
ATOM     10  C   UNL     1       2.746   3.154  19.946  0.00  0.00    +0.000 C 
ATOM     11  C   UNL     1       1.504   2.338  19.614  0.00  0.00    +0.000 C 
ATOM     12  C   UNL     1       1.688   2.067  18.145  0.00  0.00    +0.000 C 
ATOM     13  C   UNL     1       2.202   3.413  17.612  0.00  0.00    +0.000 C 
ATOM     14  N   UNL     1       3.039   3.997  18.710  0.00  0.00    +0.000 N 
ATOM     15  H   UNL     1       3.564   5.390  21.261  0.00  0.00    +0.000 HD
ENDROOT
BRANCH   1  17
ATOM     16  N   UNL     1       1.600  10.471  18.681  0.00  0.00    +0.000 N 
ATOM     17  C   UNL     1       1.375   9.419  19.542  0.00  0.00    +0.000 C 
ATOM     18  O   UNL     1       0.705   9.485  20.568  0.00  0.00    +0.000 OA
ATOM     19  H   UNL     1       2.163  10.312  17.861  0.00  0.00    +0.000 HD
BRANCH  16  23
ATOM     20  C   UNL     1      -0.042  14.361  19.181  0.00  0.00    +0.000 A 
ATOM     21  C   UNL     1       1.312  14.149  19.447  0.00  0.00    +0.000 A 
ATOM     22  C   UNL     1       1.874  12.876  19.284  0.00  0.00    +0.000 A 
ATOM     23  C   UNL     1       1.099  11.790  18.860  0.00  0.00    +0.000 A 
ATOM     24  C   UNL     1      -0.255  12.005  18.587  0.00  0.00    +0.000 A 
ATOM     25  C   UNL     1      -0.823  13.280  18.749  0.00  0.00    +0.000 A 
BRANCH  20  26
ATOM     26  C   UNL     1      -0.571  15.729  19.357  0.00  0.00    +0.000 C 
ATOM     27  O   UNL     1      -1.527  16.015  20.056  0.00  0.00    +0.000 OA
BRANCH  26  29
ATOM     28  C   UNL     1      -0.596  17.432  17.752  0.00  0.00    +0.000 C 
ATOM     29  O   UNL     1       0.173  16.625  18.635  0.00  0.00    +0.000 OA
ENDBRANCH  26  29
ENDBRANCH  20  26
ENDBRANCH  16  23
ENDBRANCH   1  17
TORSDOF 4
ENDMDL
