MODEL 1
REMARK VINA RESULT:      -7.1      0.000      0.000
REMARK  Name = 
REMARK  5 active torsions:
REMARK  status: ('A' for Active; 'I' for Inactive)
REMARK    1  A    between atoms: C_1  and  C_2
REMARK    2  A    between atoms: C_2  and  C_3
REMARK    3  A    between atoms: C_2  and  O_4
REMARK    4  A    between atoms: C_2  and  C_5
REMARK    5  A    between atoms: C_6  and  C_7
REMARK                            x       y       z     vdW  Elec       q    Type
REMARK                         _______ _______ _______ _____ _____    ______ ____
ROOT
ATOM      1  C   UNL     1       3.033   6.709  18.542  0.00  0.00    +0.000 A 
ATOM      2  N   UNL     1       3.832   7.337  17.665  0.00  0.00    +0.000 NA
ATOM      3  C   UNL     1       4.505   6.561  16.801  0.00  0.00    +0.000 A 
ATOM      4  N   UNL     1       4.489   5.223  16.707  0.00  0.00    +0.000 NA
ATOM      5  C   UNL     1       3.676   4.650  17.616  0.00  0.00    +0.000 A 
ATOM      6  S   UNL     1       3.482   2.937  17.720  0.00  0.00    +0.000 S 
ATOM      7  C   UNL     1       2.409   3.112  18.993  0.00  0.00    +0.000 A 
ATOM      8  C   UNL     1       2.180   4.412  19.348  0.00  0.00    +0.000 A 
ATOM      9  C   UNL     1       2.914   5.326  18.563  0.00  0.00    +0.000 A 
ATOM     10  C   UNL     1       1.217   4.507  20.471  0.00  0.00    +0.000 C 
ATOM     11  C   UNL     1       1.184   3.041  20.993  0.00  0.00    +0.000 C 
ATOM     12  C   UNL     1       1.656   2.136  19.811  0.00  0.00    +0.000 C 
ENDROOT
BRANCH   1  14
ATOM     13  C   UNL     1       1.692   8.212  20.374  0.00  0.00    +0.000 C 
ATOM     14  C   UNL     1       2.321   7.471  19.504  0.00  0.00    +0.000 C 
BRANCH  13  16
ATOM     15  C   UNL     1      -0.364   8.412  21.768  0.00  0.00    +0.000 C 
ATOM     16  C   UNL     1       0.958   9.077  21.386  0.00  0.00    +0.000 C 
ATOM     17  C   UNL     1       0.725  10.468  20.798  0.00  0.00    +0.000 C 
BRANCH  16  18
ATOM     18  O   UNL     1       1.775   9.198  22.545  0.00  0.00    +0.000 OA
ATOM     19  H   UNL     1       2.654   8.849  22.323  0.00  0.00    +0.000 HD
ENDBRANCH  16  18
ENDBRANCH  13  16
ENDBRANCH   1  14
TORSDOF 3
ENDMDL
MODEL 2
REMARK VINA RESULT:      -6.7      1.844      3.450
REMARK  Name = 
REMARK  5 active torsions:
REMARK  status: ('A' for Active; 'I' for Inactive)
REMARK    1  A    between atoms: C_1  and  C_2
REMARK    2  A    between atoms: C_2  and  C_3
REMARK    3  A    between atoms: C_2  and  O_4
REMARK    4  A    between atoms: C_2  and  C_5
REMARK    5  A    between atoms: C_6  and  C_7
REMARK                            x       y       z     vdW  Elec       q    Type
REMARK                         _______ _______ _______ _____ _____    ______ ____
ROOT
ATOM      1  C   UNL     1       1.807   4.835  20.242  0.00  0.00    +0.000 A 
ATOM      2  N   UNL     1       1.182   3.831  20.879  0.00  0.00    +0.000 NA
ATOM      3  C   UNL     1       1.434   2.589  20.438  0.00  0.00    +0.000 A 
ATOM      4  N   UNL     1       2.232   2.218  19.425  0.00  0.00    +0.000 NA
ATOM      5  C   UNL     1       2.825   3.267  18.823  0.00  0.00    +0.000 A 
ATOM      6  S   UNL     1       3.893   3.069  17.480  0.00  0.00    +0.000 S 
ATOM      7  C   UNL     1       4.126   4.724  17.390  0.00  0.00    +0.000 A 
ATOM      8  C   UNL     1       3.436   5.432  18.335  0.00  0.00    +0.000 A 
ATOM      9  C   UNL     1       2.664   4.603  19.177  0.00  0.00    +0.000 A 
ATOM     10  C   UNL     1       3.686   6.888  18.213  0.00  0.00    +0.000 C 
ATOM     11  C   UNL     1       4.344   6.987  16.806  0.00  0.00    +0.000 C 
ATOM     12  C   UNL     1       4.934   5.576  16.490  0.00  0.00    +0.000 C 
ENDROOT
BRANCH   1  14
ATOM     13  C   UNL     1       1.280   7.389  21.024  0.00  0.00    +0.000 C 
ATOM     14  C   UNL     1       1.554   6.174  20.640  0.00  0.00    +0.000 C 
BRANCH  13  16
ATOM     15  C   UNL     1      -0.398   8.829  22.173  0.00  0.00    +0.000 C 
ATOM     16  C   UNL     1       0.959   8.806  21.472  0.00  0.00    +0.000 C 
ATOM     17  C   UNL     1       0.969   9.741  20.264  0.00  0.00    +0.000 C 
BRANCH  16  18
ATOM     18  O   UNL     1       1.968   9.224  22.385  0.00  0.00    +0.000 OA
ATOM     19  H   UNL     1       2.307  10.080  22.078  0.00  0.00    +0.000 HD
ENDBRANCH  16  18
ENDBRANCH  13  16
ENDBRANCH   1  14
TORSDOF 3
ENDMDL
MODEL 3
REMARK VINA RESULT:      -6.6      0.716      1.018
REMARK  Name = 
REMARK  5 active torsions:
REMARK  status: ('A' for Active; 'I' for Inactive)
REMARK    1  A    between atoms: C_1  and  C_2
REMARK    2  A    between atoms: C_2  and  C_3
REMARK    3  A    between atoms: C_2  and  O_4
REMARK    4  A    between atoms: C_2  and  C_5
REMARK    5  A    between atoms: C_6  and  C_7
REMARK                            x       y       z     vdW  Elec       q    Type
REMARK                         _______ _______ _______ _____ _____    ______ ____
ROOT
ATOM      1  C   UNL     1       3.034   6.740  18.505  0.00  0.00    +0.000 A 
ATOM      2  N   UNL     1       3.841   7.367  17.635  0.00  0.00    +0.000 NA
ATOM      3  C   UNL     1       4.543   6.590  16.796  0.00  0.00    +0.000 A 
ATOM      4  N   UNL     1       4.550   5.250  16.722  0.00  0.00    +0.000 NA
ATOM      5  C   UNL     1       3.727   4.678  17.622  0.00  0.00    +0.000 A 
ATOM      6  S   UNL     1       3.556   2.964  17.748  0.00  0.00    +0.000 S 
ATOM      7  C   UNL     1       2.455   3.141  18.996  0.00  0.00    +0.000 A 
ATOM      8  C   UNL     1       2.199   4.443  19.327  0.00  0.00    +0.000 A 
ATOM      9  C   UNL     1       2.935   5.357  18.544  0.00  0.00    +0.000 A 
ATOM     10  C   UNL     1       1.212   4.539  20.429  0.00  0.00    +0.000 C 
ATOM     11  C   UNL     1       1.190   3.080  20.971  0.00  0.00    +0.000 C 
ATOM     12  C   UNL     1       1.700   2.166  19.812  0.00  0.00    +0.000 C 
ENDROOT
BRANCH   1  14
ATOM     13  C   UNL     1       1.570   8.208  20.270  0.00  0.00    +0.000 C 
ATOM     14  C   UNL     1       2.291   7.506  19.441  0.00  0.00    +0.000 C 
BRANCH  13  16
ATOM     15  C   UNL     1       1.517   9.277  22.520  0.00  0.00    +0.000 C 
ATOM     16  C   UNL     1       0.728   9.025  21.236  0.00  0.00    +0.000 C 
ATOM     17  C   UNL     1      -0.577   8.287  21.529  0.00  0.00    +0.000 C 
BRANCH  16  18
ATOM     18  O   UNL     1       0.424  10.271  20.619  0.00  0.00    +0.000 OA
ATOM     19  H   UNL     1       0.240  10.098  19.681  0.00  0.00    +0.000 HD
ENDBRANCH  16  18
ENDBRANCH  13  16
ENDBRANCH   1  14
TORSDOF 3
ENDMDL
MODEL 4
REMARK VINA RESULT:      -6.5      1.812      2.193
REMARK  Name = 
REMARK  5 active torsions:
REMARK  status: ('A' for Active; 'I' for Inactive)
REMARK    1  A    between atoms: C_1  and  C_2
REMARK    2  A    between atoms: C_2  and  C_3
REMARK    3  A    between atoms: C_2  and  O_4
REMARK    4  A    between atoms: C_2  and  C_5
REMARK    5  A    between atoms: C_6  and  C_7
REMARK                            x       y       z     vdW  Elec       q    Type
REMARK                         _______ _______ _______ _____ _____    ______ ____
ROOT
ATOM      1  C   UNL     1       3.784   6.414  17.384  0.00  0.00    +0.000 A 
ATOM      2  N   UNL     1       4.779   6.610  16.506  0.00  0.00    +0.000 NA
ATOM      3  C   UNL     1       5.524   5.539  16.191  0.00  0.00    +0.000 A 
ATOM      4  N   UNL     1       5.407   4.286  16.655  0.00  0.00    +0.000 NA
ATOM      5  C   UNL     1       4.396   4.153  17.536  0.00  0.00    +0.000 A 
ATOM      6  S   UNL     1       4.035   2.644  18.295  0.00  0.00    +0.000 S 
ATOM      7  C   UNL     1       2.771   3.344  19.140  0.00  0.00    +0.000 A 
ATOM      8  C   UNL     1       2.598   4.675  18.875  0.00  0.00    +0.000 A 
ATOM      9  C   UNL     1       3.540   5.170  17.947  0.00  0.00    +0.000 A 
ATOM     10  C   UNL     1       1.462   5.239  19.642  0.00  0.00    +0.000 C 
ATOM     11  C   UNL     1       1.206   4.129  20.702  0.00  0.00    +0.000 C 
ATOM     12  C   UNL     1       1.799   2.808  20.118  0.00  0.00    +0.000 C 
ENDROOT
BRANCH   1  14
ATOM     13  C   UNL     1       2.226   8.528  18.105  0.00  0.00    +0.000 C 
ATOM     14  C   UNL     1       2.982   7.515  17.784  0.00  0.00    +0.000 C 
BRANCH  13  16
ATOM     15  C   UNL     1       2.113  11.011  18.271  0.00  0.00    +0.000 C 
ATOM     16  C   UNL     1       1.344   9.708  18.478  0.00  0.00    +0.000 C 
ATOM     17  C   UNL     1       0.885   9.566  19.929  0.00  0.00    +0.000 C 
BRANCH  16  18
ATOM     18  O   UNL     1       0.201   9.697  17.631  0.00  0.00    +0.000 OA
ATOM     19  H   UNL     1       0.422   9.170  16.845  0.00  0.00    +0.000 HD
ENDBRANCH  16  18
ENDBRANCH  13  16
ENDBRANCH   1  14
TORSDOF 3
ENDMDL
MODEL 5
REMARK VINA RESULT:      -6.4      1.645      1.817
REMARK  Name = 
REMARK  5 active torsions:
REMARK  status: ('A' for Active; 'I' for Inactive)
REMARK    1  A    between atoms: C_1  and  C_2
REMARK    2  A    between atoms: C_2  and  C_3
REMARK    3  A    between atoms: C_2  and  O_4
REMARK    4  A    between atoms: C_2  and  C_5
REMARK    5  A    between atoms: C_6  and  C_7
REMARK                            x       y       z     vdW  Elec       q    Type
REMARK                         _______ _______ _______ _____ _____    ______ ____
ROOT
ATOM      1  C   UNL     1       3.635   6.643  17.471  0.00  0.00    +0.000 A 
ATOM      2  N   UNL     1       4.599   6.943  16.585  0.00  0.00    +0.000 NA
ATOM      3  C   UNL     1       5.397   5.935  16.199  0.00  0.00    +0.000 A 
ATOM      4  N   UNL     1       5.361   4.655  16.597  0.00  0.00    +0.000 NA
ATOM      5  C   UNL     1       4.379   4.416  17.488  0.00  0.00    +0.000 A 
ATOM      6  S   UNL     1       4.122   2.851  18.170  0.00  0.00    +0.000 S 
ATOM      7  C   UNL     1       2.838   3.430  19.076  0.00  0.00    +0.000 A 
ATOM      8  C   UNL     1       2.584   4.761  18.886  0.00  0.00    +0.000 A 
ATOM      9  C   UNL     1       3.475   5.358  17.970  0.00  0.00    +0.000 A 
ATOM     10  C   UNL     1       1.434   5.216  19.704  0.00  0.00    +0.000 C 
ATOM     11  C   UNL     1       1.265   4.038  20.707  0.00  0.00    +0.000 C 
ATOM     12  C   UNL     1       1.920   2.787  20.041  0.00  0.00    +0.000 C 
ENDROOT
BRANCH   1  14
ATOM     13  C   UNL     1       2.003   8.643  18.336  0.00  0.00    +0.000 C 
ATOM     14  C   UNL     1       2.780   7.672  17.944  0.00  0.00    +0.000 C 
BRANCH  13  16
ATOM     15  C   UNL     1       0.821   9.641  20.290  0.00  0.00    +0.000 C 
ATOM     16  C   UNL     1       1.097   9.775  18.793  0.00  0.00    +0.000 C 
ATOM     17  C   UNL     1      -0.203   9.746  17.990  0.00  0.00    +0.000 C 
BRANCH  16  18
ATOM     18  O   UNL     1       1.764  11.007  18.546  0.00  0.00    +0.000 OA
ATOM     19  H   UNL     1       1.099  11.647  18.242  0.00  0.00    +0.000 HD
ENDBRANCH  16  18
ENDBRANCH  13  16
ENDBRANCH   1  14
TORSDOF 3
ENDMDL
MODEL 6
REMARK VINA RESULT:      -6.3      2.461      3.919
REMARK  Name = 
REMARK  5 active torsions:
REMARK  status: ('A' for Active; 'I' for Inactive)
REMARK    1  A    between atoms: C_1  and  C_2
REMARK    2  A    between atoms: C_2  and  C_3
REMARK    3  A    between atoms: C_2  and  O_4
REMARK    4  A    between atoms: C_2  and  C_5
REMARK    5  A    between atoms: C_6  and  C_7
REMARK                            x       y       z     vdW  Elec       q    Type
REMARK                         _______ _______ _______ _____ _____    ______ ____
ROOT
ATOM      1  C   UNL     1       2.346   6.141  19.715  0.00  0.00    +0.000 A 
ATOM      2  N   UNL     1       1.690   5.579  20.743  0.00  0.00    +0.000 NA
ATOM      3  C   UNL     1       2.053   4.332  21.080  0.00  0.00    +0.000 A 
ATOM      4  N   UNL     1       2.992   3.562  20.509  0.00  0.00    +0.000 NA
ATOM      5  C   UNL     1       3.610   4.177  19.481  0.00  0.00    +0.000 A 
ATOM      6  S   UNL     1       4.851   3.403  18.564  0.00  0.00    +0.000 S 
ATOM      7  C   UNL     1       5.019   4.760  17.599  0.00  0.00    +0.000 A 
ATOM      8  C   UNL     1       4.180   5.785  17.938  0.00  0.00    +0.000 A 
ATOM      9  C   UNL     1       3.344   5.465  19.028  0.00  0.00    +0.000 A 
ATOM     10  C   UNL     1       4.378   6.962  17.057  0.00  0.00    +0.000 C 
ATOM     11  C   UNL     1       5.208   6.355  15.889  0.00  0.00    +0.000 C 
ATOM     12  C   UNL     1       5.898   5.072  16.451  0.00  0.00    +0.000 C 
ENDROOT
BRANCH   1  14
ATOM     13  C   UNL     1       1.604   8.630  18.898  0.00  0.00    +0.000 C 
ATOM     14  C   UNL     1       1.984   7.445  19.288  0.00  0.00    +0.000 C 
BRANCH  13  16
ATOM     15  C   UNL     1       1.181  10.973  19.630  0.00  0.00    +0.000 C 
ATOM     16  C   UNL     1       1.160  10.011  18.444  0.00  0.00    +0.000 C 
ATOM     17  C   UNL     1      -0.237   9.924  17.831  0.00  0.00    +0.000 C 
BRANCH  16  18
ATOM     18  O   UNL     1       2.071  10.468  17.451  0.00  0.00    +0.000 OA
ATOM     19  H   UNL     1       1.549  10.839  16.721  0.00  0.00    +0.000 HD
ENDBRANCH  16  18
ENDBRANCH  13  16
ENDBRANCH   1  14
TORSDOF 3
ENDMDL
MODEL 7
REMARK VINA RESULT:      -6.3      1.680      1.796
REMARK  Name = 
REMARK  5 active torsions:
REMARK  status: ('A' for Active; 'I' for Inactive)
REMARK    1  A    between atoms: C_1  and  C_2
REMARK    2  A    between atoms: C_2  and  C_3
REMARK    3  A    between atoms: C_2  and  O_4
REMARK    4  A    between atoms: C_2  and  C_5
REMARK    5  A    between atoms: C_6  and  C_7
REMARK                            x       y       z     vdW  Elec       q    Type
REMARK                         _______ _______ _______ _____ _____    ______ ____
ROOT
ATOM      1  C   UNL     1       3.692   6.440  17.475  0.00  0.00    +0.000 A 
ATOM      2  N   UNL     1       4.694   6.685  16.616  0.00  0.00    +0.000 NA
ATOM      3  C   UNL     1       5.457   5.638  16.267  0.00  0.00    +0.000 A 
ATOM      4  N   UNL     1       5.353   4.365  16.679  0.00  0.00    +0.000 NA
ATOM      5  C   UNL     1       4.335   4.183  17.544  0.00  0.00    +0.000 A 
ATOM      6  S   UNL     1       3.988   2.641  18.238  0.00  0.00    +0.000 S 
ATOM      7  C   UNL     1       2.705   3.289  19.096  0.00  0.00    +0.000 A 
ATOM      8  C   UNL     1       2.517   4.627  18.882  0.00  0.00    +0.000 A 
ATOM      9  C   UNL     1       3.460   5.171  17.986  0.00  0.00    +0.000 A 
ATOM     10  C   UNL     1       1.365   5.144  19.660  0.00  0.00    +0.000 C 
ATOM     11  C   UNL     1       1.113   3.989  20.672  0.00  0.00    +0.000 C 
ATOM     12  C   UNL     1       1.732   2.700  20.042  0.00  0.00    +0.000 C 
ENDROOT
BRANCH   1  14
ATOM     13  C   UNL     1       2.134   8.526  18.271  0.00  0.00    +0.000 C 
ATOM     14  C   UNL     1       2.870   7.513  17.909  0.00  0.00    +0.000 C 
BRANCH  13  16
ATOM     15  C   UNL     1      -0.076   9.641  17.982  0.00  0.00    +0.000 C 
ATOM     16  C   UNL     1       1.275   9.708  18.693  0.00  0.00    +0.000 C 
ATOM     17  C   UNL     1       2.003  11.011  18.368  0.00  0.00    +0.000 C 
BRANCH  16  18
ATOM     18  O   UNL     1       1.071   9.632  20.099  0.00  0.00    +0.000 OA
ATOM     19  H   UNL     1       1.306  10.495  20.478  0.00  0.00    +0.000 HD
ENDBRANCH  16  18
ENDBRANCH  13  16
ENDBRANCH   1  14
TORSDOF 3
ENDMDL
MODEL 8
REMARK VINA RESULT:      -6.2      1.974      3.587
REMARK  Name = 
REMARK  5 active torsions:
REMARK  status: ('A' for Active; 'I' for Inactive)
REMARK    1  A    between atoms: C_1  and  C_2
REMARK    2  A    between atoms: C_2  and  C_3
REMARK    3  A    between atoms: C_2  and  O_4
REMARK    4  A    between atoms: C_2  and  C_5
REMARK    5  A    between atoms: C_6  and  C_7
REMARK                            x       y       z     vdW  Elec       q    Type
REMARK                         _______ _______ _______ _____ _____    ______ ____
ROOT
ATOM      1  C   UNL     1       1.833   4.756  20.230  0.00  0.00    +0.000 A 
ATOM      2  N   UNL     1       1.264   3.733  20.888  0.00  0.00    +0.000 NA
ATOM      3  C   UNL     1       1.594   2.498  20.481  0.00  0.00    +0.000 A 
ATOM      4  N   UNL     1       2.421   2.150  19.484  0.00  0.00    +0.000 NA
ATOM      5  C   UNL     1       2.955   3.217  18.858  0.00  0.00    +0.000 A 
ATOM      6  S   UNL     1       4.045   3.049  17.529  0.00  0.00    +0.000 S 
ATOM      7  C   UNL     1       4.179   4.712  17.397  0.00  0.00    +0.000 A 
ATOM      8  C   UNL     1       3.439   5.401  18.319  0.00  0.00    +0.000 A 
ATOM      9  C   UNL     1       2.711   4.549  19.177  0.00  0.00    +0.000 A 
ATOM     10  C   UNL     1       3.602   6.866  18.161  0.00  0.00    +0.000 C 
ATOM     11  C   UNL     1       4.265   6.968  16.756  0.00  0.00    +0.000 C 
ATOM     12  C   UNL     1       4.942   5.588  16.481  0.00  0.00    +0.000 C 
ENDROOT
BRANCH   1  14
ATOM     13  C   UNL     1       1.142   7.300  20.914  0.00  0.00    +0.000 C 
ATOM     14  C   UNL     1       1.497   6.088  20.591  0.00  0.00    +0.000 C 
BRANCH  13  16
ATOM     15  C   UNL     1       0.847   9.627  20.073  0.00  0.00    +0.000 C 
ATOM     16  C   UNL     1       0.726   8.712  21.291  0.00  0.00    +0.000 C 
ATOM     17  C   UNL     1       1.597   9.212  22.443  0.00  0.00    +0.000 C 
BRANCH  16  18
ATOM     18  O   UNL     1      -0.630   8.679  21.721  0.00  0.00    +0.000 OA
ATOM     19  H   UNL     1      -0.713   7.971  22.381  0.00  0.00    +0.000 HD
ENDBRANCH  16  18
ENDBRANCH  13  16
ENDBRANCH   1  14
TORSDOF 3
ENDMDL
MODEL 9
REMARK VINA RESULT:      -6.1      4.751      6.985
REMARK  Name = 
REMARK  5 active torsions:
REMARK  status: ('A' for Active; 'I' for Inactive)
REMARK    1  A    between atoms: C_1  and  C_2
REMARK    2  A    between atoms: C_2  and  C_3
REMARK    3  A    between atoms: C_2  and  O_4
REMARK    4  A    between atoms: C_2  and  C_5
REMARK    5  A    between atoms: C_6  and  C_7
REMARK                            x       y       z     vdW  Elec       q    Type
REMARK                         _______ _______ _______ _____ _____    ______ ____
ROOT
ATOM      1  C   UNL     1       6.509   4.494  16.734  0.00  0.00    +0.000 A 
ATOM      2  N   UNL     1       7.714   4.920  17.147  0.00  0.00    +0.000 NA
ATOM      3  C   UNL     1       7.824   5.251  18.443  0.00  0.00    +0.000 A 
ATOM      4  N   UNL     1       6.872   5.219  19.387  0.00  0.00    +0.000 NA
ATOM      5  C   UNL     1       5.686   4.790  18.912  0.00  0.00    +0.000 A 
ATOM      6  S   UNL     1       4.287   4.668  19.917  0.00  0.00    +0.000 S 
ATOM      7  C   UNL     1       3.378   4.116  18.625  0.00  0.00    +0.000 A 
ATOM      8  C   UNL     1       4.082   4.012  17.458  0.00  0.00    +0.000 A 
ATOM      9  C   UNL     1       5.429   4.407  17.600  0.00  0.00    +0.000 A 
ATOM     10  C   UNL     1       3.230   3.511  16.352  0.00  0.00    +0.000 C 
ATOM     11  C   UNL     1       1.800   3.684  16.942  0.00  0.00    +0.000 C 
ATOM     12  C   UNL     1       1.959   3.715  18.496  0.00  0.00    +0.000 C 
ENDROOT
BRANCH   1  14
ATOM     13  C   UNL     1       6.195   3.860  14.105  0.00  0.00    +0.000 C 
ATOM     14  C   UNL     1       6.320   4.162  15.367  0.00  0.00    +0.000 C 
BRANCH  13  16
ATOM     15  C   UNL     1       7.039   4.328  11.808  0.00  0.00    +0.000 C 
ATOM     16  C   UNL     1       6.050   3.507  12.633  0.00  0.00    +0.000 C 
ATOM     17  C   UNL     1       4.612   3.764  12.184  0.00  0.00    +0.000 C 
BRANCH  16  18
ATOM     18  O   UNL     1       6.341   2.123  12.476  0.00  0.00    +0.000 OA
ATOM     19  H   UNL     1       5.898   1.645  13.196  0.00  0.00    +0.000 HD
ENDBRANCH  16  18
ENDBRANCH  13  16
ENDBRANCH   1  14
TORSDOF 3
ENDMDL
