MODEL 1
REMARK VINA RESULT:      -6.7      0.000      0.000
REMARK  Name = 
REMARK  8 active torsions:
REMARK  status: ('A' for Active; 'I' for Inactive)
REMARK    1  A    between atoms: C_1  and  C_2
REMARK    2  A    between atoms: C_2  and  C_3
REMARK    3  A    between atoms: C_2  and  C_4
REMARK    4  A    between atoms: C_4  and  C_5
REMARK    5  A    between atoms: C_5  and  N_6
REMARK    6  A    between atoms: N_6  and  C_7
REMARK    7  A    between atoms: N_11  and  C_12
REMARK    8  A    between atoms: N_15  and  C_16
REMARK                            x       y       z     vdW  Elec       q    Type
REMARK                         _______ _______ _______ _____ _____    ______ ____
ROOT
ATOM      1  C   UNL     1       4.095   4.259  17.606  0.00  0.00    +0.000 A 
ATOM      2  C   UNL     1       4.335   5.150  16.636  0.00  0.00    +0.000 A 
ATOM      3  C   UNL     1       5.491   6.050  16.678  0.00  0.00    +0.000 A 
ATOM      4  O   UNL     1       5.674   6.820  15.739  0.00  0.00    +0.000 OA
ATOM      5  N   UNL     1       6.292   5.948  17.789  0.00  0.00    +0.000 N 
ATOM      6  C   UNL     1       7.457   6.805  17.896  0.00  0.00    +0.000 C 
ATOM      7  C   UNL     1       6.064   5.057  18.826  0.00  0.00    +0.000 A 
ATOM      8  O   UNL     1       6.806   5.019  19.812  0.00  0.00    +0.000 OA
ATOM      9  N   UNL     1       4.962   4.209  18.689  0.00  0.00    +0.000 N 
ATOM     10  C   UNL     1       4.749   3.235  19.754  0.00  0.00    +0.000 C 
ENDROOT
BRANCH   1  11
ATOM     11  N   UNL     1       2.973   3.438  17.512  0.00  0.00    +0.000 N 
ATOM     12  H   UNL     1       2.924   2.961  16.617  0.00  0.00    +0.000 HD
BRANCH  11  13
ATOM     13  C   UNL     1       1.650   3.885  17.950  0.00  0.00    +0.000 C 
BRANCH  13  14
ATOM     14  C   UNL     1       1.086   2.949  19.023  0.00  0.00    +0.000 C 
BRANCH  14  16
ATOM     15  C   UNL     1       1.508   2.717  21.528  0.00  0.00    +0.000 C 
ATOM     16  C   UNL     1       0.919   3.587  20.416  0.00  0.00    +0.000 C 
ATOM     17  C   UNL     1       1.579   4.969  20.443  0.00  0.00    +0.000 C 
ENDBRANCH  14  16
ENDBRANCH  13  14
ENDBRANCH  11  13
ENDBRANCH   1  11
TORSDOF 4
ENDMDL
MODEL 2
REMARK VINA RESULT:      -6.2      3.455      5.736
REMARK  Name = 
REMARK  8 active torsions:
REMARK  status: ('A' for Active; 'I' for Inactive)
REMARK    1  A    between atoms: C_1  and  C_2
REMARK    2  A    between atoms: C_2  and  C_3
REMARK    3  A    between atoms: C_2  and  C_4
REMARK    4  A    between atoms: C_4  and  C_5
REMARK    5  A    between atoms: C_5  and  N_6
REMARK    6  A    between atoms: N_6  and  C_7
REMARK    7  A    between atoms: N_11  and  C_12
REMARK    8  A    between atoms: N_15  and  C_16
REMARK                            x       y       z     vdW  Elec       q    Type
REMARK                         _______ _______ _______ _____ _____    ______ ____
ROOT
ATOM      1  C   UNL     1       5.564   3.970  16.282  0.00  0.00    +0.000 A 
ATOM      2  C   UNL     1       4.232   3.847  16.336  0.00  0.00    +0.000 A 
ATOM      3  C   UNL     1       3.471   4.174  17.545  0.00  0.00    +0.000 A 
ATOM      4  O   UNL     1       2.248   4.073  17.518  0.00  0.00    +0.000 OA
ATOM      5  N   UNL     1       4.210   4.582  18.628  0.00  0.00    +0.000 N 
ATOM      6  C   UNL     1       3.523   4.926  19.858  0.00  0.00    +0.000 C 
ATOM      7  C   UNL     1       5.591   4.698  18.621  0.00  0.00    +0.000 A 
ATOM      8  O   UNL     1       6.209   5.051  19.630  0.00  0.00    +0.000 OA
ATOM      9  N   UNL     1       6.236   4.403  17.417  0.00  0.00    +0.000 N 
ATOM     10  C   UNL     1       7.684   4.574  17.391  0.00  0.00    +0.000 C 
ENDROOT
BRANCH   1  11
ATOM     11  N   UNL     1       6.231   3.634  15.105  0.00  0.00    +0.000 N 
ATOM     12  H   UNL     1       7.206   3.406  15.272  0.00  0.00    +0.000 HD
BRANCH  11  13
ATOM     13  C   UNL     1       6.067   4.413  13.877  0.00  0.00    +0.000 C 
BRANCH  13  14
ATOM     14  C   UNL     1       6.475   3.591  12.651  0.00  0.00    +0.000 C 
BRANCH  14  16
ATOM     15  C   UNL     1       4.306   3.308  11.338  0.00  0.00    +0.000 C 
ATOM     16  C   UNL     1       5.400   2.608  12.145  0.00  0.00    +0.000 C 
ATOM     17  C   UNL     1       6.048   1.515  11.291  0.00  0.00    +0.000 C 
ENDBRANCH  14  16
ENDBRANCH  13  14
ENDBRANCH  11  13
ENDBRANCH   1  11
TORSDOF 4
ENDMDL
MODEL 3
REMARK VINA RESULT:      -6.0      2.543      5.359
REMARK  Name = 
REMARK  8 active torsions:
REMARK  status: ('A' for Active; 'I' for Inactive)
REMARK    1  A    between atoms: C_1  and  C_2
REMARK    2  A    between atoms: C_2  and  C_3
REMARK    3  A    between atoms: C_2  and  C_4
REMARK    4  A    between atoms: C_4  and  C_5
REMARK    5  A    between atoms: C_5  and  N_6
REMARK    6  A    between atoms: N_6  and  C_7
REMARK    7  A    between atoms: N_11  and  C_12
REMARK    8  A    between atoms: N_15  and  C_16
REMARK                            x       y       z     vdW  Elec       q    Type
REMARK                         _______ _______ _______ _____ _____    ______ ____
ROOT
ATOM      1  C   UNL     1       3.847   4.859  17.807  0.00  0.00    +0.000 A 
ATOM      2  C   UNL     1       3.984   3.527  17.788  0.00  0.00    +0.000 A 
ATOM      3  C   UNL     1       3.238   2.658  18.702  0.00  0.00    +0.000 A 
ATOM      4  O   UNL     1       3.382   1.442  18.609  0.00  0.00    +0.000 OA
ATOM      5  N   UNL     1       2.418   3.294  19.602  0.00  0.00    +0.000 N 
ATOM      6  C   UNL     1       1.647   2.496  20.535  0.00  0.00    +0.000 C 
ATOM      7  C   UNL     1       2.269   4.670  19.671  0.00  0.00    +0.000 A 
ATOM      8  O   UNL     1       1.532   5.192  20.513  0.00  0.00    +0.000 OA
ATOM      9  N   UNL     1       2.986   5.423  18.738  0.00  0.00    +0.000 N 
ATOM     10  C   UNL     1       2.792   6.868  18.775  0.00  0.00    +0.000 C 
ENDROOT
BRANCH   1  11
ATOM     11  N   UNL     1       4.592   5.631  16.918  0.00  0.00    +0.000 N 
ATOM     12  H   UNL     1       4.004   6.238  16.355  0.00  0.00    +0.000 HD
BRANCH  11  13
ATOM     13  C   UNL     1       5.681   5.059  16.124  0.00  0.00    +0.000 C 
BRANCH  13  14
ATOM     14  C   UNL     1       7.011   5.743  16.452  0.00  0.00    +0.000 C 
BRANCH  14  16
ATOM     15  C   UNL     1       7.687   5.774  18.911  0.00  0.00    +0.000 C 
ATOM     16  C   UNL     1       7.020   6.542  17.770  0.00  0.00    +0.000 C 
ATOM     17  C   UNL     1       7.735   7.881  17.567  0.00  0.00    +0.000 C 
ENDBRANCH  14  16
ENDBRANCH  13  14
ENDBRANCH  11  13
ENDBRANCH   1  11
TORSDOF 4
ENDMDL
MODEL 4
REMARK VINA RESULT:      -6.0      1.835      3.147
REMARK  Name = 
REMARK  8 active torsions:
REMARK  status: ('A' for Active; 'I' for Inactive)
REMARK    1  A    between atoms: C_1  and  C_2
REMARK    2  A    between atoms: C_2  and  C_3
REMARK    3  A    between atoms: C_2  and  C_4
REMARK    4  A    between atoms: C_4  and  C_5
REMARK    5  A    between atoms: C_5  and  N_6
REMARK    6  A    between atoms: N_6  and  C_7
REMARK    7  A    between atoms: N_11  and  C_12
REMARK    8  A    between atoms: N_15  and  C_16
REMARK                            x       y       z     vdW  Elec       q    Type
REMARK                         _______ _______ _______ _____ _____    ______ ____
ROOT
ATOM      1  C   UNL     1       3.451   6.183  19.254  0.00  0.00    +0.000 A 
ATOM      2  C   UNL     1       4.382   5.268  19.553  0.00  0.00    +0.000 A 
ATOM      3  C   UNL     1       5.508   4.987  18.658  0.00  0.00    +0.000 A 
ATOM      4  O   UNL     1       6.347   4.161  19.007  0.00  0.00    +0.000 OA
ATOM      5  N   UNL     1       5.530   5.692  17.480  0.00  0.00    +0.000 N 
ATOM      6  C   UNL     1       6.617   5.467  16.547  0.00  0.00    +0.000 C 
ATOM      7  C   UNL     1       4.573   6.628  17.122  0.00  0.00    +0.000 A 
ATOM      8  O   UNL     1       4.630   7.221  16.041  0.00  0.00    +0.000 OA
ATOM      9  N   UNL     1       3.554   6.865  18.049  0.00  0.00    +0.000 N 
ATOM     10  C   UNL     1       2.574   7.886  17.699  0.00  0.00    +0.000 C 
ENDROOT
BRANCH   1  11
ATOM     11  N   UNL     1       2.400   6.399  20.144  0.00  0.00    +0.000 N 
ATOM     12  H   UNL     1       2.534   7.240  20.696  0.00  0.00    +0.000 HD
BRANCH  11  13
ATOM     13  C   UNL     1       1.839   5.315  20.952  0.00  0.00    +0.000 C 
BRANCH  13  14
ATOM     14  C   UNL     1       1.024   4.352  20.083  0.00  0.00    +0.000 C 
BRANCH  14  16
ATOM     15  C   UNL     1       1.741   2.056  19.234  0.00  0.00    +0.000 C 
ATOM     16  C   UNL     1       1.210   2.860  20.421  0.00  0.00    +0.000 C 
ATOM     17  C   UNL     1       2.161   2.705  21.611  0.00  0.00    +0.000 C 
ENDBRANCH  14  16
ENDBRANCH  13  14
ENDBRANCH  11  13
ENDBRANCH   1  11
TORSDOF 4
ENDMDL
MODEL 5
REMARK VINA RESULT:      -6.0      2.184      3.257
REMARK  Name = 
REMARK  8 active torsions:
REMARK  status: ('A' for Active; 'I' for Inactive)
REMARK    1  A    between atoms: C_1  and  C_2
REMARK    2  A    between atoms: C_2  and  C_3
REMARK    3  A    between atoms: C_2  and  C_4
REMARK    4  A    between atoms: C_4  and  C_5
REMARK    5  A    between atoms: C_5  and  N_6
REMARK    6  A    between atoms: N_6  and  C_7
REMARK    7  A    between atoms: N_11  and  C_12
REMARK    8  A    between atoms: N_15  and  C_16
REMARK                            x       y       z     vdW  Elec       q    Type
REMARK                         _______ _______ _______ _____ _____    ______ ____
ROOT
ATOM      1  C   UNL     1       4.566   4.563  18.915  0.00  0.00    +0.000 A 
ATOM      2  C   UNL     1       3.688   5.203  19.697  0.00  0.00    +0.000 A 
ATOM      3  C   UNL     1       3.064   6.465  19.290  0.00  0.00    +0.000 A 
ATOM      4  O   UNL     1       2.240   6.984  20.038  0.00  0.00    +0.000 OA
ATOM      5  N   UNL     1       3.460   6.968  18.075  0.00  0.00    +0.000 N 
ATOM      6  C   UNL     1       2.881   8.212  17.607  0.00  0.00    +0.000 C 
ATOM      7  C   UNL     1       4.385   6.349  17.248  0.00  0.00    +0.000 A 
ATOM      8  O   UNL     1       4.721   6.854  16.173  0.00  0.00    +0.000 OA
ATOM      9  N   UNL     1       4.903   5.130  17.693  0.00  0.00    +0.000 N 
ATOM     10  C   UNL     1       5.837   4.451  16.802  0.00  0.00    +0.000 C 
ENDROOT
BRANCH   1  11
ATOM     11  N   UNL     1       5.132   3.370  19.362  0.00  0.00    +0.000 N 
ATOM     12  H   UNL     1       5.839   3.021  18.724  0.00  0.00    +0.000 HD
BRANCH  11  13
ATOM     13  C   UNL     1       4.313   2.282  19.898  0.00  0.00    +0.000 C 
BRANCH  13  14
ATOM     14  C   UNL     1       3.297   1.801  18.858  0.00  0.00    +0.000 C 
BRANCH  14  16
ATOM     15  C   UNL     1       1.661   2.446  20.706  0.00  0.00    +0.000 C 
ATOM     16  C   UNL     1       1.821   2.019  19.247  0.00  0.00    +0.000 C 
ATOM     17  C   UNL     1       1.186   3.071  18.332  0.00  0.00    +0.000 C 
ENDBRANCH  14  16
ENDBRANCH  13  14
ENDBRANCH  11  13
ENDBRANCH   1  11
TORSDOF 4
ENDMDL
MODEL 6
REMARK VINA RESULT:      -6.0      3.125      5.749
REMARK  Name = 
REMARK  8 active torsions:
REMARK  status: ('A' for Active; 'I' for Inactive)
REMARK    1  A    between atoms: C_1  and  C_2
REMARK    2  A    between atoms: C_2  and  C_3
REMARK    3  A    between atoms: C_2  and  C_4
REMARK    4  A    between atoms: C_4  and  C_5
REMARK    5  A    between atoms: C_5  and  N_6
REMARK    6  A    between atoms: N_6  and  C_7
REMARK    7  A    between atoms: N_11  and  C_12
REMARK    8  A    between atoms: N_15  and  C_16
REMARK                            x       y       z     vdW  Elec       q    Type
REMARK                         _______ _______ _______ _____ _____    ______ ____
ROOT
ATOM      1  C   UNL     1       5.534   5.053  16.242  0.00  0.00    +0.000 A 
ATOM      2  C   UNL     1       4.495   4.208  16.243  0.00  0.00    +0.000 A 
ATOM      3  C   UNL     1       3.998   3.593  17.477  0.00  0.00    +0.000 A 
ATOM      4  O   UNL     1       3.018   2.854  17.416  0.00  0.00    +0.000 OA
ATOM      5  N   UNL     1       4.683   3.908  18.625  0.00  0.00    +0.000 N 
ATOM      6  C   UNL     1       4.245   3.337  19.884  0.00  0.00    +0.000 C 
ATOM      7  C   UNL     1       5.778   4.757  18.661  0.00  0.00    +0.000 A 
ATOM      8  O   UNL     1       6.371   4.991  19.719  0.00  0.00    +0.000 OA
ATOM      9  N   UNL     1       6.163   5.331  17.447  0.00  0.00    +0.000 N 
ATOM     10  C   UNL     1       7.283   6.265  17.491  0.00  0.00    +0.000 C 
ENDROOT
BRANCH   1  11
ATOM     11  N   UNL     1       5.964   5.599  15.034  0.00  0.00    +0.000 N 
ATOM     12  H   UNL     1       5.208   6.051  14.529  0.00  0.00    +0.000 HD
BRANCH  11  13
ATOM     13  C   UNL     1       6.846   4.863  14.127  0.00  0.00    +0.000 C 
BRANCH  13  14
ATOM     14  C   UNL     1       6.172   3.579  13.633  0.00  0.00    +0.000 C 
BRANCH  14  16
ATOM     15  C   UNL     1       6.852   2.322  11.520  0.00  0.00    +0.000 C 
ATOM     16  C   UNL     1       6.030   3.472  12.101  0.00  0.00    +0.000 C 
ATOM     17  C   UNL     1       4.557   3.293  11.722  0.00  0.00    +0.000 C 
ENDBRANCH  14  16
ENDBRANCH  13  14
ENDBRANCH  11  13
ENDBRANCH   1  11
TORSDOF 4
ENDMDL
MODEL 7
REMARK VINA RESULT:      -6.0      1.123      2.501
REMARK  Name = 
REMARK  8 active torsions:
REMARK  status: ('A' for Active; 'I' for Inactive)
REMARK    1  A    between atoms: C_1  and  C_2
REMARK    2  A    between atoms: C_2  and  C_3
REMARK    3  A    between atoms: C_2  and  C_4
REMARK    4  A    between atoms: C_4  and  C_5
REMARK    5  A    between atoms: C_5  and  N_6
REMARK    6  A    between atoms: N_6  and  C_7
REMARK    7  A    between atoms: N_11  and  C_12
REMARK    8  A    between atoms: N_15  and  C_16
REMARK                            x       y       z     vdW  Elec       q    Type
REMARK                         _______ _______ _______ _____ _____    ______ ____
ROOT
ATOM      1  C   UNL     1       5.070   3.928  17.938  0.00  0.00    +0.000 A 
ATOM      2  C   UNL     1       5.685   4.232  19.088  0.00  0.00    +0.000 A 
ATOM      3  C   UNL     1       6.663   5.319  19.180  0.00  0.00    +0.000 A 
ATOM      4  O   UNL     1       7.166   5.569  20.272  0.00  0.00    +0.000 OA
ATOM      5  N   UNL     1       6.936   5.983  18.010  0.00  0.00    +0.000 N 
ATOM      6  C   UNL     1       7.893   7.073  18.027  0.00  0.00    +0.000 C 
ATOM      7  C   UNL     1       6.341   5.683  16.795  0.00  0.00    +0.000 A 
ATOM      8  O   UNL     1       6.637   6.300  15.767  0.00  0.00    +0.000 OA
ATOM      9  N   UNL     1       5.391   4.658  16.801  0.00  0.00    +0.000 N 
ATOM     10  C   UNL     1       4.725   4.375  15.536  0.00  0.00    +0.000 C 
ENDROOT
BRANCH   1  11
ATOM     11  N   UNL     1       4.155   2.877  17.913  0.00  0.00    +0.000 N 
ATOM     12  H   UNL     1       3.457   2.996  17.186  0.00  0.00    +0.000 HD
BRANCH  11  13
ATOM     13  C   UNL     1       3.561   2.343  19.139  0.00  0.00    +0.000 C 
BRANCH  13  14
ATOM     14  C   UNL     1       2.033   2.330  19.045  0.00  0.00    +0.000 C 
BRANCH  14  16
ATOM     15  C   UNL     1       1.643   2.666  21.543  0.00  0.00    +0.000 C 
ATOM     16  C   UNL     1       1.311   3.151  20.132  0.00  0.00    +0.000 C 
ATOM     17  C   UNL     1       1.675   4.633  20.000  0.00  0.00    +0.000 C 
ENDBRANCH  14  16
ENDBRANCH  13  14
ENDBRANCH  11  13
ENDBRANCH   1  11
TORSDOF 4
ENDMDL
MODEL 8
REMARK VINA RESULT:      -5.9      1.418      2.724
REMARK  Name = 
REMARK  8 active torsions:
REMARK  status: ('A' for Active; 'I' for Inactive)
REMARK    1  A    between atoms: C_1  and  C_2
REMARK    2  A    between atoms: C_2  and  C_3
REMARK    3  A    between atoms: C_2  and  C_4
REMARK    4  A    between atoms: C_4  and  C_5
REMARK    5  A    between atoms: C_5  and  N_6
REMARK    6  A    between atoms: N_6  and  C_7
REMARK    7  A    between atoms: N_11  and  C_12
REMARK    8  A    between atoms: N_15  and  C_16
REMARK                            x       y       z     vdW  Elec       q    Type
REMARK                         _______ _______ _______ _____ _____    ______ ____
ROOT
ATOM      1  C   UNL     1       5.271   3.773  17.421  0.00  0.00    +0.000 A 
ATOM      2  C   UNL     1       5.554   4.115  18.684  0.00  0.00    +0.000 A 
ATOM      3  C   UNL     1       6.480   5.205  19.004  0.00  0.00    +0.000 A 
ATOM      4  O   UNL     1       6.670   5.492  20.183  0.00  0.00    +0.000 OA
ATOM      5  N   UNL     1       7.066   5.830  17.931  0.00  0.00    +0.000 N 
ATOM      6  C   UNL     1       7.991   6.920  18.172  0.00  0.00    +0.000 C 
ATOM      7  C   UNL     1       6.820   5.490  16.610  0.00  0.00    +0.000 A 
ATOM      8  O   UNL     1       7.388   6.072  15.682  0.00  0.00    +0.000 OA
ATOM      9  N   UNL     1       5.894   4.466  16.392  0.00  0.00    +0.000 N 
ATOM     10  C   UNL     1       5.594   4.140  15.003  0.00  0.00    +0.000 C 
ENDROOT
BRANCH   1  11
ATOM     11  N   UNL     1       4.388   2.722  17.183  0.00  0.00    +0.000 N 
ATOM     12  H   UNL     1       3.842   2.866  16.339  0.00  0.00    +0.000 HD
BRANCH  11  13
ATOM     13  C   UNL     1       3.574   2.141  18.252  0.00  0.00    +0.000 C 
BRANCH  13  14
ATOM     14  C   UNL     1       2.081   2.324  17.961  0.00  0.00    +0.000 C 
BRANCH  14  16
ATOM     15  C   UNL     1       1.929   3.714  20.094  0.00  0.00    +0.000 C 
ATOM     16  C   UNL     1       1.429   3.533  18.661  0.00  0.00    +0.000 C 
ATOM     17  C   UNL     1       1.694   4.810  17.859  0.00  0.00    +0.000 C 
ENDBRANCH  14  16
ENDBRANCH  13  14
ENDBRANCH  11  13
ENDBRANCH   1  11
TORSDOF 4
ENDMDL
MODEL 9
REMARK VINA RESULT:      -5.9      2.571      5.562
REMARK  Name = 
REMARK  8 active torsions:
REMARK  status: ('A' for Active; 'I' for Inactive)
REMARK    1  A    between atoms: C_1  and  C_2
REMARK    2  A    between atoms: C_2  and  C_3
REMARK    3  A    between atoms: C_2  and  C_4
REMARK    4  A    between atoms: C_4  and  C_5
REMARK    5  A    between atoms: C_5  and  N_6
REMARK    6  A    between atoms: N_6  and  C_7
REMARK    7  A    between atoms: N_11  and  C_12
REMARK    8  A    between atoms: N_15  and  C_16
REMARK                            x       y       z     vdW  Elec       q    Type
REMARK                         _______ _______ _______ _____ _____    ______ ____
ROOT
ATOM      1  C   UNL     1       3.711   4.745  17.597  0.00  0.00    +0.000 A 
ATOM      2  C   UNL     1       3.885   3.419  17.638  0.00  0.00    +0.000 A 
ATOM      3  C   UNL     1       3.236   2.583  18.653  0.00  0.00    +0.000 A 
ATOM      4  O   UNL     1       3.408   1.367  18.614  0.00  0.00    +0.000 OA
ATOM      5  N   UNL     1       2.468   3.247  19.578  0.00  0.00    +0.000 N 
ATOM      6  C   UNL     1       1.794   2.482  20.609  0.00  0.00    +0.000 C 
ATOM      7  C   UNL     1       2.284   4.620  19.585  0.00  0.00    +0.000 A 
ATOM      8  O   UNL     1       1.598   5.169  20.452  0.00  0.00    +0.000 OA
ATOM      9  N   UNL     1       2.906   5.339  18.560  0.00  0.00    +0.000 N 
ATOM     10  C   UNL     1       2.672   6.778  18.535  0.00  0.00    +0.000 C 
ENDROOT
BRANCH   1  11
ATOM     11  N   UNL     1       4.363   5.486  16.613  0.00  0.00    +0.000 N 
ATOM     12  H   UNL     1       4.019   5.269  15.683  0.00  0.00    +0.000 HD
BRANCH  11  13
ATOM     13  C   UNL     1       5.815   5.663  16.616  0.00  0.00    +0.000 C 
BRANCH  13  14
ATOM     14  C   UNL     1       6.198   7.016  17.224  0.00  0.00    +0.000 C 
BRANCH  14  16
ATOM     15  C   UNL     1       8.091   8.590  17.892  0.00  0.00    +0.000 C 
ATOM     16  C   UNL     1       7.675   7.139  17.650  0.00  0.00    +0.000 C 
ATOM     17  C   UNL     1       7.927   6.314  18.916  0.00  0.00    +0.000 C 
ENDBRANCH  14  16
ENDBRANCH  13  14
ENDBRANCH  11  13
ENDBRANCH   1  11
TORSDOF 4
ENDMDL
