MODEL 1
REMARK VINA RESULT:      -9.0      0.000      0.000
REMARK  Name = 
REMARK  1 active torsions:
REMARK  status: ('A' for Active; 'I' for Inactive)
REMARK    1  A    between atoms: C_1  and  N_2
REMARK                            x       y       z     vdW  Elec       q    Type
REMARK                         _______ _______ _______ _____ _____    ______ ____
ROOT
ATOM      1  C   UNL     1       6.963   4.870  16.353  0.00  0.00    +0.000 C 
ATOM      2  N   UNL     1       6.179   5.561  17.386  0.00  0.00    +0.000 NA
ATOM      3  C   UNL     1       5.779   4.506  18.339  0.00  0.00    +0.000 C 
ATOM      4  C   UNL     1       4.746   5.063  19.269  0.00  0.00    +0.000 C 
ATOM      5  N   UNL     1       3.586   5.187  18.417  0.00  0.00    +0.000 N 
ATOM      6  C   UNL     1       2.479   4.482  18.740  0.00  0.00    +0.000 A 
ATOM      7  N   UNL     1       2.197   3.409  17.985  0.00  0.00    +0.000 NA
ATOM      8  C   UNL     1       1.335   2.522  18.496  0.00  0.00    +0.000 A 
ATOM      9  C   UNL     1       0.758   2.660  19.745  0.00  0.00    +0.000 A 
ATOM     10  C   UNL     1       1.004   3.825  20.467  0.00  0.00    +0.000 A 
ATOM     11  C   UNL     1       1.851   4.789  19.933  0.00  0.00    +0.000 A 
ATOM     12  C   UNL     1       2.234   6.078  20.612  0.00  0.00    +0.000 C 
ATOM     13  C   UNL     1       2.155   7.328  19.714  0.00  0.00    +0.000 A 
ATOM     14  C   UNL     1       1.371   8.363  20.287  0.00  0.00    +0.000 A 
ATOM     15  C   UNL     1       0.991   9.474  19.554  0.00  0.00    +0.000 A 
ATOM     16  C   UNL     1       1.439   9.595  18.246  0.00  0.00    +0.000 A 
ATOM     17  C   UNL     1       2.328   8.641  17.685  0.00  0.00    +0.000 A 
ATOM     18  C   UNL     1       2.747   7.497  18.396  0.00  0.00    +0.000 A 
ATOM     19  C   UNL     1       3.506   6.360  17.600  0.00  0.00    +0.000 C 
ATOM     20  C   UNL     1       4.993   6.398  16.861  0.00  0.00    +0.000 C 
ENDROOT
TORSDOF 0
ENDMDL
MODEL 2
REMARK VINA RESULT:      -8.2      1.375      4.323
REMARK  Name = 
REMARK  1 active torsions:
REMARK  status: ('A' for Active; 'I' for Inactive)
REMARK    1  A    between atoms: C_1  and  N_2
REMARK                            x       y       z     vdW  Elec       q    Type
REMARK                         _______ _______ _______ _____ _____    ______ ____
ROOT
ATOM      1  C   UNL     1       2.367   2.046  21.523  0.00  0.00    +0.000 C 
ATOM      2  N   UNL     1       2.161   3.082  20.502  0.00  0.00    +0.000 NA
ATOM      3  C   UNL     1       3.216   2.849  19.495  0.00  0.00    +0.000 C 
ATOM      4  C   UNL     1       3.262   4.022  18.564  0.00  0.00    +0.000 C 
ATOM      5  N   UNL     1       3.828   5.062  19.392  0.00  0.00    +0.000 N 
ATOM      6  C   UNL     1       5.003   5.611  19.012  0.00  0.00    +0.000 A 
ATOM      7  N   UNL     1       6.094   5.264  19.713  0.00  0.00    +0.000 NA
ATOM      8  C   UNL     1       7.280   5.508  19.143  0.00  0.00    +0.000 A 
ATOM      9  C   UNL     1       7.414   6.072  17.888  0.00  0.00    +0.000 A 
ATOM     10  C   UNL     1       6.268   6.499  17.223  0.00  0.00    +0.000 A 
ATOM     11  C   UNL     1       5.027   6.308  17.819  0.00  0.00    +0.000 A 
ATOM     12  C   UNL     1       3.704   6.687  17.206  0.00  0.00    +0.000 C 
ATOM     13  C   UNL     1       2.742   7.428  18.155  0.00  0.00    +0.000 A 
ATOM     14  C   UNL     1       2.269   8.649  17.608  0.00  0.00    +0.000 A 
ATOM     15  C   UNL     1       1.579   9.569  18.379  0.00  0.00    +0.000 A 
ATOM     16  C   UNL     1       1.300   9.255  19.701  0.00  0.00    +0.000 A 
ATOM     17  C   UNL     1       1.647   7.989  20.241  0.00  0.00    +0.000 A 
ATOM     18  C   UNL     1       2.345   7.019  19.493  0.00  0.00    +0.000 A 
ATOM     19  C   UNL     1       2.928   5.762  20.257  0.00  0.00    +0.000 C 
ATOM     20  C   UNL     1       2.127   4.531  21.034  0.00  0.00    +0.000 C 
ENDROOT
TORSDOF 0
ENDMDL
MODEL 3
REMARK VINA RESULT:      -6.4      5.900      8.673
REMARK  Name = 
REMARK  1 active torsions:
REMARK  status: ('A' for Active; 'I' for Inactive)
REMARK    1  A    between atoms: C_1  and  N_2
REMARK                            x       y       z     vdW  Elec       q    Type
REMARK                         _______ _______ _______ _____ _____    ______ ____
ROOT
ATOM      1  C   UNL     1      -2.682  10.200  15.459  0.00  0.00    +0.000 C 
ATOM      2  N   UNL     1      -2.664  10.194  16.928  0.00  0.00    +0.000 NA
ATOM      3  C   UNL     1      -3.142  11.533  17.327  0.00  0.00    +0.000 C 
ATOM      4  C   UNL     1      -2.892  11.718  18.792  0.00  0.00    +0.000 C 
ATOM      5  N   UNL     1      -1.455  11.856  18.853  0.00  0.00    +0.000 N 
ATOM      6  C   UNL     1      -0.945  13.010  19.338  0.00  0.00    +0.000 A 
ATOM      7  N   UNL     1      -0.406  13.860  18.449  0.00  0.00    +0.000 NA
ATOM      8  C   UNL     1      -0.229  15.123  18.854  0.00  0.00    +0.000 A 
ATOM      9  C   UNL     1      -0.588  15.572  20.112  0.00  0.00    +0.000 A 
ATOM     10  C   UNL     1      -1.064  14.648  21.038  0.00  0.00    +0.000 A 
ATOM     11  C   UNL     1      -1.204  13.318  20.660  0.00  0.00    +0.000 A 
ATOM     12  C   UNL     1      -1.736  12.218  21.542  0.00  0.00    +0.000 C 
ATOM     13  C   UNL     1      -0.907  10.920  21.524  0.00  0.00    +0.000 A 
ATOM     14  C   UNL     1      -0.538  10.490  22.826  0.00  0.00    +0.000 A 
ATOM     15  C   UNL     1       0.388   9.480  23.019  0.00  0.00    +0.000 A 
ATOM     16  C   UNL     1       0.921   8.842  21.909  0.00  0.00    +0.000 A 
ATOM     17  C   UNL     1       0.478   9.161  20.598  0.00  0.00    +0.000 A 
ATOM     18  C   UNL     1      -0.467  10.177  20.352  0.00  0.00    +0.000 A 
ATOM     19  C   UNL     1      -0.689  10.647  18.858  0.00  0.00    +0.000 C 
ATOM     20  C   UNL     1      -1.312   9.808  17.567  0.00  0.00    +0.000 C 
ENDROOT
TORSDOF 0
ENDMDL
MODEL 4
REMARK VINA RESULT:      -6.4      6.764      9.151
REMARK  Name = 
REMARK  1 active torsions:
REMARK  status: ('A' for Active; 'I' for Inactive)
REMARK    1  A    between atoms: C_1  and  N_2
REMARK                            x       y       z     vdW  Elec       q    Type
REMARK                         _______ _______ _______ _____ _____    ______ ____
ROOT
ATOM      1  C   UNL     1      -3.197  13.162  23.803  0.00  0.00    +0.000 C 
ATOM      2  N   UNL     1      -2.900  12.207  22.726  0.00  0.00    +0.000 NA
ATOM      3  C   UNL     1      -1.433  12.037  22.753  0.00  0.00    +0.000 C 
ATOM      4  C   UNL     1      -1.011  11.303  21.517  0.00  0.00    +0.000 C 
ATOM      5  N   UNL     1      -1.204  12.291  20.481  0.00  0.00    +0.000 N 
ATOM      6  C   UNL     1      -0.126  12.684  19.765  0.00  0.00    +0.000 A 
ATOM      7  N   UNL     1       0.369  13.904  20.027  0.00  0.00    +0.000 NA
ATOM      8  C   UNL     1       1.611  14.154  19.598  0.00  0.00    +0.000 A 
ATOM      9  C   UNL     1       2.384  13.222  18.930  0.00  0.00    +0.000 A 
ATOM     10  C   UNL     1       1.812  11.998  18.598  0.00  0.00    +0.000 A 
ATOM     11  C   UNL     1       0.503  11.733  18.983  0.00  0.00    +0.000 A 
ATOM     12  C   UNL     1      -0.233  10.444  18.724  0.00  0.00    +0.000 C 
ATOM     13  C   UNL     1      -1.664  10.617  18.179  0.00  0.00    +0.000 A 
ATOM     14  C   UNL     1      -1.887   9.879  16.987  0.00  0.00    +0.000 A 
ATOM     15  C   UNL     1      -3.022  10.070  16.219  0.00  0.00    +0.000 A 
ATOM     16  C   UNL     1      -3.985  10.965  16.663  0.00  0.00    +0.000 A 
ATOM     17  C   UNL     1      -3.851  11.623  17.914  0.00  0.00    +0.000 A 
ATOM     18  C   UNL     1      -2.716  11.456  18.733  0.00  0.00    +0.000 A 
ATOM     19  C   UNL     1      -2.530  12.434  19.962  0.00  0.00    +0.000 C 
ATOM     20  C   UNL     1      -3.450  12.592  21.336  0.00  0.00    +0.000 C 
ENDROOT
TORSDOF 0
ENDMDL
MODEL 5
REMARK VINA RESULT:      -6.4      5.384      8.205
REMARK  Name = 
REMARK  1 active torsions:
REMARK  status: ('A' for Active; 'I' for Inactive)
REMARK    1  A    between atoms: C_1  and  N_2
REMARK                            x       y       z     vdW  Elec       q    Type
REMARK                         _______ _______ _______ _____ _____    ______ ____
ROOT
ATOM      1  C   UNL     1      -0.618  16.027  20.649  0.00  0.00    +0.000 C 
ATOM      2  N   UNL     1       0.033  14.752  20.316  0.00  0.00    +0.000 NA
ATOM      3  C   UNL     1      -0.360  14.470  18.920  0.00  0.00    +0.000 C 
ATOM      4  C   UNL     1       0.023  13.060  18.587  0.00  0.00    +0.000 C 
ATOM      5  N   UNL     1      -0.925  12.285  19.354  0.00  0.00    +0.000 N 
ATOM      6  C   UNL     1      -1.769  11.468  18.686  0.00  0.00    +0.000 A 
ATOM      7  N   UNL     1      -3.050  11.859  18.590  0.00  0.00    +0.000 NA
ATOM      8  C   UNL     1      -3.794  11.259  17.654  0.00  0.00    +0.000 A 
ATOM      9  C   UNL     1      -3.300  10.293  16.797  0.00  0.00    +0.000 A 
ATOM     10  C   UNL     1      -1.993   9.849  16.978  0.00  0.00    +0.000 A 
ATOM     11  C   UNL     1      -1.216  10.416  17.981  0.00  0.00    +0.000 A 
ATOM     12  C   UNL     1       0.219  10.059  18.270  0.00  0.00    +0.000 C 
ATOM     13  C   UNL     1       0.540   9.836  19.761  0.00  0.00    +0.000 A 
ATOM     14  C   UNL     1       1.174   8.589  20.001  0.00  0.00    +0.000 A 
ATOM     15  C   UNL     1       1.343   8.099  21.285  0.00  0.00    +0.000 A 
ATOM     16  C   UNL     1       0.930   8.877  22.356  0.00  0.00    +0.000 A 
ATOM     17  C   UNL     1       0.409  10.183  22.155  0.00  0.00    +0.000 A 
ATOM     18  C   UNL     1       0.224  10.726  20.867  0.00  0.00    +0.000 A 
ATOM     19  C   UNL     1      -0.613  12.062  20.733  0.00  0.00    +0.000 C 
ATOM     20  C   UNL     1      -0.265  13.589  21.286  0.00  0.00    +0.000 C 
ENDROOT
TORSDOF 0
ENDMDL
MODEL 6
REMARK VINA RESULT:      -6.1      6.905      9.909
REMARK  Name = 
REMARK  1 active torsions:
REMARK  status: ('A' for Active; 'I' for Inactive)
REMARK    1  A    between atoms: C_1  and  N_2
REMARK                            x       y       z     vdW  Elec       q    Type
REMARK                         _______ _______ _______ _____ _____    ______ ____
ROOT
ATOM      1  C   UNL     1      -4.081  15.980  23.118  0.00  0.00    +0.000 C 
ATOM      2  N   UNL     1      -2.940  15.189  22.638  0.00  0.00    +0.000 NA
ATOM      3  C   UNL     1      -2.979  15.304  21.166  0.00  0.00    +0.000 C 
ATOM      4  C   UNL     1      -2.029  14.307  20.578  0.00  0.00    +0.000 C 
ATOM      5  N   UNL     1      -2.697  13.050  20.823  0.00  0.00    +0.000 N 
ATOM      6  C   UNL     1      -3.043  12.294  19.757  0.00  0.00    +0.000 A 
ATOM      7  N   UNL     1      -4.345  12.256  19.432  0.00  0.00    +0.000 NA
ATOM      8  C   UNL     1      -4.647  11.817  18.205  0.00  0.00    +0.000 A 
ATOM      9  C   UNL     1      -3.692  11.430  17.283  0.00  0.00    +0.000 A 
ATOM     10  C   UNL     1      -2.358  11.399  17.679  0.00  0.00    +0.000 A 
ATOM     11  C   UNL     1      -2.023  11.797  18.968  0.00  0.00    +0.000 A 
ATOM     12  C   UNL     1      -0.623  11.847  19.523  0.00  0.00    +0.000 C 
ATOM     13  C   UNL     1      -0.463  11.230  20.926  0.00  0.00    +0.000 A 
ATOM     14  C   UNL     1       0.568  10.256  20.980  0.00  0.00    +0.000 A 
ATOM     15  C   UNL     1       0.725   9.429  22.078  0.00  0.00    +0.000 A 
ATOM     16  C   UNL     1      -0.114   9.602  23.169  0.00  0.00    +0.000 A 
ATOM     17  C   UNL     1      -1.071  10.650  23.198  0.00  0.00    +0.000 A 
ATOM     18  C   UNL     1      -1.263  11.521  22.106  0.00  0.00    +0.000 A 
ATOM     19  C   UNL     1      -2.529  12.470  22.121  0.00  0.00    +0.000 C 
ATOM     20  C   UNL     1      -2.895  13.730  23.140  0.00  0.00    +0.000 C 
ENDROOT
TORSDOF 0
ENDMDL
