MODEL 1
REMARK VINA RESULT:      -7.8      0.000      0.000
REMARK  Name = 
REMARK  2 active torsions:
REMARK  status: ('A' for Active; 'I' for Inactive)
REMARK    1  A    between atoms: C_4  and  O_5
REMARK    2  A    between atoms: O_5  and  C_6
REMARK                            x       y       z     vdW  Elec       q    Type
REMARK                         _______ _______ _______ _____ _____    ______ ____
ROOT
ATOM      1  O   UNL     1       4.985   3.259  19.546  0.00  0.00    +0.000 OA
ATOM      2  C   UNL     1       4.610   4.166  18.824  0.00  0.00    +0.000 C 
ATOM      3  C   UNL     1       3.508   5.107  19.121  0.00  0.00    +0.000 A 
ATOM      4  C   UNL     1       2.672   5.205  20.227  0.00  0.00    +0.000 A 
ATOM      5  C   UNL     1       2.007   6.426  20.400  0.00  0.00    +0.000 A 
ATOM      6  C   UNL     1       2.034   7.419  19.406  0.00  0.00    +0.000 A 
ATOM      7  C   UNL     1       2.745   7.228  18.229  0.00  0.00    +0.000 A 
ATOM      8  C   UNL     1       3.531   6.093  18.129  0.00  0.00    +0.000 A 
ATOM      9  C   UNL     1       4.545   5.763  17.079  0.00  0.00    +0.000 C 
ATOM     10  C   UNL     1       5.502   6.945  16.775  0.00  0.00    +0.000 C 
ATOM     11  N   UNL     1       6.935   6.862  17.082  0.00  0.00    +0.000 NA
ATOM     12  C   UNL     1       7.441   5.553  17.515  0.00  0.00    +0.000 C 
ATOM     13  C   UNL     1       6.558   4.325  17.236  0.00  0.00    +0.000 C 
ATOM     14  N   UNL     1       5.189   4.591  17.632  0.00  0.00    +0.000 N 
ATOM     15  H   UNL     1       7.161   7.551  17.802  0.00  0.00    +0.000 HD
ENDROOT
BRANCH   4  16
ATOM     16  O   UNL     1       2.564   4.150  21.076  0.00  0.00    +0.000 OA
BRANCH  16  17
ATOM     17  C   UNL     1       1.538   3.188  20.828  0.00  0.00    +0.000 C 
ATOM     18  F   UNL     1       0.460   3.681  20.180  0.00  0.00    +0.000 F 
ATOM     19  F   UNL     1       2.038   2.190  20.063  0.00  0.00    +0.000 F 
ATOM     20  F   UNL     1       1.127   2.659  22.001  0.00  0.00    +0.000 F 
ENDBRANCH  16  17
ENDBRANCH   4  16
TORSDOF 2
ENDMDL
MODEL 2
REMARK VINA RESULT:      -7.4      3.345      5.153
REMARK  Name = 
REMARK  2 active torsions:
REMARK  status: ('A' for Active; 'I' for Inactive)
REMARK    1  A    between atoms: C_4  and  O_5
REMARK    2  A    between atoms: O_5  and  C_6
REMARK                            x       y       z     vdW  Elec       q    Type
REMARK                         _______ _______ _______ _____ _____    ______ ____
ROOT
ATOM      1  O   UNL     1       5.124   3.038  19.185  0.00  0.00    +0.000 OA
ATOM      2  C   UNL     1       4.349   3.919  19.518  0.00  0.00    +0.000 C 
ATOM      3  C   UNL     1       4.230   5.249  18.883  0.00  0.00    +0.000 A 
ATOM      4  C   UNL     1       4.915   5.808  17.811  0.00  0.00    +0.000 A 
ATOM      5  C   UNL     1       4.313   6.911  17.193  0.00  0.00    +0.000 A 
ATOM      6  C   UNL     1       3.184   7.534  17.751  0.00  0.00    +0.000 A 
ATOM      7  C   UNL     1       2.614   7.056  18.922  0.00  0.00    +0.000 A 
ATOM      8  C   UNL     1       3.109   5.872  19.442  0.00  0.00    +0.000 A 
ATOM      9  C   UNL     1       2.541   5.042  20.551  0.00  0.00    +0.000 C 
ATOM     10  C   UNL     1       1.014   4.812  20.407  0.00  0.00    +0.000 C 
ATOM     11  N   UNL     1       0.465   3.472  20.168  0.00  0.00    +0.000 NA
ATOM     12  C   UNL     1       1.409   2.349  20.253  0.00  0.00    +0.000 C 
ATOM     13  C   UNL     1       2.752   2.605  20.956  0.00  0.00    +0.000 C 
ATOM     14  N   UNL     1       3.342   3.839  20.476  0.00  0.00    +0.000 N 
ATOM     15  H   UNL     1       0.023   3.454  19.247  0.00  0.00    +0.000 HD
ENDROOT
BRANCH   4  16
ATOM     16  O   UNL     1       6.089   5.255  17.409  0.00  0.00    +0.000 OA
BRANCH  16  17
ATOM     17  C   UNL     1       7.289   5.676  18.059  0.00  0.00    +0.000 C 
ATOM     18  F   UNL     1       7.857   6.775  17.515  0.00  0.00    +0.000 F 
ATOM     19  F   UNL     1       7.019   5.967  19.352  0.00  0.00    +0.000 F 
ATOM     20  F   UNL     1       8.191   4.671  18.029  0.00  0.00    +0.000 F 
ENDBRANCH  16  17
ENDBRANCH   4  16
TORSDOF 2
ENDMDL
MODEL 3
REMARK VINA RESULT:      -7.4      3.199      5.022
REMARK  Name = 
REMARK  2 active torsions:
REMARK  status: ('A' for Active; 'I' for Inactive)
REMARK    1  A    between atoms: C_4  and  O_5
REMARK    2  A    between atoms: O_5  and  C_6
REMARK                            x       y       z     vdW  Elec       q    Type
REMARK                         _______ _______ _______ _____ _____    ______ ____
ROOT
ATOM      1  O   UNL     1       5.182   3.306  18.968  0.00  0.00    +0.000 OA
ATOM      2  C   UNL     1       4.373   4.118  19.383  0.00  0.00    +0.000 C 
ATOM      3  C   UNL     1       4.138   5.466  18.823  0.00  0.00    +0.000 A 
ATOM      4  C   UNL     1       4.730   6.119  17.749  0.00  0.00    +0.000 A 
ATOM      5  C   UNL     1       4.030   7.210  17.219  0.00  0.00    +0.000 A 
ATOM      6  C   UNL     1       2.894   7.730  17.862  0.00  0.00    +0.000 A 
ATOM      7  C   UNL     1       2.417   7.161  19.033  0.00  0.00    +0.000 A 
ATOM      8  C   UNL     1       3.011   5.987  19.467  0.00  0.00    +0.000 A 
ATOM      9  C   UNL     1       2.554   5.071  20.558  0.00  0.00    +0.000 C 
ATOM     10  C   UNL     1       1.039   4.749  20.477  0.00  0.00    +0.000 C 
ATOM     11  N   UNL     1       0.563   3.390  20.197  0.00  0.00    +0.000 NA
ATOM     12  C   UNL     1       1.577   2.327  20.178  0.00  0.00    +0.000 C 
ATOM     13  C   UNL     1       2.937   2.636  20.827  0.00  0.00    +0.000 C 
ATOM     14  N   UNL     1       3.424   3.927  20.383  0.00  0.00    +0.000 N 
ATOM     15  H   UNL     1       0.075   3.387  19.298  0.00  0.00    +0.000 HD
ENDROOT
BRANCH   4  16
ATOM     16  O   UNL     1       5.914   5.663  17.263  0.00  0.00    +0.000 OA
BRANCH  16  17
ATOM     17  C   UNL     1       5.900   4.909  16.050  0.00  0.00    +0.000 C 
ATOM     18  F   UNL     1       4.804   4.134  15.892  0.00  0.00    +0.000 F 
ATOM     19  F   UNL     1       5.941   5.757  14.996  0.00  0.00    +0.000 F 
ATOM     20  F   UNL     1       6.993   4.118  16.001  0.00  0.00    +0.000 F 
ENDBRANCH  16  17
ENDBRANCH   4  16
TORSDOF 2
ENDMDL
MODEL 4
REMARK VINA RESULT:      -7.4      1.243      1.698
REMARK  Name = 
REMARK  2 active torsions:
REMARK  status: ('A' for Active; 'I' for Inactive)
REMARK    1  A    between atoms: C_4  and  O_5
REMARK    2  A    between atoms: O_5  and  C_6
REMARK                            x       y       z     vdW  Elec       q    Type
REMARK                         _______ _______ _______ _____ _____    ______ ____
ROOT
ATOM      1  O   UNL     1       5.098   3.432  19.383  0.00  0.00    +0.000 OA
ATOM      2  C   UNL     1       5.073   4.391  18.631  0.00  0.00    +0.000 C 
ATOM      3  C   UNL     1       3.942   5.329  18.466  0.00  0.00    +0.000 A 
ATOM      4  C   UNL     1       2.698   5.369  19.085  0.00  0.00    +0.000 A 
ATOM      5  C   UNL     1       2.010   6.588  19.023  0.00  0.00    +0.000 A 
ATOM      6  C   UNL     1       2.465   7.643  18.215  0.00  0.00    +0.000 A 
ATOM      7  C   UNL     1       3.629   7.517  17.470  0.00  0.00    +0.000 A 
ATOM      8  C   UNL     1       4.393   6.378  17.657  0.00  0.00    +0.000 A 
ATOM      9  C   UNL     1       5.774   6.099  17.152  0.00  0.00    +0.000 C 
ATOM     10  C   UNL     1       6.749   7.282  17.387  0.00  0.00    +0.000 C 
ATOM     11  N   UNL     1       7.895   7.154  18.296  0.00  0.00    +0.000 NA
ATOM     12  C   UNL     1       8.172   5.810  18.823  0.00  0.00    +0.000 C 
ATOM     13  C   UNL     1       7.524   4.619  18.097  0.00  0.00    +0.000 C 
ATOM     14  N   UNL     1       6.119   4.882  17.855  0.00  0.00    +0.000 N 
ATOM     15  H   UNL     1       7.765   7.790  19.085  0.00  0.00    +0.000 HD
ENDROOT
BRANCH   4  16
ATOM     16  O   UNL     1       2.236   4.263  19.724  0.00  0.00    +0.000 OA
BRANCH  16  17
ATOM     17  C   UNL     1       1.503   3.302  18.963  0.00  0.00    +0.000 C 
ATOM     18  F   UNL     1       2.220   2.212  18.609  0.00  0.00    +0.000 F 
ATOM     19  F   UNL     1       0.450   2.865  19.691  0.00  0.00    +0.000 F 
ATOM     20  F   UNL     1       1.031   3.885  17.840  0.00  0.00    +0.000 F 
ENDBRANCH  16  17
ENDBRANCH   4  16
TORSDOF 2
ENDMDL
MODEL 5
REMARK VINA RESULT:      -7.4      1.275      1.533
REMARK  Name = 
REMARK  2 active torsions:
REMARK  status: ('A' for Active; 'I' for Inactive)
REMARK    1  A    between atoms: C_4  and  O_5
REMARK    2  A    between atoms: O_5  and  C_6
REMARK                            x       y       z     vdW  Elec       q    Type
REMARK                         _______ _______ _______ _____ _____    ______ ____
ROOT
ATOM      1  O   UNL     1       3.973   2.763  17.432  0.00  0.00    +0.000 OA
ATOM      2  C   UNL     1       4.083   3.954  17.200  0.00  0.00    +0.000 C 
ATOM      3  C   UNL     1       3.251   5.027  17.784  0.00  0.00    +0.000 A 
ATOM      4  C   UNL     1       2.202   4.969  18.694  0.00  0.00    +0.000 A 
ATOM      5  C   UNL     1       1.884   6.162  19.357  0.00  0.00    +0.000 A 
ATOM      6  C   UNL     1       2.463   7.384  18.977  0.00  0.00    +0.000 A 
ATOM      7  C   UNL     1       3.390   7.443  17.946  0.00  0.00    +0.000 A 
ATOM      8  C   UNL     1       3.824   6.246  17.402  0.00  0.00    +0.000 A 
ATOM      9  C   UNL     1       4.955   6.022  16.449  0.00  0.00    +0.000 C 
ATOM     10  C   UNL     1       6.249   6.767  16.867  0.00  0.00    +0.000 C 
ATOM     11  N   UNL     1       7.457   6.032  17.260  0.00  0.00    +0.000 NA
ATOM     12  C   UNL     1       7.437   4.576  17.063  0.00  0.00    +0.000 C 
ATOM     13  C   UNL     1       6.360   4.004  16.125  0.00  0.00    +0.000 C 
ATOM     14  N   UNL     1       5.066   4.579  16.437  0.00  0.00    +0.000 N 
ATOM     15  H   UNL     1       7.657   6.222  18.244  0.00  0.00    +0.000 HD
ENDROOT
BRANCH   4  16
ATOM     16  O   UNL     1       1.571   3.785  18.909  0.00  0.00    +0.000 OA
BRANCH  16  17
ATOM     17  C   UNL     1       1.804   3.113  20.147  0.00  0.00    +0.000 C 
ATOM     18  F   UNL     1       3.015   3.359  20.693  0.00  0.00    +0.000 F 
ATOM     19  F   UNL     1       0.875   3.506  21.050  0.00  0.00    +0.000 F 
ATOM     20  F   UNL     1       1.681   1.780  19.964  0.00  0.00    +0.000 F 
ENDBRANCH  16  17
ENDBRANCH   4  16
TORSDOF 2
ENDMDL
MODEL 6
REMARK VINA RESULT:      -7.3      3.927      5.825
REMARK  Name = 
REMARK  2 active torsions:
REMARK  status: ('A' for Active; 'I' for Inactive)
REMARK    1  A    between atoms: C_4  and  O_5
REMARK    2  A    between atoms: O_5  and  C_6
REMARK                            x       y       z     vdW  Elec       q    Type
REMARK                         _______ _______ _______ _____ _____    ______ ____
ROOT
ATOM      1  O   UNL     1       5.911   5.027  19.812  0.00  0.00    +0.000 OA
ATOM      2  C   UNL     1       5.210   4.804  18.839  0.00  0.00    +0.000 C 
ATOM      3  C   UNL     1       5.647   4.869  17.428  0.00  0.00    +0.000 A 
ATOM      4  C   UNL     1       6.885   5.173  16.874  0.00  0.00    +0.000 A 
ATOM      5  C   UNL     1       7.093   4.764  15.551  0.00  0.00    +0.000 A 
ATOM      6  C   UNL     1       6.042   4.253  14.771  0.00  0.00    +0.000 A 
ATOM      7  C   UNL     1       4.767   4.115  15.299  0.00  0.00    +0.000 A 
ATOM      8  C   UNL     1       4.599   4.365  16.650  0.00  0.00    +0.000 A 
ATOM      9  C   UNL     1       3.398   4.087  17.498  0.00  0.00    +0.000 C 
ATOM     10  C   UNL     1       2.825   2.662  17.278  0.00  0.00    +0.000 C 
ATOM     11  N   UNL     1       2.850   1.659  18.349  0.00  0.00    +0.000 NA
ATOM     12  C   UNL     1       3.272   2.122  19.677  0.00  0.00    +0.000 C 
ATOM     13  C   UNL     1       3.264   3.639  19.933  0.00  0.00    +0.000 C 
ATOM     14  N   UNL     1       3.899   4.337  18.833  0.00  0.00    +0.000 N 
ATOM     15  H   UNL     1       3.458   0.888  18.067  0.00  0.00    +0.000 HD
ENDROOT
BRANCH   4  16
ATOM     16  O   UNL     1       7.815   5.811  17.631  0.00  0.00    +0.000 OA
BRANCH  16  17
ATOM     17  C   UNL     1       7.746   7.234  17.726  0.00  0.00    +0.000 C 
ATOM     18  F   UNL     1       6.491   7.721  17.855  0.00  0.00    +0.000 F 
ATOM     19  F   UNL     1       8.443   7.644  18.811  0.00  0.00    +0.000 F 
ATOM     20  F   UNL     1       8.307   7.785  16.628  0.00  0.00    +0.000 F 
ENDBRANCH  16  17
ENDBRANCH   4  16
TORSDOF 2
ENDMDL
MODEL 7
REMARK VINA RESULT:      -7.3      3.528      5.146
REMARK  Name = 
REMARK  2 active torsions:
REMARK  status: ('A' for Active; 'I' for Inactive)
REMARK    1  A    between atoms: C_4  and  O_5
REMARK    2  A    between atoms: O_5  and  C_6
REMARK                            x       y       z     vdW  Elec       q    Type
REMARK                         _______ _______ _______ _____ _____    ______ ____
ROOT
ATOM      1  O   UNL     1       4.835   3.643  17.825  0.00  0.00    +0.000 OA
ATOM      2  C   UNL     1       4.143   4.260  18.617  0.00  0.00    +0.000 C 
ATOM      3  C   UNL     1       3.800   5.695  18.527  0.00  0.00    +0.000 A 
ATOM      4  C   UNL     1       4.143   6.654  17.581  0.00  0.00    +0.000 A 
ATOM      5  C   UNL     1       3.350   7.808  17.545  0.00  0.00    +0.000 A 
ATOM      6  C   UNL     1       2.389   8.064  18.538  0.00  0.00    +0.000 A 
ATOM      7  C   UNL     1       2.179   7.164  19.573  0.00  0.00    +0.000 A 
ATOM      8  C   UNL     1       2.847   5.952  19.519  0.00  0.00    +0.000 A 
ATOM      9  C   UNL     1       2.637   4.744  20.376  0.00  0.00    +0.000 C 
ATOM     10  C   UNL     1       1.140   4.373  20.534  0.00  0.00    +0.000 C 
ATOM     11  N   UNL     1       0.604   3.120  19.988  0.00  0.00    +0.000 NA
ATOM     12  C   UNL     1       1.582   2.164  19.451  0.00  0.00    +0.000 C 
ATOM     13  C   UNL     1       3.054   2.356  19.854  0.00  0.00    +0.000 C 
ATOM     14  N   UNL     1       3.438   3.746  19.701  0.00  0.00    +0.000 N 
ATOM     15  H   UNL     1      -0.070   3.340  19.253  0.00  0.00    +0.000 HD
ENDROOT
BRANCH   4  16
ATOM     16  O   UNL     1       5.187   6.419  16.743  0.00  0.00    +0.000 OA
BRANCH  16  17
ATOM     17  C   UNL     1       6.505   6.712  17.210  0.00  0.00    +0.000 C 
ATOM     18  F   UNL     1       6.771   6.242  18.449  0.00  0.00    +0.000 F 
ATOM     19  F   UNL     1       7.409   6.155  16.371  0.00  0.00    +0.000 F 
ATOM     20  F   UNL     1       6.693   8.049  17.211  0.00  0.00    +0.000 F 
ENDBRANCH  16  17
ENDBRANCH   4  16
TORSDOF 2
ENDMDL
MODEL 8
REMARK VINA RESULT:      -7.1      1.328      1.686
REMARK  Name = 
REMARK  2 active torsions:
REMARK  status: ('A' for Active; 'I' for Inactive)
REMARK    1  A    between atoms: C_4  and  O_5
REMARK    2  A    between atoms: O_5  and  C_6
REMARK                            x       y       z     vdW  Elec       q    Type
REMARK                         _______ _______ _______ _____ _____    ______ ____
ROOT
ATOM      1  O   UNL     1       4.331   2.619  17.735  0.00  0.00    +0.000 OA
ATOM      2  C   UNL     1       4.255   3.796  17.426  0.00  0.00    +0.000 C 
ATOM      3  C   UNL     1       3.433   4.816  18.112  0.00  0.00    +0.000 A 
ATOM      4  C   UNL     1       2.595   4.715  19.216  0.00  0.00    +0.000 A 
ATOM      5  C   UNL     1       2.275   5.912  19.869  0.00  0.00    +0.000 A 
ATOM      6  C   UNL     1       2.623   7.158  19.320  0.00  0.00    +0.000 A 
ATOM      7  C   UNL     1       3.319   7.238  18.122  0.00  0.00    +0.000 A 
ATOM      8  C   UNL     1       3.775   6.057  17.562  0.00  0.00    +0.000 A 
ATOM      9  C   UNL     1       4.718   5.884  16.414  0.00  0.00    +0.000 C 
ATOM     10  C   UNL     1       5.973   6.787  16.525  0.00  0.00    +0.000 C 
ATOM     11  N   UNL     1       7.311   6.212  16.703  0.00  0.00    +0.000 NA
ATOM     12  C   UNL     1       7.422   4.752  16.587  0.00  0.00    +0.000 C 
ATOM     13  C   UNL     1       6.258   4.005  15.915  0.00  0.00    +0.000 C 
ATOM     14  N   UNL     1       4.991   4.463  16.452  0.00  0.00    +0.000 N 
ATOM     15  H   UNL     1       7.675   6.493  17.616  0.00  0.00    +0.000 HD
ENDROOT
BRANCH   4  16
ATOM     16  O   UNL     1       2.160   3.490  19.612  0.00  0.00    +0.000 OA
BRANCH  16  17
ATOM     17  C   UNL     1       1.063   2.905  18.910  0.00  0.00    +0.000 C 
ATOM     18  F   UNL     1       1.332   1.695  18.371  0.00  0.00    +0.000 F 
ATOM     19  F   UNL     1       0.025   2.737  19.763  0.00  0.00    +0.000 F 
ATOM     20  F   UNL     1       0.669   3.735  17.921  0.00  0.00    +0.000 F 
ENDBRANCH  16  17
ENDBRANCH   4  16
TORSDOF 2
ENDMDL
MODEL 9
REMARK VINA RESULT:      -7.0      1.324      1.570
REMARK  Name = 
REMARK  2 active torsions:
REMARK  status: ('A' for Active; 'I' for Inactive)
REMARK    1  A    between atoms: C_4  and  O_5
REMARK    2  A    between atoms: O_5  and  C_6
REMARK                            x       y       z     vdW  Elec       q    Type
REMARK                         _______ _______ _______ _____ _____    ______ ____
ROOT
ATOM      1  O   UNL     1       4.548   3.170  18.082  0.00  0.00    +0.000 OA
ATOM      2  C   UNL     1       4.662   4.306  17.656  0.00  0.00    +0.000 C 
ATOM      3  C   UNL     1       3.636   5.367  17.740  0.00  0.00    +0.000 A 
ATOM      4  C   UNL     1       2.361   5.355  18.294  0.00  0.00    +0.000 A 
ATOM      5  C   UNL     1       1.792   6.603  18.577  0.00  0.00    +0.000 A 
ATOM      6  C   UNL     1       2.395   7.795  18.144  0.00  0.00    +0.000 A 
ATOM      7  C   UNL     1       3.592   7.773  17.442  0.00  0.00    +0.000 A 
ATOM      8  C   UNL     1       4.235   6.554  17.304  0.00  0.00    +0.000 A 
ATOM      9  C   UNL     1       5.616   6.292  16.792  0.00  0.00    +0.000 C 
ATOM     10  C   UNL     1       6.676   7.239  17.412  0.00  0.00    +0.000 C 
ATOM     11  N   UNL     1       7.740   6.724  18.282  0.00  0.00    +0.000 NA
ATOM     12  C   UNL     1       7.856   5.263  18.387  0.00  0.00    +0.000 C 
ATOM     13  C   UNL     1       7.155   4.418  17.311  0.00  0.00    +0.000 C 
ATOM     14  N   UNL     1       5.799   4.891  17.106  0.00  0.00    +0.000 N 
ATOM     15  H   UNL     1       7.614   7.107  19.222  0.00  0.00    +0.000 HD
ENDROOT
BRANCH   4  16
ATOM     16  O   UNL     1       1.757   4.165  18.549  0.00  0.00    +0.000 OA
BRANCH  16  17
ATOM     17  C   UNL     1       1.607   3.764  19.911  0.00  0.00    +0.000 C 
ATOM     18  F   UNL     1       1.533   2.426  20.091  0.00  0.00    +0.000 F 
ATOM     19  F   UNL     1       2.669   4.202  20.626  0.00  0.00    +0.000 F 
ATOM     20  F   UNL     1       0.490   4.325  20.424  0.00  0.00    +0.000 F 
ENDBRANCH  16  17
ENDBRANCH   4  16
TORSDOF 2
ENDMDL
