MODEL 1
REMARK VINA RESULT:      -8.2      0.000      0.000
REMARK  Name = 
REMARK  7 active torsions:
REMARK  status: ('A' for Active; 'I' for Inactive)
REMARK    1  A    between atoms: C_1  and  C_2
REMARK    2  A    between atoms: C_2  and  C_3
REMARK    3  A    between atoms: C_3  and  C_4
REMARK    4  A    between atoms: C_4  and  C_5
REMARK    5  A    between atoms: C_5  and  N_6
REMARK    6  A    between atoms: C_7  and  C_8
REMARK    7  A    between atoms: N_10  and  C_11
REMARK                            x       y       z     vdW  Elec       q    Type
REMARK                         _______ _______ _______ _____ _____    ______ ____
ROOT
ATOM      1  N   UNL     1       0.737   9.631  19.956  0.00  0.00    +0.000 N 
ATOM      2  C   UNL     1       1.232   8.428  20.454  0.00  0.00    +0.000 A 
ATOM      3  C   UNL     1       0.868   8.382  21.792  0.00  0.00    +0.000 A 
ATOM      4  C   UNL     1       0.175   9.574  22.124  0.00  0.00    +0.000 A 
ATOM      5  C   UNL     1      -0.385  10.073  23.308  0.00  0.00    +0.000 A 
ATOM      6  N   UNL     1      -0.993  11.283  23.331  0.00  0.00    +0.000 NA
ATOM      7  C   UNL     1      -1.045  12.000  22.189  0.00  0.00    +0.000 A 
ATOM      8  C   UNL     1      -0.524  11.596  20.970  0.00  0.00    +0.000 A 
ATOM      9  C   UNL     1       0.102  10.344  20.961  0.00  0.00    +0.000 A 
ENDROOT
BRANCH   2  10
ATOM     10  C   UNL     1       2.005   7.464  19.686  0.00  0.00    +0.000 C 
ATOM     11  O   UNL     1       2.735   7.793  18.757  0.00  0.00    +0.000 OA
ATOM     12  N   UNL     1       1.837   6.150  20.074  0.00  0.00    +0.000 N 
ATOM     13  H   UNL     1       1.216   5.966  20.849  0.00  0.00    +0.000 HD
BRANCH  12  14
ATOM     14  C   UNL     1       2.546   5.009  19.481  0.00  0.00    +0.000 C 
ATOM     15  C   UNL     1       2.193   3.701  20.229  0.00  0.00    +0.000 C 
ATOM     16  C   UNL     1       2.898   2.497  19.587  0.00  0.00    +0.000 C 
ATOM     17  C   UNL     1       2.441   2.365  18.126  0.00  0.00    +0.000 C 
ATOM     18  C   UNL     1       2.806   3.638  17.346  0.00  0.00    +0.000 C 
ATOM     19  C   UNL     1       4.328   3.839  17.392  0.00  0.00    +0.000 C 
ATOM     20  C   UNL     1       4.791   3.994  18.849  0.00  0.00    +0.000 C 
ATOM     21  C   UNL     1       4.419   2.725  19.633  0.00  0.00    +0.000 C 
ATOM     22  C   UNL     1       4.085   5.207  19.483  0.00  0.00    +0.000 C 
ATOM     23  C   UNL     1       2.110   4.848  17.997  0.00  0.00    +0.000 C 
ENDBRANCH  12  14
ENDBRANCH   2  10
BRANCH   1  24
ATOM     24  C   UNL     1       0.861  10.084  18.573  0.00  0.00    +0.000 C 
BRANCH  24  25
ATOM     25  C   UNL     1      -0.281   9.598  17.678  0.00  0.00    +0.000 C 
BRANCH  25  26
ATOM     26  C   UNL     1      -1.476  10.551  17.718  0.00  0.00    +0.000 C 
BRANCH  26  28
ATOM     27  C   UNL     1      -3.978  10.695  17.405  0.00  0.00    +0.000 C 
ATOM     28  C   UNL     1      -2.790   9.774  17.634  0.00  0.00    +0.000 C 
ENDBRANCH  26  28
ENDBRANCH  25  26
ENDBRANCH  24  25
ENDBRANCH   1  24
TORSDOF 6
ENDMDL
MODEL 2
REMARK VINA RESULT:      -8.1      0.230      1.489
REMARK  Name = 
REMARK  7 active torsions:
REMARK  status: ('A' for Active; 'I' for Inactive)
REMARK    1  A    between atoms: C_1  and  C_2
REMARK    2  A    between atoms: C_2  and  C_3
REMARK    3  A    between atoms: C_3  and  C_4
REMARK    4  A    between atoms: C_4  and  C_5
REMARK    5  A    between atoms: C_5  and  N_6
REMARK    6  A    between atoms: C_7  and  C_8
REMARK    7  A    between atoms: N_10  and  C_11
REMARK                            x       y       z     vdW  Elec       q    Type
REMARK                         _______ _______ _______ _____ _____    ______ ____
ROOT
ATOM      1  N   UNL     1       0.788   9.531  19.943  0.00  0.00    +0.000 N 
ATOM      2  C   UNL     1       1.264   8.318  20.434  0.00  0.00    +0.000 A 
ATOM      3  C   UNL     1       0.894   8.269  21.771  0.00  0.00    +0.000 A 
ATOM      4  C   UNL     1       0.216   9.468  22.108  0.00  0.00    +0.000 A 
ATOM      5  C   UNL     1      -0.341   9.968  23.292  0.00  0.00    +0.000 A 
ATOM      6  N   UNL     1      -0.932  11.186  23.320  0.00  0.00    +0.000 NA
ATOM      7  C   UNL     1      -0.969  11.912  22.183  0.00  0.00    +0.000 A 
ATOM      8  C   UNL     1      -0.448  11.507  20.963  0.00  0.00    +0.000 A 
ATOM      9  C   UNL     1       0.160  10.246  20.950  0.00  0.00    +0.000 A 
ENDROOT
BRANCH   2  10
ATOM     10  C   UNL     1       2.026   7.347  19.664  0.00  0.00    +0.000 C 
ATOM     11  O   UNL     1       2.794   7.674  18.766  0.00  0.00    +0.000 OA
ATOM     12  N   UNL     1       1.802   6.031  20.012  0.00  0.00    +0.000 N 
ATOM     13  H   UNL     1       1.152   5.848  20.764  0.00  0.00    +0.000 HD
BRANCH  12  14
ATOM     14  C   UNL     1       2.489   4.881  19.409  0.00  0.00    +0.000 C 
ATOM     15  C   UNL     1       2.139   4.766  17.905  0.00  0.00    +0.000 C 
ATOM     16  C   UNL     1       2.888   3.592  17.259  0.00  0.00    +0.000 C 
ATOM     17  C   UNL     1       4.401   3.823  17.394  0.00  0.00    +0.000 C 
ATOM     18  C   UNL     1       4.787   3.911  18.879  0.00  0.00    +0.000 C 
ATOM     19  C   UNL     1       4.404   2.598  19.577  0.00  0.00    +0.000 C 
ATOM     20  C   UNL     1       2.889   2.370  19.467  0.00  0.00    +0.000 C 
ATOM     21  C   UNL     1       2.499   2.291  17.981  0.00  0.00    +0.000 C 
ATOM     22  C   UNL     1       2.145   3.548  20.124  0.00  0.00    +0.000 C 
ATOM     23  C   UNL     1       4.026   5.080  19.532  0.00  0.00    +0.000 C 
ENDBRANCH  12  14
ENDBRANCH   2  10
BRANCH   1  24
ATOM     24  C   UNL     1       0.925   9.990  18.562  0.00  0.00    +0.000 C 
BRANCH  24  25
ATOM     25  C   UNL     1      -0.232   9.546  17.666  0.00  0.00    +0.000 C 
BRANCH  25  26
ATOM     26  C   UNL     1      -1.400  10.533  17.718  0.00  0.00    +0.000 C 
BRANCH  26  28
ATOM     27  C   UNL     1      -3.605  10.547  16.489  0.00  0.00    +0.000 C 
ATOM     28  C   UNL     1      -2.728   9.811  17.489  0.00  0.00    +0.000 C 
ENDBRANCH  26  28
ENDBRANCH  25  26
ENDBRANCH  24  25
ENDBRANCH   1  24
TORSDOF 6
ENDMDL
MODEL 3
REMARK VINA RESULT:      -7.9      0.411      1.522
REMARK  Name = 
REMARK  7 active torsions:
REMARK  status: ('A' for Active; 'I' for Inactive)
REMARK    1  A    between atoms: C_1  and  C_2
REMARK    2  A    between atoms: C_2  and  C_3
REMARK    3  A    between atoms: C_3  and  C_4
REMARK    4  A    between atoms: C_4  and  C_5
REMARK    5  A    between atoms: C_5  and  N_6
REMARK    6  A    between atoms: C_7  and  C_8
REMARK    7  A    between atoms: N_10  and  C_11
REMARK                            x       y       z     vdW  Elec       q    Type
REMARK                         _______ _______ _______ _____ _____    ______ ____
ROOT
ATOM      1  N   UNL     1       1.070   9.673  19.965  0.00  0.00    +0.000 N 
ATOM      2  C   UNL     1       1.346   8.368  20.368  0.00  0.00    +0.000 A 
ATOM      3  C   UNL     1       0.834   8.242  21.651  0.00  0.00    +0.000 A 
ATOM      4  C   UNL     1       0.270   9.481  22.049  0.00  0.00    +0.000 A 
ATOM      5  C   UNL     1      -0.347   9.934  23.222  0.00  0.00    +0.000 A 
ATOM      6  N   UNL     1      -0.792  11.209  23.324  0.00  0.00    +0.000 NA
ATOM      7  C   UNL     1      -0.624  12.037  22.271  0.00  0.00    +0.000 A 
ATOM      8  C   UNL     1      -0.028  11.685  21.070  0.00  0.00    +0.000 A 
ATOM      9  C   UNL     1       0.427  10.364  20.979  0.00  0.00    +0.000 A 
ENDROOT
BRANCH   2  10
ATOM     10  C   UNL     1       2.067   7.386  19.574  0.00  0.00    +0.000 C 
ATOM     11  O   UNL     1       2.762   7.696  18.612  0.00  0.00    +0.000 OA
ATOM     12  N   UNL     1       1.891   6.077  19.977  0.00  0.00    +0.000 N 
ATOM     13  H   UNL     1       1.301   5.909  20.780  0.00  0.00    +0.000 HD
BRANCH  12  14
ATOM     14  C   UNL     1       2.553   4.920  19.361  0.00  0.00    +0.000 C 
ATOM     15  C   UNL     1       4.092   5.066  19.444  0.00  0.00    +0.000 C 
ATOM     16  C   UNL     1       4.790   3.839  18.840  0.00  0.00    +0.000 C 
ATOM     17  C   UNL     1       4.373   2.584  19.623  0.00  0.00    +0.000 C 
ATOM     18  C   UNL     1       2.850   2.393  19.534  0.00  0.00    +0.000 C 
ATOM     19  C   UNL     1       2.448   2.236  18.059  0.00  0.00    +0.000 C 
ATOM     20  C   UNL     1       2.841   3.496  17.274  0.00  0.00    +0.000 C 
ATOM     21  C   UNL     1       4.363   3.694  17.369  0.00  0.00    +0.000 C 
ATOM     22  C   UNL     1       2.131   4.720  17.881  0.00  0.00    +0.000 C 
ATOM     23  C   UNL     1       2.149   3.629  20.128  0.00  0.00    +0.000 C 
ENDBRANCH  12  14
ENDBRANCH   2  10
BRANCH   1  24
ATOM     24  C   UNL     1       1.405  10.238  18.660  0.00  0.00    +0.000 C 
BRANCH  24  25
ATOM     25  C   UNL     1       0.187  10.790  17.917  0.00  0.00    +0.000 C 
BRANCH  25  26
ATOM     26  C   UNL     1      -0.893   9.723  17.729  0.00  0.00    +0.000 C 
BRANCH  26  28
ATOM     27  C   UNL     1      -3.412   9.696  17.554  0.00  0.00    +0.000 C 
ATOM     28  C   UNL     1      -2.123  10.314  17.038  0.00  0.00    +0.000 C 
ENDBRANCH  26  28
ENDBRANCH  25  26
ENDBRANCH  24  25
ENDBRANCH   1  24
TORSDOF 6
ENDMDL
MODEL 4
REMARK VINA RESULT:      -7.8      1.108      1.509
REMARK  Name = 
REMARK  7 active torsions:
REMARK  status: ('A' for Active; 'I' for Inactive)
REMARK    1  A    between atoms: C_1  and  C_2
REMARK    2  A    between atoms: C_2  and  C_3
REMARK    3  A    between atoms: C_3  and  C_4
REMARK    4  A    between atoms: C_4  and  C_5
REMARK    5  A    between atoms: C_5  and  N_6
REMARK    6  A    between atoms: C_7  and  C_8
REMARK    7  A    between atoms: N_10  and  C_11
REMARK                            x       y       z     vdW  Elec       q    Type
REMARK                         _______ _______ _______ _____ _____    ______ ____
ROOT
ATOM      1  N   UNL     1       0.425   9.823  19.695  0.00  0.00    +0.000 N 
ATOM      2  C   UNL     1       1.191   8.699  19.995  0.00  0.00    +0.000 A 
ATOM      3  C   UNL     1       1.053   8.489  21.360  0.00  0.00    +0.000 A 
ATOM      4  C   UNL     1       0.226   9.505  21.903  0.00  0.00    +0.000 A 
ATOM      5  C   UNL     1      -0.219   9.805  23.198  0.00  0.00    +0.000 A 
ATOM      6  N   UNL     1      -1.015  10.877  23.426  0.00  0.00    +0.000 NA
ATOM      7  C   UNL     1      -1.366  11.654  22.380  0.00  0.00    +0.000 A 
ATOM      8  C   UNL     1      -0.980  11.442  21.066  0.00  0.00    +0.000 A 
ATOM      9  C   UNL     1      -0.157  10.331  20.845  0.00  0.00    +0.000 A 
ENDROOT
BRANCH   2  10
ATOM     10  C   UNL     1       1.988   7.953  19.035  0.00  0.00    +0.000 C 
ATOM     11  O   UNL     1       2.095   8.291  17.861  0.00  0.00    +0.000 OA
ATOM     12  N   UNL     1       2.598   6.825  19.545  0.00  0.00    +0.000 N 
ATOM     13  H   UNL     1       2.458   6.618  20.524  0.00  0.00    +0.000 HD
BRANCH  12  14
ATOM     14  C   UNL     1       3.489   5.941  18.780  0.00  0.00    +0.000 C 
ATOM     15  C   UNL     1       4.290   5.021  19.733  0.00  0.00    +0.000 C 
ATOM     16  C   UNL     1       5.192   4.066  18.938  0.00  0.00    +0.000 C 
ATOM     17  C   UNL     1       4.319   3.188  18.028  0.00  0.00    +0.000 C 
ATOM     18  C   UNL     1       3.532   4.071  17.047  0.00  0.00    +0.000 C 
ATOM     19  C   UNL     1       4.520   4.877  16.190  0.00  0.00    +0.000 C 
ATOM     20  C   UNL     1       5.382   5.774  17.091  0.00  0.00    +0.000 C 
ATOM     21  C   UNL     1       6.164   4.892  18.079  0.00  0.00    +0.000 C 
ATOM     22  C   UNL     1       4.471   6.734  17.878  0.00  0.00    +0.000 C 
ATOM     23  C   UNL     1       2.637   5.040  17.844  0.00  0.00    +0.000 C 
ENDBRANCH  12  14
ENDBRANCH   2  10
BRANCH   1  24
ATOM     24  C   UNL     1       0.253  10.391  18.360  0.00  0.00    +0.000 C 
BRANCH  24  25
ATOM     25  C   UNL     1      -1.083  10.015  17.717  0.00  0.00    +0.000 C 
BRANCH  25  26
ATOM     26  C   UNL     1      -1.978  11.239  17.515  0.00  0.00    +0.000 C 
BRANCH  26  28
ATOM     27  C   UNL     1      -2.840  10.049  15.461  0.00  0.00    +0.000 C 
ATOM     28  C   UNL     1      -3.208  10.879  16.680  0.00  0.00    +0.000 C 
ENDBRANCH  26  28
ENDBRANCH  25  26
ENDBRANCH  24  25
ENDBRANCH   1  24
TORSDOF 6
ENDMDL
MODEL 5
REMARK VINA RESULT:      -7.8      1.026      2.006
REMARK  Name = 
REMARK  7 active torsions:
REMARK  status: ('A' for Active; 'I' for Inactive)
REMARK    1  A    between atoms: C_1  and  C_2
REMARK    2  A    between atoms: C_2  and  C_3
REMARK    3  A    between atoms: C_3  and  C_4
REMARK    4  A    between atoms: C_4  and  C_5
REMARK    5  A    between atoms: C_5  and  N_6
REMARK    6  A    between atoms: C_7  and  C_8
REMARK    7  A    between atoms: N_10  and  C_11
REMARK                            x       y       z     vdW  Elec       q    Type
REMARK                         _______ _______ _______ _____ _____    ______ ____
ROOT
ATOM      1  N   UNL     1       0.412   9.814  19.672  0.00  0.00    +0.000 N 
ATOM      2  C   UNL     1       1.203   8.730  20.046  0.00  0.00    +0.000 A 
ATOM      3  C   UNL     1       1.046   8.590  21.418  0.00  0.00    +0.000 A 
ATOM      4  C   UNL     1       0.181   9.609  21.891  0.00  0.00    +0.000 A 
ATOM      5  C   UNL     1      -0.297   9.964  23.159  0.00  0.00    +0.000 A 
ATOM      6  N   UNL     1      -1.126  11.023  23.316  0.00  0.00    +0.000 NA
ATOM      7  C   UNL     1      -1.480  11.733  22.224  0.00  0.00    +0.000 A 
ATOM      8  C   UNL     1      -1.064  11.462  20.930  0.00  0.00    +0.000 A 
ATOM      9  C   UNL     1      -0.206  10.365  20.783  0.00  0.00    +0.000 A 
ENDROOT
BRANCH   2  10
ATOM     10  C   UNL     1       2.039   7.957  19.142  0.00  0.00    +0.000 C 
ATOM     11  O   UNL     1       2.445   8.404  18.074  0.00  0.00    +0.000 OA
ATOM     12  N   UNL     1       2.322   6.676  19.570  0.00  0.00    +0.000 N 
ATOM     13  H   UNL     1       1.947   6.387  20.462  0.00  0.00    +0.000 HD
BRANCH  12  14
ATOM     14  C   UNL     1       3.183   5.727  18.851  0.00  0.00    +0.000 C 
ATOM     15  C   UNL     1       4.320   6.477  18.115  0.00  0.00    +0.000 C 
ATOM     16  C   UNL     1       5.249   5.488  17.396  0.00  0.00    +0.000 C 
ATOM     17  C   UNL     1       5.875   4.540  18.430  0.00  0.00    +0.000 C 
ATOM     18  C   UNL     1       4.771   3.757  19.158  0.00  0.00    +0.000 C 
ATOM     19  C   UNL     1       3.972   2.941  18.131  0.00  0.00    +0.000 C 
ATOM     20  C   UNL     1       3.323   3.883  17.106  0.00  0.00    +0.000 C 
ATOM     21  C   UNL     1       4.426   4.674  16.382  0.00  0.00    +0.000 C 
ATOM     22  C   UNL     1       2.388   4.866  17.834  0.00  0.00    +0.000 C 
ATOM     23  C   UNL     1       3.831   4.748  19.869  0.00  0.00    +0.000 C 
ENDBRANCH  12  14
ENDBRANCH   2  10
BRANCH   1  24
ATOM     24  C   UNL     1       0.249  10.304  18.306  0.00  0.00    +0.000 C 
BRANCH  24  25
ATOM     25  C   UNL     1      -0.816   9.539  17.518  0.00  0.00    +0.000 C 
BRANCH  25  26
ATOM     26  C   UNL     1      -2.193  10.193  17.644  0.00  0.00    +0.000 C 
BRANCH  26  28
ATOM     27  C   UNL     1      -2.986  10.133  15.247  0.00  0.00    +0.000 C 
ATOM     28  C   UNL     1      -2.519  11.013  16.395  0.00  0.00    +0.000 C 
ENDBRANCH  26  28
ENDBRANCH  25  26
ENDBRANCH  24  25
ENDBRANCH   1  24
TORSDOF 6
ENDMDL
MODEL 6
REMARK VINA RESULT:      -7.8      1.384      2.614
REMARK  Name = 
REMARK  7 active torsions:
REMARK  status: ('A' for Active; 'I' for Inactive)
REMARK    1  A    between atoms: C_1  and  C_2
REMARK    2  A    between atoms: C_2  and  C_3
REMARK    3  A    between atoms: C_3  and  C_4
REMARK    4  A    between atoms: C_4  and  C_5
REMARK    5  A    between atoms: C_5  and  N_6
REMARK    6  A    between atoms: C_7  and  C_8
REMARK    7  A    between atoms: N_10  and  C_11
REMARK                            x       y       z     vdW  Elec       q    Type
REMARK                         _______ _______ _______ _____ _____    ______ ____
ROOT
ATOM      1  N   UNL     1       0.862   9.594  19.868  0.00  0.00    +0.000 N 
ATOM      2  C   UNL     1       1.315   8.367  20.347  0.00  0.00    +0.000 A 
ATOM      3  C   UNL     1       0.917   8.298  21.675  0.00  0.00    +0.000 A 
ATOM      4  C   UNL     1       0.246   9.499  22.020  0.00  0.00    +0.000 A 
ATOM      5  C   UNL     1      -0.330   9.983  23.202  0.00  0.00    +0.000 A 
ATOM      6  N   UNL     1      -0.909  11.207  23.240  0.00  0.00    +0.000 NA
ATOM      7  C   UNL     1      -0.915  11.953  22.115  0.00  0.00    +0.000 A 
ATOM      8  C   UNL     1      -0.375  11.564  20.899  0.00  0.00    +0.000 A 
ATOM      9  C   UNL     1       0.221  10.298  20.875  0.00  0.00    +0.000 A 
ENDROOT
BRANCH   2  10
ATOM     10  C   UNL     1       2.083   7.403  19.575  0.00  0.00    +0.000 C 
ATOM     11  O   UNL     1       2.839   7.735  18.669  0.00  0.00    +0.000 OA
ATOM     12  N   UNL     1       1.877   6.085  19.931  0.00  0.00    +0.000 N 
ATOM     13  H   UNL     1       1.237   5.898  20.689  0.00  0.00    +0.000 HD
BRANCH  12  14
ATOM     14  C   UNL     1       2.574   4.941  19.327  0.00  0.00    +0.000 C 
ATOM     15  C   UNL     1       4.108   5.103  19.470  0.00  0.00    +0.000 C 
ATOM     16  C   UNL     1       4.841   3.890  18.878  0.00  0.00    +0.000 C 
ATOM     17  C   UNL     1       4.409   2.623  19.633  0.00  0.00    +0.000 C 
ATOM     18  C   UNL     1       2.893   2.416  19.486  0.00  0.00    +0.000 C 
ATOM     19  C   UNL     1       2.547   2.270  17.996  0.00  0.00    +0.000 C 
ATOM     20  C   UNL     1       2.955   3.543  17.238  0.00  0.00    +0.000 C 
ATOM     21  C   UNL     1       4.471   3.756  17.391  0.00  0.00    +0.000 C 
ATOM     22  C   UNL     1       2.210   4.753  17.832  0.00  0.00    +0.000 C 
ATOM     23  C   UNL     1       2.157   3.638  20.066  0.00  0.00    +0.000 C 
ENDBRANCH  12  14
ENDBRANCH   2  10
BRANCH   1  24
ATOM     24  C   UNL     1       1.032  10.076  18.499  0.00  0.00    +0.000 C 
BRANCH  24  25
ATOM     25  C   UNL     1       2.193  11.061  18.351  0.00  0.00    +0.000 C 
BRANCH  25  26
ATOM     26  C   UNL     1       1.699  12.500  18.198  0.00  0.00    +0.000 C 
BRANCH  26  28
ATOM     27  C   UNL     1       2.658  13.609  20.254  0.00  0.00    +0.000 C 
ATOM     28  C   UNL     1       2.733  13.488  18.741  0.00  0.00    +0.000 C 
ENDBRANCH  26  28
ENDBRANCH  25  26
ENDBRANCH  24  25
ENDBRANCH   1  24
TORSDOF 6
ENDMDL
MODEL 7
REMARK VINA RESULT:      -7.7      1.024      1.622
REMARK  Name = 
REMARK  7 active torsions:
REMARK  status: ('A' for Active; 'I' for Inactive)
REMARK    1  A    between atoms: C_1  and  C_2
REMARK    2  A    between atoms: C_2  and  C_3
REMARK    3  A    between atoms: C_3  and  C_4
REMARK    4  A    between atoms: C_4  and  C_5
REMARK    5  A    between atoms: C_5  and  N_6
REMARK    6  A    between atoms: C_7  and  C_8
REMARK    7  A    between atoms: N_10  and  C_11
REMARK                            x       y       z     vdW  Elec       q    Type
REMARK                         _______ _______ _______ _____ _____    ______ ____
ROOT
ATOM      1  N   UNL     1       0.525   9.800  19.740  0.00  0.00    +0.000 N 
ATOM      2  C   UNL     1       1.229   8.644  20.069  0.00  0.00    +0.000 A 
ATOM      3  C   UNL     1       1.045   8.451  21.431  0.00  0.00    +0.000 A 
ATOM      4  C   UNL     1       0.253   9.509  21.945  0.00  0.00    +0.000 A 
ATOM      5  C   UNL     1      -0.213   9.839  23.224  0.00  0.00    +0.000 A 
ATOM      6  N   UNL     1      -0.964  10.948  23.424  0.00  0.00    +0.000 NA
ATOM      7  C   UNL     1      -1.251  11.732  22.364  0.00  0.00    +0.000 A 
ATOM      8  C   UNL     1      -0.840  11.492  21.062  0.00  0.00    +0.000 A 
ATOM      9  C   UNL     1      -0.064  10.343  20.871  0.00  0.00    +0.000 A 
ENDROOT
BRANCH   2  10
ATOM     10  C   UNL     1       2.017   7.854  19.136  0.00  0.00    +0.000 C 
ATOM     11  O   UNL     1       2.203   8.198  17.973  0.00  0.00    +0.000 OA
ATOM     12  N   UNL     1       2.521   6.679  19.656  0.00  0.00    +0.000 N 
ATOM     13  H   UNL     1       2.320   6.471  20.624  0.00  0.00    +0.000 HD
BRANCH  12  14
ATOM     14  C   UNL     1       3.382   5.744  18.920  0.00  0.00    +0.000 C 
ATOM     15  C   UNL     1       2.557   4.954  17.875  0.00  0.00    +0.000 C 
ATOM     16  C   UNL     1       3.459   4.004  17.073  0.00  0.00    +0.000 C 
ATOM     17  C   UNL     1       4.527   4.827  16.335  0.00  0.00    +0.000 C 
ATOM     18  C   UNL     1       5.385   5.601  17.348  0.00  0.00    +0.000 C 
ATOM     19  C   UNL     1       6.068   4.603  18.296  0.00  0.00    +0.000 C 
ATOM     20  C   UNL     1       5.006   3.792  19.054  0.00  0.00    +0.000 C 
ATOM     21  C   UNL     1       4.141   3.023  18.041  0.00  0.00    +0.000 C 
ATOM     22  C   UNL     1       4.111   4.750  19.862  0.00  0.00    +0.000 C 
ATOM     23  C   UNL     1       4.479   6.543  18.163  0.00  0.00    +0.000 C 
ENDBRANCH  12  14
ENDBRANCH   2  10
BRANCH   1  24
ATOM     24  C   UNL     1       0.415  10.364  18.397  0.00  0.00    +0.000 C 
BRANCH  24  25
ATOM     25  C   UNL     1      -0.911  10.027  17.712  0.00  0.00    +0.000 C 
BRANCH  25  26
ATOM     26  C   UNL     1      -1.843  11.238  17.656  0.00  0.00    +0.000 C 
BRANCH  26  28
ATOM     27  C   UNL     1      -2.699   9.764  15.792  0.00  0.00    +0.000 C 
ATOM     28  C   UNL     1      -2.840  11.100  16.504  0.00  0.00    +0.000 C 
ENDBRANCH  26  28
ENDBRANCH  25  26
ENDBRANCH  24  25
ENDBRANCH   1  24
TORSDOF 6
ENDMDL
MODEL 8
REMARK VINA RESULT:      -7.7      4.941      8.566
REMARK  Name = 
REMARK  7 active torsions:
REMARK  status: ('A' for Active; 'I' for Inactive)
REMARK    1  A    between atoms: C_1  and  C_2
REMARK    2  A    between atoms: C_2  and  C_3
REMARK    3  A    between atoms: C_3  and  C_4
REMARK    4  A    between atoms: C_4  and  C_5
REMARK    5  A    between atoms: C_5  and  N_6
REMARK    6  A    between atoms: C_7  and  C_8
REMARK    7  A    between atoms: N_10  and  C_11
REMARK                            x       y       z     vdW  Elec       q    Type
REMARK                         _______ _______ _______ _____ _____    ______ ____
ROOT
ATOM      1  N   UNL     1       6.847   4.902  15.956  0.00  0.00    +0.000 N 
ATOM      2  C   UNL     1       5.718   4.147  16.265  0.00  0.00    +0.000 A 
ATOM      3  C   UNL     1       5.293   3.580  15.072  0.00  0.00    +0.000 A 
ATOM      4  C   UNL     1       6.144   4.013  14.024  0.00  0.00    +0.000 A 
ATOM      5  C   UNL     1       6.172   3.787  12.641  0.00  0.00    +0.000 A 
ATOM      6  N   UNL     1       7.124   4.357  11.865  0.00  0.00    +0.000 NA
ATOM      7  C   UNL     1       8.045   5.151  12.452  0.00  0.00    +0.000 A 
ATOM      8  C   UNL     1       8.103   5.435  13.807  0.00  0.00    +0.000 A 
ATOM      9  C   UNL     1       7.112   4.840  14.597  0.00  0.00    +0.000 A 
ENDROOT
BRANCH   2  10
ATOM     10  C   UNL     1       5.123   4.041  17.587  0.00  0.00    +0.000 C 
ATOM     11  O   UNL     1       5.795   4.022  18.614  0.00  0.00    +0.000 OA
ATOM     12  N   UNL     1       3.746   3.943  17.594  0.00  0.00    +0.000 N 
ATOM     13  H   UNL     1       3.270   3.965  16.704  0.00  0.00    +0.000 HD
BRANCH  12  14
ATOM     14  C   UNL     1       2.922   3.873  18.808  0.00  0.00    +0.000 C 
ATOM     15  C   UNL     1       1.469   3.472  18.456  0.00  0.00    +0.000 C 
ATOM     16  C   UNL     1       0.612   3.356  19.725  0.00  0.00    +0.000 C 
ATOM     17  C   UNL     1       1.211   2.276  20.641  0.00  0.00    +0.000 C 
ATOM     18  C   UNL     1       2.646   2.661  21.035  0.00  0.00    +0.000 C 
ATOM     19  C   UNL     1       2.622   4.007  21.775  0.00  0.00    +0.000 C 
ATOM     20  C   UNL     1       2.045   5.097  20.858  0.00  0.00    +0.000 C 
ATOM     21  C   UNL     1       0.612   4.710  20.456  0.00  0.00    +0.000 C 
ATOM     22  C   UNL     1       2.914   5.212  19.592  0.00  0.00    +0.000 C 
ATOM     23  C   UNL     1       3.503   2.791  19.761  0.00  0.00    +0.000 C 
ENDBRANCH  12  14
ENDBRANCH   2  10
BRANCH   1  24
ATOM     24  C   UNL     1       7.646   5.653  16.921  0.00  0.00    +0.000 C 
BRANCH  24  25
ATOM     25  C   UNL     1       7.157   7.090  17.115  0.00  0.00    +0.000 C 
BRANCH  25  26
ATOM     26  C   UNL     1       8.001   7.841  18.146  0.00  0.00    +0.000 C 
BRANCH  26  28
ATOM     27  C   UNL     1       9.003  10.079  18.749  0.00  0.00    +0.000 C 
ATOM     28  C   UNL     1       8.101   9.324  17.786  0.00  0.00    +0.000 C 
ENDBRANCH  26  28
ENDBRANCH  25  26
ENDBRANCH  24  25
ENDBRANCH   1  24
TORSDOF 6
ENDMDL
MODEL 9
REMARK VINA RESULT:      -7.6      1.357      2.664
REMARK  Name = 
REMARK  7 active torsions:
REMARK  status: ('A' for Active; 'I' for Inactive)
REMARK    1  A    between atoms: C_1  and  C_2
REMARK    2  A    between atoms: C_2  and  C_3
REMARK    3  A    between atoms: C_3  and  C_4
REMARK    4  A    between atoms: C_4  and  C_5
REMARK    5  A    between atoms: C_5  and  N_6
REMARK    6  A    between atoms: C_7  and  C_8
REMARK    7  A    between atoms: N_10  and  C_11
REMARK                            x       y       z     vdW  Elec       q    Type
REMARK                         _______ _______ _______ _____ _____    ______ ____
ROOT
ATOM      1  N   UNL     1       0.807   9.537  19.875  0.00  0.00    +0.000 N 
ATOM      2  C   UNL     1       1.280   8.326  20.376  0.00  0.00    +0.000 A 
ATOM      3  C   UNL     1       0.901   8.284  21.710  0.00  0.00    +0.000 A 
ATOM      4  C   UNL     1       0.222   9.485  22.037  0.00  0.00    +0.000 A 
ATOM      5  C   UNL     1      -0.343   9.990  23.215  0.00  0.00    +0.000 A 
ATOM      6  N   UNL     1      -0.934  11.208  23.234  0.00  0.00    +0.000 NA
ATOM      7  C   UNL     1      -0.965  11.928  22.092  0.00  0.00    +0.000 A 
ATOM      8  C   UNL     1      -0.437  11.518  20.878  0.00  0.00    +0.000 A 
ATOM      9  C   UNL     1       0.172  10.257  20.874  0.00  0.00    +0.000 A 
ENDROOT
BRANCH   2  10
ATOM     10  C   UNL     1       2.047   7.353  19.615  0.00  0.00    +0.000 C 
ATOM     11  O   UNL     1       2.816   7.675  18.715  0.00  0.00    +0.000 OA
ATOM     12  N   UNL     1       1.827   6.038  19.973  0.00  0.00    +0.000 N 
ATOM     13  H   UNL     1       1.177   5.860  20.725  0.00  0.00    +0.000 HD
BRANCH  12  14
ATOM     14  C   UNL     1       2.520   4.886  19.381  0.00  0.00    +0.000 C 
ATOM     15  C   UNL     1       2.174   4.758  17.878  0.00  0.00    +0.000 C 
ATOM     16  C   UNL     1       2.928   3.580  17.242  0.00  0.00    +0.000 C 
ATOM     17  C   UNL     1       4.440   3.819  17.379  0.00  0.00    +0.000 C 
ATOM     18  C   UNL     1       4.823   3.920  18.863  0.00  0.00    +0.000 C 
ATOM     19  C   UNL     1       4.443   2.611  19.572  0.00  0.00    +0.000 C 
ATOM     20  C   UNL     1       2.929   2.377  19.460  0.00  0.00    +0.000 C 
ATOM     21  C   UNL     1       2.542   2.284  17.975  0.00  0.00    +0.000 C 
ATOM     22  C   UNL     1       2.180   3.558  20.106  0.00  0.00    +0.000 C 
ATOM     23  C   UNL     1       4.056   5.092  19.505  0.00  0.00    +0.000 C 
ENDBRANCH  12  14
ENDBRANCH   2  10
BRANCH   1  24
ATOM     24  C   UNL     1       0.953   9.990  18.493  0.00  0.00    +0.000 C 
BRANCH  24  25
ATOM     25  C   UNL     1       2.137  10.938  18.295  0.00  0.00    +0.000 C 
BRANCH  25  26
ATOM     26  C   UNL     1       1.686  12.397  18.208  0.00  0.00    +0.000 C 
BRANCH  26  28
ATOM     27  C   UNL     1       3.450  14.198  18.348  0.00  0.00    +0.000 C 
ATOM     28  C   UNL     1       2.527  13.279  19.131  0.00  0.00    +0.000 C 
ENDBRANCH  26  28
ENDBRANCH  25  26
ENDBRANCH  24  25
ENDBRANCH   1  24
TORSDOF 6
ENDMDL
