MODEL 1
REMARK VINA RESULT:      -7.1      0.000      0.000
REMARK  Name = 
REMARK  6 active torsions:
REMARK  status: ('A' for Active; 'I' for Inactive)
REMARK    1  A    between atoms: C_1  and  O_2
REMARK    2  A    between atoms: O_2  and  C_3
REMARK    3  A    between atoms: C_7  and  C_8
REMARK    4  A    between atoms: C_8  and  N_9
REMARK    5  A    between atoms: C_15  and  C_17
REMARK    6  A    between atoms: C_21  and  C_22
REMARK                            x       y       z     vdW  Elec       q    Type
REMARK                         _______ _______ _______ _____ _____    ______ ____
ROOT
ATOM      1  N   UNL     1       0.378  10.688  20.907  0.00  0.00    +0.000 N 
ATOM      2  C   UNL     1      -1.036  10.845  20.685  0.00  0.00    +0.000 C 
ATOM      3  C   UNL     1      -1.119  12.031  19.710  0.00  0.00    +0.000 C 
ATOM      4  C   UNL     1      -2.388  12.870  19.913  0.00  0.00    +0.000 C 
ATOM      5  C   UNL     1      -3.657  12.142  19.481  0.00  0.00    +0.000 C 
ATOM      6  N   UNL     1      -3.563  11.621  18.116  0.00  0.00    +0.000 N 
ATOM      7  C   UNL     1      -4.535  11.737  17.105  0.00  0.00    +0.000 C 
ATOM      8  O   UNL     1      -4.295  11.352  15.960  0.00  0.00    +0.000 OA
ATOM      9  C   UNL     1      -2.365  10.830  17.826  0.00  0.00    +0.000 C 
ATOM     10  C   UNL     1      -1.086  11.567  18.234  0.00  0.00    +0.000 C 
ATOM     11  C   UNL     1       0.143  12.857  20.059  0.00  0.00    +0.000 C 
ATOM     12  C   UNL     1       1.070  11.872  20.719  0.00  0.00    +0.000 C 
ATOM     13  O   UNL     1       2.230  12.095  21.026  0.00  0.00    +0.000 OA
ENDROOT
BRANCH   7  14
ATOM     14  C   UNL     1      -5.832  12.348  17.401  0.00  0.00    +0.000 A 
ATOM     15  C   UNL     1      -6.375  13.626  17.061  0.00  0.00    +0.000 A 
ATOM     16  C   UNL     1      -7.655  13.666  17.556  0.00  0.00    +0.000 A 
ATOM     17  O   UNL     1      -7.916  12.547  18.269  0.00  0.00    +0.000 OA
ATOM     18  C   UNL     1      -6.800  11.769  18.217  0.00  0.00    +0.000 A 
ATOM     19  C   UNL     1      -6.857  10.522  19.014  0.00  0.00    +0.000 C 
ENDBRANCH   7  14
BRANCH   1  20
ATOM     20  C   UNL     1       0.980   9.472  21.422  0.00  0.00    +0.000 C 
BRANCH  20  25
ATOM     21  C   UNL     1       2.286   6.335  19.682  0.00  0.00    +0.000 A 
ATOM     22  C   UNL     1       2.439   6.806  18.375  0.00  0.00    +0.000 A 
ATOM     23  C   UNL     1       2.142   8.131  18.060  0.00  0.00    +0.000 A 
ATOM     24  C   UNL     1       1.693   8.997  19.055  0.00  0.00    +0.000 A 
ATOM     25  C   UNL     1       1.513   8.540  20.367  0.00  0.00    +0.000 A 
ATOM     26  C   UNL     1       1.811   7.200  20.671  0.00  0.00    +0.000 A 
BRANCH  21  28
ATOM     27  C   UNL     1       2.294   4.422  21.098  0.00  0.00    +0.000 C 
ATOM     28  O   UNL     1       2.635   5.024  19.857  0.00  0.00    +0.000 OA
ENDBRANCH  21  28
ENDBRANCH  20  25
ENDBRANCH   1  20
TORSDOF 4
ENDMDL
MODEL 2
REMARK VINA RESULT:      -7.0      2.927      8.530
REMARK  Name = 
REMARK  6 active torsions:
REMARK  status: ('A' for Active; 'I' for Inactive)
REMARK    1  A    between atoms: C_1  and  O_2
REMARK    2  A    between atoms: O_2  and  C_3
REMARK    3  A    between atoms: C_7  and  C_8
REMARK    4  A    between atoms: C_8  and  N_9
REMARK    5  A    between atoms: C_15  and  C_17
REMARK    6  A    between atoms: C_21  and  C_22
REMARK                            x       y       z     vdW  Elec       q    Type
REMARK                         _______ _______ _______ _____ _____    ______ ____
ROOT
ATOM      1  N   UNL     1      -0.843  12.017  19.086  0.00  0.00    +0.000 N 
ATOM      2  C   UNL     1      -0.340  10.795  18.514  0.00  0.00    +0.000 C 
ATOM      3  C   UNL     1       1.130  10.764  18.965  0.00  0.00    +0.000 C 
ATOM      4  C   UNL     1       2.044  10.082  17.939  0.00  0.00    +0.000 C 
ATOM      5  C   UNL     1       1.812   8.577  17.844  0.00  0.00    +0.000 C 
ATOM      6  N   UNL     1       1.877   7.921  19.150  0.00  0.00    +0.000 N 
ATOM      7  C   UNL     1       2.576   6.739  19.461  0.00  0.00    +0.000 C 
ATOM      8  O   UNL     1       2.646   6.342  20.625  0.00  0.00    +0.000 OA
ATOM      9  C   UNL     1       1.054   8.525  20.200  0.00  0.00    +0.000 C 
ATOM     10  C   UNL     1       1.302  10.031  20.317  0.00  0.00    +0.000 C 
ATOM     11  C   UNL     1       1.484  12.265  19.099  0.00  0.00    +0.000 C 
ATOM     12  C   UNL     1       0.158  12.953  19.281  0.00  0.00    +0.000 C 
ATOM     13  O   UNL     1       0.010  14.133  19.555  0.00  0.00    +0.000 OA
ENDROOT
BRANCH   7  14
ATOM     14  C   UNL     1       3.255   5.987  18.404  0.00  0.00    +0.000 A 
ATOM     15  C   UNL     1       4.452   6.258  17.671  0.00  0.00    +0.000 A 
ATOM     16  C   UNL     1       4.655   5.197  16.824  0.00  0.00    +0.000 A 
ATOM     17  O   UNL     1       3.619   4.332  16.900  0.00  0.00    +0.000 OA
ATOM     18  C   UNL     1       2.747   4.830  17.819  0.00  0.00    +0.000 A 
ATOM     19  C   UNL     1       1.493   4.060  17.990  0.00  0.00    +0.000 C 
ENDBRANCH   7  14
BRANCH   1  20
ATOM     20  C   UNL     1      -2.255  12.290  19.283  0.00  0.00    +0.000 C 
BRANCH  20  25
ATOM     21  C   UNL     1      -4.333  12.985  22.410  0.00  0.00    +0.000 A 
ATOM     22  C   UNL     1      -3.476  12.505  23.404  0.00  0.00    +0.000 A 
ATOM     23  C   UNL     1      -2.229  11.979  23.072  0.00  0.00    +0.000 A 
ATOM     24  C   UNL     1      -1.827  11.934  21.739  0.00  0.00    +0.000 A 
ATOM     25  C   UNL     1      -2.680  12.390  20.724  0.00  0.00    +0.000 A 
ATOM     26  C   UNL     1      -3.937  12.914  21.072  0.00  0.00    +0.000 A 
BRANCH  21  28
ATOM     27  C   UNL     1      -6.131  12.817  23.961  0.00  0.00    +0.000 C 
ATOM     28  O   UNL     1      -5.514  13.495  22.876  0.00  0.00    +0.000 OA
ENDBRANCH  21  28
ENDBRANCH  20  25
ENDBRANCH   1  20
TORSDOF 4
ENDMDL
MODEL 3
REMARK VINA RESULT:      -6.9      2.127      8.450
REMARK  Name = 
REMARK  6 active torsions:
REMARK  status: ('A' for Active; 'I' for Inactive)
REMARK    1  A    between atoms: C_1  and  O_2
REMARK    2  A    between atoms: O_2  and  C_3
REMARK    3  A    between atoms: C_7  and  C_8
REMARK    4  A    between atoms: C_8  and  N_9
REMARK    5  A    between atoms: C_15  and  C_17
REMARK    6  A    between atoms: C_21  and  C_22
REMARK                            x       y       z     vdW  Elec       q    Type
REMARK                         _______ _______ _______ _____ _____    ______ ____
ROOT
ATOM      1  N   UNL     1      -0.639  11.552  19.240  0.00  0.00    +0.000 N 
ATOM      2  C   UNL     1      -0.145  10.349  18.623  0.00  0.00    +0.000 C 
ATOM      3  C   UNL     1       1.339  10.320  19.024  0.00  0.00    +0.000 C 
ATOM      4  C   UNL     1       2.225   9.670  17.952  0.00  0.00    +0.000 C 
ATOM      5  C   UNL     1       2.002   8.166  17.829  0.00  0.00    +0.000 C 
ATOM      6  N   UNL     1       2.115   7.479  19.116  0.00  0.00    +0.000 N 
ATOM      7  C   UNL     1       2.834   6.297  19.376  0.00  0.00    +0.000 C 
ATOM      8  O   UNL     1       2.945   5.873  20.527  0.00  0.00    +0.000 OA
ATOM      9  C   UNL     1       1.323   8.051  20.207  0.00  0.00    +0.000 C 
ATOM     10  C   UNL     1       1.562   9.557  20.352  0.00  0.00    +0.000 C 
ATOM     11  C   UNL     1       1.686  11.820  19.183  0.00  0.00    +0.000 C 
ATOM     12  C   UNL     1       0.361  12.492  19.424  0.00  0.00    +0.000 C 
ATOM     13  O   UNL     1       0.212  13.663  19.732  0.00  0.00    +0.000 OA
ENDROOT
BRANCH   7  14
ATOM     14  C   UNL     1       3.483   5.577  18.279  0.00  0.00    +0.000 A 
ATOM     15  C   UNL     1       4.666   5.863  17.529  0.00  0.00    +0.000 A 
ATOM     16  C   UNL     1       4.842   4.830  16.643  0.00  0.00    +0.000 A 
ATOM     17  O   UNL     1       3.800   3.970  16.712  0.00  0.00    +0.000 OA
ATOM     18  C   UNL     1       2.953   4.444  17.667  0.00  0.00    +0.000 A 
ATOM     19  C   UNL     1       1.697   3.678  17.839  0.00  0.00    +0.000 C 
ENDBRANCH   7  14
BRANCH   1  20
ATOM     20  C   UNL     1      -2.045  11.807  19.490  0.00  0.00    +0.000 C 
BRANCH  20  25
ATOM     21  C   UNL     1      -3.250  11.066  15.943  0.00  0.00    +0.000 A 
ATOM     22  C   UNL     1      -4.635  11.106  16.124  0.00  0.00    +0.000 A 
ATOM     23  C   UNL     1      -5.178  11.390  17.377  0.00  0.00    +0.000 A 
ATOM     24  C   UNL     1      -4.336  11.640  18.458  0.00  0.00    +0.000 A 
ATOM     25  C   UNL     1      -2.944  11.584  18.302  0.00  0.00    +0.000 A 
ATOM     26  C   UNL     1      -2.409  11.293  17.036  0.00  0.00    +0.000 A 
BRANCH  21  28
ATOM     27  C   UNL     1      -3.730  10.025  13.857  0.00  0.00    +0.000 C 
ATOM     28  O   UNL     1      -2.852  10.801  14.661  0.00  0.00    +0.000 OA
ENDBRANCH  21  28
ENDBRANCH  20  25
ENDBRANCH   1  20
TORSDOF 4
ENDMDL
MODEL 4
REMARK VINA RESULT:      -6.9      3.591      8.531
REMARK  Name = 
REMARK  6 active torsions:
REMARK  status: ('A' for Active; 'I' for Inactive)
REMARK    1  A    between atoms: C_1  and  O_2
REMARK    2  A    between atoms: O_2  and  C_3
REMARK    3  A    between atoms: C_7  and  C_8
REMARK    4  A    between atoms: C_8  and  N_9
REMARK    5  A    between atoms: C_15  and  C_17
REMARK    6  A    between atoms: C_21  and  C_22
REMARK                            x       y       z     vdW  Elec       q    Type
REMARK                         _______ _______ _______ _____ _____    ______ ____
ROOT
ATOM      1  N   UNL     1       0.451  12.938  20.614  0.00  0.00    +0.000 N 
ATOM      2  C   UNL     1       1.006  11.644  20.916  0.00  0.00    +0.000 C 
ATOM      3  C   UNL     1       0.147  10.678  20.083  0.00  0.00    +0.000 C 
ATOM      4  C   UNL     1      -0.021   9.310  20.757  0.00  0.00    +0.000 C 
ATOM      5  C   UNL     1       1.269   8.495  20.777  0.00  0.00    +0.000 C 
ATOM      6  N   UNL     1       1.871   8.375  19.449  0.00  0.00    +0.000 N 
ATOM      7  C   UNL     1       2.367   7.199  18.856  0.00  0.00    +0.000 C 
ATOM      8  O   UNL     1       2.753   7.204  17.686  0.00  0.00    +0.000 OA
ATOM      9  C   UNL     1       2.044   9.634  18.721  0.00  0.00    +0.000 C 
ATOM     10  C   UNL     1       0.746  10.445  18.675  0.00  0.00    +0.000 C 
ATOM     11  C   UNL     1      -1.212  11.413  19.991  0.00  0.00    +0.000 C 
ATOM     12  C   UNL     1      -0.879  12.860  20.239  0.00  0.00    +0.000 C 
ATOM     13  O   UNL     1      -1.659  13.791  20.121  0.00  0.00    +0.000 OA
ENDROOT
BRANCH   7  14
ATOM     14  C   UNL     1       2.398   5.949  19.618  0.00  0.00    +0.000 A 
ATOM     15  C   UNL     1       1.419   5.327  20.453  0.00  0.00    +0.000 A 
ATOM     16  C   UNL     1       1.955   4.141  20.889  0.00  0.00    +0.000 A 
ATOM     17  O   UNL     1       3.236   4.025  20.472  0.00  0.00    +0.000 OA
ATOM     18  C   UNL     1       3.523   5.138  19.743  0.00  0.00    +0.000 A 
ATOM     19  C   UNL     1       4.919   5.240  19.260  0.00  0.00    +0.000 C 
ENDBRANCH   7  14
BRANCH   1  20
ATOM     20  C   UNL     1       1.158  14.186  20.833  0.00  0.00    +0.000 C 
BRANCH  20  25
ATOM     21  C   UNL     1       2.492  16.408  18.028  0.00  0.00    +0.000 A 
ATOM     22  C   UNL     1       3.486  15.584  17.494  0.00  0.00    +0.000 A 
ATOM     23  C   UNL     1       3.712  14.313  18.019  0.00  0.00    +0.000 A 
ATOM     24  C   UNL     1       2.940  13.855  19.084  0.00  0.00    +0.000 A 
ATOM     25  C   UNL     1       1.952  14.673  19.650  0.00  0.00    +0.000 A 
ATOM     26  C   UNL     1       1.737  15.954  19.113  0.00  0.00    +0.000 A 
BRANCH  21  28
ATOM     27  C   UNL     1       1.053  18.172  17.332  0.00  0.00    +0.000 C 
ATOM     28  O   UNL     1       2.360  17.618  17.404  0.00  0.00    +0.000 OA
ENDBRANCH  21  28
ENDBRANCH  20  25
ENDBRANCH   1  20
TORSDOF 4
ENDMDL
MODEL 5
REMARK VINA RESULT:      -6.7      3.384      8.286
REMARK  Name = 
REMARK  6 active torsions:
REMARK  status: ('A' for Active; 'I' for Inactive)
REMARK    1  A    between atoms: C_1  and  O_2
REMARK    2  A    between atoms: O_2  and  C_3
REMARK    3  A    between atoms: C_7  and  C_8
REMARK    4  A    between atoms: C_8  and  N_9
REMARK    5  A    between atoms: C_15  and  C_17
REMARK    6  A    between atoms: C_21  and  C_22
REMARK                            x       y       z     vdW  Elec       q    Type
REMARK                         _______ _______ _______ _____ _____    ______ ____
ROOT
ATOM      1  N   UNL     1       0.004  11.169  18.543  0.00  0.00    +0.000 N 
ATOM      2  C   UNL     1       0.247   9.793  18.191  0.00  0.00    +0.000 C 
ATOM      3  C   UNL     1       1.729   9.587  18.542  0.00  0.00    +0.000 C 
ATOM      4  C   UNL     1       2.418   8.578  17.613  0.00  0.00    +0.000 C 
ATOM      5  C   UNL     1       1.939   7.145  17.832  0.00  0.00    +0.000 C 
ATOM      6  N   UNL     1       2.026   6.739  19.235  0.00  0.00    +0.000 N 
ATOM      7  C   UNL     1       2.553   5.530  19.727  0.00  0.00    +0.000 C 
ATOM      8  O   UNL     1       2.671   5.347  20.939  0.00  0.00    +0.000 OA
ATOM      9  C   UNL     1       1.417   7.660  20.196  0.00  0.00    +0.000 C 
ATOM     10  C   UNL     1       1.913   9.095  19.999  0.00  0.00    +0.000 C 
ATOM     11  C   UNL     1       2.331  11.001  18.355  0.00  0.00    +0.000 C 
ATOM     12  C   UNL     1       1.157  11.933  18.484  0.00  0.00    +0.000 C 
ATOM     13  O   UNL     1       1.227  13.150  18.529  0.00  0.00    +0.000 OA
ENDROOT
BRANCH   7  14
ATOM     14  C   UNL     1       2.995   4.490  18.796  0.00  0.00    +0.000 A 
ATOM     15  C   UNL     1       4.141   4.408  17.945  0.00  0.00    +0.000 A 
ATOM     16  C   UNL     1       4.089   3.190  17.314  0.00  0.00    +0.000 A 
ATOM     17  O   UNL     1       2.942   2.548  17.629  0.00  0.00    +0.000 OA
ATOM     18  C   UNL     1       2.255   3.351  18.488  0.00  0.00    +0.000 A 
ATOM     19  C   UNL     1       0.919   2.856  18.891  0.00  0.00    +0.000 C 
ENDBRANCH   7  14
BRANCH   1  20
ATOM     20  C   UNL     1      -1.320  11.717  18.774  0.00  0.00    +0.000 C 
BRANCH  20  25
ATOM     21  C   UNL     1      -1.346  11.308  22.570  0.00  0.00    +0.000 A 
ATOM     22  C   UNL     1      -2.365  12.197  22.921  0.00  0.00    +0.000 A 
ATOM     23  C   UNL     1      -3.053  12.910  21.940  0.00  0.00    +0.000 A 
ATOM     24  C   UNL     1      -2.728  12.733  20.597  0.00  0.00    +0.000 A 
ATOM     25  C   UNL     1      -1.695  11.861  20.225  0.00  0.00    +0.000 A 
ATOM     26  C   UNL     1      -1.006  11.152  21.224  0.00  0.00    +0.000 A 
BRANCH  21  28
ATOM     27  C   UNL     1      -0.003   9.498  23.337  0.00  0.00    +0.000 C 
ATOM     28  O   UNL     1      -0.770  10.658  23.627  0.00  0.00    +0.000 OA
ENDBRANCH  21  28
ENDBRANCH  20  25
ENDBRANCH   1  20
TORSDOF 4
ENDMDL
MODEL 6
REMARK VINA RESULT:      -6.6      3.024      8.704
REMARK  Name = 
REMARK  6 active torsions:
REMARK  status: ('A' for Active; 'I' for Inactive)
REMARK    1  A    between atoms: C_1  and  O_2
REMARK    2  A    between atoms: O_2  and  C_3
REMARK    3  A    between atoms: C_7  and  C_8
REMARK    4  A    between atoms: C_8  and  N_9
REMARK    5  A    between atoms: C_15  and  C_17
REMARK    6  A    between atoms: C_21  and  C_22
REMARK                            x       y       z     vdW  Elec       q    Type
REMARK                         _______ _______ _______ _____ _____    ______ ____
ROOT
ATOM      1  N   UNL     1      -0.511  11.657  18.887  0.00  0.00    +0.000 N 
ATOM      2  C   UNL     1      -0.178  10.325  18.449  0.00  0.00    +0.000 C 
ATOM      3  C   UNL     1       1.317  10.198  18.787  0.00  0.00    +0.000 C 
ATOM      4  C   UNL     1       2.068   9.298  17.797  0.00  0.00    +0.000 C 
ATOM      5  C   UNL     1       1.687   7.825  17.926  0.00  0.00    +0.000 C 
ATOM      6  N   UNL     1       1.807   7.338  19.301  0.00  0.00    +0.000 N 
ATOM      7  C   UNL     1       2.416   6.139  19.716  0.00  0.00    +0.000 C 
ATOM      8  O   UNL     1       2.551   5.889  20.914  0.00  0.00    +0.000 OA
ATOM      9  C   UNL     1       1.141   8.155  20.317  0.00  0.00    +0.000 C 
ATOM     10  C   UNL     1       1.539   9.630  20.210  0.00  0.00    +0.000 C 
ATOM     11  C   UNL     1       1.821  11.658  18.689  0.00  0.00    +0.000 C 
ATOM     12  C   UNL     1       0.588  12.499  18.876  0.00  0.00    +0.000 C 
ATOM     13  O   UNL     1       0.576  13.713  18.997  0.00  0.00    +0.000 OA
ENDROOT
BRANCH   7  14
ATOM     14  C   UNL     1       2.924   5.191  18.721  0.00  0.00    +0.000 A 
ATOM     15  C   UNL     1       2.247   4.295  17.839  0.00  0.00    +0.000 A 
ATOM     16  C   UNL     1       3.208   3.667  17.086  0.00  0.00    +0.000 A 
ATOM     17  O   UNL     1       4.441   4.029  17.504  0.00  0.00    +0.000 OA
ATOM     18  C   UNL     1       4.274   4.915  18.525  0.00  0.00    +0.000 A 
ATOM     19  C   UNL     1       5.521   5.374  19.180  0.00  0.00    +0.000 C 
ENDBRANCH   7  14
BRANCH   1  20
ATOM     20  C   UNL     1      -1.867  12.099  19.151  0.00  0.00    +0.000 C 
BRANCH  20  25
ATOM     21  C   UNL     1      -3.719  12.960  22.378  0.00  0.00    +0.000 A 
ATOM     22  C   UNL     1      -2.873  12.378  23.326  0.00  0.00    +0.000 A 
ATOM     23  C   UNL     1      -1.704  11.730  22.932  0.00  0.00    +0.000 A 
ATOM     24  C   UNL     1      -1.370  11.663  21.581  0.00  0.00    +0.000 A 
ATOM     25  C   UNL     1      -2.214  12.221  20.611  0.00  0.00    +0.000 A 
ATOM     26  C   UNL     1      -3.393  12.868  21.022  0.00  0.00    +0.000 A 
BRANCH  21  28
ATOM     27  C   UNL     1      -5.531  12.893  23.919  0.00  0.00    +0.000 C 
ATOM     28  O   UNL     1      -4.817  13.583  22.903  0.00  0.00    +0.000 OA
ENDBRANCH  21  28
ENDBRANCH  20  25
ENDBRANCH   1  20
TORSDOF 4
ENDMDL
MODEL 7
REMARK VINA RESULT:      -6.6      3.346      8.526
REMARK  Name = 
REMARK  6 active torsions:
REMARK  status: ('A' for Active; 'I' for Inactive)
REMARK    1  A    between atoms: C_1  and  O_2
REMARK    2  A    between atoms: O_2  and  C_3
REMARK    3  A    between atoms: C_7  and  C_8
REMARK    4  A    between atoms: C_8  and  N_9
REMARK    5  A    between atoms: C_15  and  C_17
REMARK    6  A    between atoms: C_21  and  C_22
REMARK                            x       y       z     vdW  Elec       q    Type
REMARK                         _______ _______ _______ _____ _____    ______ ____
ROOT
ATOM      1  N   UNL     1       0.132  10.955  18.441  0.00  0.00    +0.000 N 
ATOM      2  C   UNL     1       0.327   9.555  18.162  0.00  0.00    +0.000 C 
ATOM      3  C   UNL     1       1.788   9.306  18.570  0.00  0.00    +0.000 C 
ATOM      4  C   UNL     1       2.461   8.226  17.712  0.00  0.00    +0.000 C 
ATOM      5  C   UNL     1       1.916   6.826  17.982  0.00  0.00    +0.000 C 
ATOM      6  N   UNL     1       1.942   6.485  19.405  0.00  0.00    +0.000 N 
ATOM      7  C   UNL     1       2.403   5.280  19.969  0.00  0.00    +0.000 C 
ATOM      8  O   UNL     1       2.476   5.151  21.192  0.00  0.00    +0.000 OA
ATOM      9  C   UNL     1       1.344   7.476  20.301  0.00  0.00    +0.000 C 
ATOM     10  C   UNL     1       1.906   8.878  20.053  0.00  0.00    +0.000 C 
ATOM     11  C   UNL     1       2.455  10.683  18.336  0.00  0.00    +0.000 C 
ATOM     12  C   UNL     1       1.317  11.667  18.383  0.00  0.00    +0.000 C 
ATOM     13  O   UNL     1       1.438  12.882  18.373  0.00  0.00    +0.000 OA
ENDROOT
BRANCH   7  14
ATOM     14  C   UNL     1       2.829   4.179  19.103  0.00  0.00    +0.000 A 
ATOM     15  C   UNL     1       2.119   3.049  18.593  0.00  0.00    +0.000 A 
ATOM     16  C   UNL     1       2.989   2.353  17.792  0.00  0.00    +0.000 A 
ATOM     17  O   UNL     1       4.221   2.908  17.846  0.00  0.00    +0.000 OA
ATOM     18  C   UNL     1       4.139   3.985  18.674  0.00  0.00    +0.000 A 
ATOM     19  C   UNL     1       5.417   4.689  18.930  0.00  0.00    +0.000 C 
ENDBRANCH   7  14
BRANCH   1  20
ATOM     20  C   UNL     1      -1.173  11.567  18.602  0.00  0.00    +0.000 C 
BRANCH  20  25
ATOM     21  C   UNL     1      -1.302  11.351  22.412  0.00  0.00    +0.000 A 
ATOM     22  C   UNL     1      -2.362  12.219  22.687  0.00  0.00    +0.000 A 
ATOM     23  C   UNL     1      -3.045  12.855  21.651  0.00  0.00    +0.000 A 
ATOM     24  C   UNL     1      -2.672  12.622  20.329  0.00  0.00    +0.000 A 
ATOM     25  C   UNL     1      -1.598  11.771  20.032  0.00  0.00    +0.000 A 
ATOM     26  C   UNL     1      -0.915  11.140  21.086  0.00  0.00    +0.000 A 
BRANCH  21  28
ATOM     27  C   UNL     1      -0.081   9.530  23.339  0.00  0.00    +0.000 C 
ATOM     28  O   UNL     1      -0.737  10.778  23.518  0.00  0.00    +0.000 OA
ENDBRANCH  21  28
ENDBRANCH  20  25
ENDBRANCH   1  20
TORSDOF 4
ENDMDL
MODEL 8
REMARK VINA RESULT:      -6.5      2.895      9.293
REMARK  Name = 
REMARK  6 active torsions:
REMARK  status: ('A' for Active; 'I' for Inactive)
REMARK    1  A    between atoms: C_1  and  O_2
REMARK    2  A    between atoms: O_2  and  C_3
REMARK    3  A    between atoms: C_7  and  C_8
REMARK    4  A    between atoms: C_8  and  N_9
REMARK    5  A    between atoms: C_15  and  C_17
REMARK    6  A    between atoms: C_21  and  C_22
REMARK                            x       y       z     vdW  Elec       q    Type
REMARK                         _______ _______ _______ _____ _____    ______ ____
ROOT
ATOM      1  N   UNL     1      -0.470  10.008  18.744  0.00  0.00    +0.000 N 
ATOM      2  C   UNL     1       0.359   9.088  18.010  0.00  0.00    +0.000 C 
ATOM      3  C   UNL     1       1.767   9.341  18.574  0.00  0.00    +0.000 C 
ATOM      4  C   UNL     1       2.867   9.124  17.527  0.00  0.00    +0.000 C 
ATOM      5  C   UNL     1       3.044   7.656  17.146  0.00  0.00    +0.000 C 
ATOM      6  N   UNL     1       3.231   6.797  18.316  0.00  0.00    +0.000 N 
ATOM      7  C   UNL     1       4.204   5.792  18.472  0.00  0.00    +0.000 C 
ATOM      8  O   UNL     1       4.332   5.208  19.548  0.00  0.00    +0.000 OA
ATOM      9  C   UNL     1       2.238   6.959  19.380  0.00  0.00    +0.000 C 
ATOM     10  C   UNL     1       2.075   8.427  19.785  0.00  0.00    +0.000 C 
ATOM     11  C   UNL     1       1.707  10.827  19.003  0.00  0.00    +0.000 C 
ATOM     12  C   UNL     1       0.241  11.110  19.188  0.00  0.00    +0.000 C 
ATOM     13  O   UNL     1      -0.224  12.138  19.654  0.00  0.00    +0.000 OA
ENDROOT
BRANCH   7  14
ATOM     14  C   UNL     1       5.096   5.456  17.361  0.00  0.00    +0.000 A 
ATOM     15  C   UNL     1       5.115   4.341  16.467  0.00  0.00    +0.000 A 
ATOM     16  C   UNL     1       6.144   4.548  15.583  0.00  0.00    +0.000 A 
ATOM     17  O   UNL     1       6.835   5.660  15.922  0.00  0.00    +0.000 OA
ATOM     18  C   UNL     1       6.233   6.186  17.024  0.00  0.00    +0.000 A 
ATOM     19  C   UNL     1       6.897   7.376  17.604  0.00  0.00    +0.000 C 
ENDBRANCH   7  14
BRANCH   1  20
ATOM     20  C   UNL     1      -1.910   9.873  18.862  0.00  0.00    +0.000 C 
BRANCH  20  25
ATOM     21  C   UNL     1      -3.061  10.400  15.260  0.00  0.00    +0.000 A 
ATOM     22  C   UNL     1      -4.183  11.208  15.461  0.00  0.00    +0.000 A 
ATOM     23  C   UNL     1      -4.556  11.598  16.746  0.00  0.00    +0.000 A 
ATOM     24  C   UNL     1      -3.803  11.183  17.843  0.00  0.00    +0.000 A 
ATOM     25  C   UNL     1      -2.686  10.355  17.665  0.00  0.00    +0.000 A 
ATOM     26  C   UNL     1      -2.323   9.966  16.364  0.00  0.00    +0.000 A 
BRANCH  21  28
ATOM     27  C   UNL     1      -3.907   9.850  13.104  0.00  0.00    +0.000 C 
ATOM     28  O   UNL     1      -2.795  10.113  13.949  0.00  0.00    +0.000 OA
ENDBRANCH  21  28
ENDBRANCH  20  25
ENDBRANCH   1  20
TORSDOF 4
ENDMDL
MODEL 9
REMARK VINA RESULT:      -6.5      2.192      8.692
REMARK  Name = 
REMARK  6 active torsions:
REMARK  status: ('A' for Active; 'I' for Inactive)
REMARK    1  A    between atoms: C_1  and  O_2
REMARK    2  A    between atoms: O_2  and  C_3
REMARK    3  A    between atoms: C_7  and  C_8
REMARK    4  A    between atoms: C_8  and  N_9
REMARK    5  A    between atoms: C_15  and  C_17
REMARK    6  A    between atoms: C_21  and  C_22
REMARK                            x       y       z     vdW  Elec       q    Type
REMARK                         _______ _______ _______ _____ _____    ______ ____
ROOT
ATOM      1  N   UNL     1      -0.462  11.307  19.155  0.00  0.00    +0.000 N 
ATOM      2  C   UNL     1      -0.017  10.074  18.557  0.00  0.00    +0.000 C 
ATOM      3  C   UNL     1       1.488  10.043  18.871  0.00  0.00    +0.000 C 
ATOM      4  C   UNL     1       2.302   9.342  17.775  0.00  0.00    +0.000 C 
ATOM      5  C   UNL     1       2.057   7.837  17.724  0.00  0.00    +0.000 C 
ATOM      6  N   UNL     1       2.240   7.199  19.028  0.00  0.00    +0.000 N 
ATOM      7  C   UNL     1       2.961   6.019  19.291  0.00  0.00    +0.000 C 
ATOM      8  O   UNL     1       3.135   5.638  20.450  0.00  0.00    +0.000 OA
ATOM      9  C   UNL     1       1.519   7.822  20.140  0.00  0.00    +0.000 C 
ATOM     10  C   UNL     1       1.781   9.329  20.213  0.00  0.00    +0.000 C 
ATOM     11  C   UNL     1       1.858  11.544  18.950  0.00  0.00    +0.000 C 
ATOM     12  C   UNL     1       0.556  12.240  19.243  0.00  0.00    +0.000 C 
ATOM     13  O   UNL     1       0.438  13.425  19.513  0.00  0.00    +0.000 OA
ENDROOT
BRANCH   7  14
ATOM     14  C   UNL     1       3.537   5.249  18.187  0.00  0.00    +0.000 A 
ATOM     15  C   UNL     1       3.196   3.970  17.648  0.00  0.00    +0.000 A 
ATOM     16  C   UNL     1       4.035   3.744  16.585  0.00  0.00    +0.000 A 
ATOM     17  O   UNL     1       4.942   4.741  16.484  0.00  0.00    +0.000 OA
ATOM     18  C   UNL     1       4.674   5.630  17.480  0.00  0.00    +0.000 A 
ATOM     19  C   UNL     1       5.618   6.766  17.590  0.00  0.00    +0.000 C 
ENDBRANCH   7  14
BRANCH   1  20
ATOM     20  C   UNL     1      -1.848  11.588  19.477  0.00  0.00    +0.000 C 
BRANCH  20  25
ATOM     21  C   UNL     1      -3.217  11.055  15.952  0.00  0.00    +0.000 A 
ATOM     22  C   UNL     1      -4.590  11.180  16.184  0.00  0.00    +0.000 A 
ATOM     23  C   UNL     1      -5.071  11.454  17.464  0.00  0.00    +0.000 A 
ATOM     24  C   UNL     1      -4.178  11.609  18.522  0.00  0.00    +0.000 A 
ATOM     25  C   UNL     1      -2.799  11.467  18.315  0.00  0.00    +0.000 A 
ATOM     26  C   UNL     1      -2.327  11.187  17.021  0.00  0.00    +0.000 A 
BRANCH  21  28
ATOM     27  C   UNL     1      -3.809  10.069  13.869  0.00  0.00    +0.000 C 
ATOM     28  O   UNL     1      -2.882  10.810  14.649  0.00  0.00    +0.000 OA
ENDBRANCH  21  28
ENDBRANCH  20  25
ENDBRANCH   1  20
TORSDOF 4
ENDMDL
