MODEL 1
REMARK VINA RESULT:      -7.3      0.000      0.000
REMARK  Name = 
REMARK  6 active torsions:
REMARK  status: ('A' for Active; 'I' for Inactive)
REMARK    1  A    between atoms: C_1  and  O_2
REMARK    2  A    between atoms: O_2  and  C_3
REMARK    3  A    between atoms: C_6  and  C_7
REMARK    4  A    between atoms: N_8  and  N_9
REMARK    5  A    between atoms: C_10  and  C_12
REMARK    6  A    between atoms: C_17  and  O_18
REMARK                            x       y       z     vdW  Elec       q    Type
REMARK                         _______ _______ _______ _____ _____    ______ ____
ROOT
ATOM      1  N   UNL     1       7.978   8.157  17.797  0.00  0.00    +0.000 N 
ATOM      2  C   UNL     1       7.770   6.848  18.190  0.00  0.00    +0.000 C 
ATOM      3  O   UNL     1       8.123   6.326  19.238  0.00  0.00    +0.000 OA
ATOM      4  H   UNL     1       7.898   8.372  16.807  0.00  0.00    +0.000 HD
ENDROOT
BRANCH   2   5
ATOM      5  C   UNL     1       6.978   6.041  17.241  0.00  0.00    +0.000 A 
ATOM      6  C   UNL     1       5.944   6.711  16.579  0.00  0.00    +0.000 A 
ATOM      7  C   UNL     1       5.149   6.036  15.660  0.00  0.00    +0.000 A 
ATOM      8  C   UNL     1       5.379   4.685  15.407  0.00  0.00    +0.000 A 
ATOM      9  C   UNL     1       6.414   4.009  16.060  0.00  0.00    +0.000 A 
ATOM     10  C   UNL     1       7.220   4.689  16.971  0.00  0.00    +0.000 A 
BRANCH  10  11
ATOM     11  O   UNL     1       8.244   4.027  17.593  0.00  0.00    +0.000 OA
ATOM     12  H   UNL     1       7.869   3.393  18.229  0.00  0.00    +0.000 HD
ENDBRANCH  10  11
ENDBRANCH   2   5
BRANCH   1  14
ATOM     13  C   UNL     1       8.785  10.287  17.994  0.00  0.00    +0.000 C 
ATOM     14  N   UNL     1       8.579   9.131  18.535  0.00  0.00    +0.000 NA
BRANCH  13  18
ATOM     15  C   UNL     1      10.119  13.379  20.543  0.00  0.00    +0.000 A 
ATOM     16  C   UNL     1      10.252  12.047  20.932  0.00  0.00    +0.000 A 
ATOM     17  C   UNL     1       9.838  11.034  20.079  0.00  0.00    +0.000 A 
ATOM     18  C   UNL     1       9.339  11.356  18.820  0.00  0.00    +0.000 A 
ATOM     19  C   UNL     1       9.257  12.674  18.382  0.00  0.00    +0.000 A 
ATOM     20  C   UNL     1       9.605  13.684  19.275  0.00  0.00    +0.000 A 
BRANCH  15  22
ATOM     21  C   UNL     1      11.167  15.506  20.615  0.00  0.00    +0.000 C 
ATOM     22  O   UNL     1      10.497  14.452  21.303  0.00  0.00    +0.000 OA
ENDBRANCH  15  22
ENDBRANCH  13  18
ENDBRANCH   1  14
TORSDOF 5
ENDMDL
MODEL 2
REMARK VINA RESULT:      -7.2      1.308      1.402
REMARK  Name = 
REMARK  6 active torsions:
REMARK  status: ('A' for Active; 'I' for Inactive)
REMARK    1  A    between atoms: C_1  and  O_2
REMARK    2  A    between atoms: O_2  and  C_3
REMARK    3  A    between atoms: C_6  and  C_7
REMARK    4  A    between atoms: N_8  and  N_9
REMARK    5  A    between atoms: C_10  and  C_12
REMARK    6  A    between atoms: C_17  and  O_18
REMARK                            x       y       z     vdW  Elec       q    Type
REMARK                         _______ _______ _______ _____ _____    ______ ____
ROOT
ATOM      1  N   UNL     1       7.683   7.509  17.893  0.00  0.00    +0.000 N 
ATOM      2  C   UNL     1       7.506   6.238  18.408  0.00  0.00    +0.000 C 
ATOM      3  O   UNL     1       8.064   5.752  19.381  0.00  0.00    +0.000 OA
ATOM      4  H   UNL     1       7.387   7.675  16.934  0.00  0.00    +0.000 HD
ENDROOT
BRANCH   2   5
ATOM      5  C   UNL     1       6.477   5.434  17.719  0.00  0.00    +0.000 A 
ATOM      6  C   UNL     1       5.451   4.930  18.525  0.00  0.00    +0.000 A 
ATOM      7  C   UNL     1       4.432   4.168  17.964  0.00  0.00    +0.000 A 
ATOM      8  C   UNL     1       4.442   3.899  16.597  0.00  0.00    +0.000 A 
ATOM      9  C   UNL     1       5.462   4.404  15.784  0.00  0.00    +0.000 A 
ATOM     10  C   UNL     1       6.475   5.179  16.344  0.00  0.00    +0.000 A 
BRANCH  10  11
ATOM     11  O   UNL     1       7.460   5.686  15.540  0.00  0.00    +0.000 OA
ATOM     12  H   UNL     1       7.129   6.492  15.106  0.00  0.00    +0.000 HD
ENDBRANCH  10  11
ENDBRANCH   2   5
BRANCH   1  14
ATOM     13  C   UNL     1       8.371   9.687  17.960  0.00  0.00    +0.000 C 
ATOM     14  N   UNL     1       8.486   8.480  18.408  0.00  0.00    +0.000 NA
BRANCH  13  18
ATOM     15  C   UNL     1      10.404  12.833  19.914  0.00  0.00    +0.000 A 
ATOM     16  C   UNL     1      10.217  11.613  20.563  0.00  0.00    +0.000 A 
ATOM     17  C   UNL     1       9.574  10.574  19.906  0.00  0.00    +0.000 A 
ATOM     18  C   UNL     1       9.164  10.742  18.586  0.00  0.00    +0.000 A 
ATOM     19  C   UNL     1       9.397  11.926  17.895  0.00  0.00    +0.000 A 
ATOM     20  C   UNL     1       9.976  12.986  18.588  0.00  0.00    +0.000 A 
BRANCH  15  22
ATOM     21  C   UNL     1      11.576  14.863  19.549  0.00  0.00    +0.000 C 
ATOM     22  O   UNL     1      11.027  13.919  20.466  0.00  0.00    +0.000 OA
ENDBRANCH  15  22
ENDBRANCH  13  18
ENDBRANCH   1  14
TORSDOF 5
ENDMDL
MODEL 3
REMARK VINA RESULT:      -7.2      1.383      1.832
REMARK  Name = 
REMARK  6 active torsions:
REMARK  status: ('A' for Active; 'I' for Inactive)
REMARK    1  A    between atoms: C_1  and  O_2
REMARK    2  A    between atoms: O_2  and  C_3
REMARK    3  A    between atoms: C_6  and  C_7
REMARK    4  A    between atoms: N_8  and  N_9
REMARK    5  A    between atoms: C_10  and  C_12
REMARK    6  A    between atoms: C_17  and  O_18
REMARK                            x       y       z     vdW  Elec       q    Type
REMARK                         _______ _______ _______ _____ _____    ______ ____
ROOT
ATOM      1  N   UNL     1       7.726   7.476  17.866  0.00  0.00    +0.000 N 
ATOM      2  C   UNL     1       7.562   6.217  18.415  0.00  0.00    +0.000 C 
ATOM      3  O   UNL     1       8.116   5.766  19.407  0.00  0.00    +0.000 OA
ATOM      4  H   UNL     1       7.439   7.611  16.901  0.00  0.00    +0.000 HD
ENDROOT
BRANCH   2   5
ATOM      5  C   UNL     1       6.552   5.379  17.738  0.00  0.00    +0.000 A 
ATOM      6  C   UNL     1       5.561   4.828  18.558  0.00  0.00    +0.000 A 
ATOM      7  C   UNL     1       4.563   4.032  18.009  0.00  0.00    +0.000 A 
ATOM      8  C   UNL     1       4.558   3.775  16.639  0.00  0.00    +0.000 A 
ATOM      9  C   UNL     1       5.541   4.327  15.812  0.00  0.00    +0.000 A 
ATOM     10  C   UNL     1       6.534   5.136  16.360  0.00  0.00    +0.000 A 
BRANCH  10  11
ATOM     11  O   UNL     1       7.483   5.689  15.543  0.00  0.00    +0.000 OA
ATOM     12  H   UNL     1       7.081   5.882  14.678  0.00  0.00    +0.000 HD
ENDBRANCH  10  11
ENDBRANCH   2   5
BRANCH   1  14
ATOM     13  C   UNL     1       8.311   9.683  17.956  0.00  0.00    +0.000 C 
ATOM     14  N   UNL     1       8.509   8.473  18.364  0.00  0.00    +0.000 NA
BRANCH  13  18
ATOM     15  C   UNL     1      10.808  12.671  19.593  0.00  0.00    +0.000 A 
ATOM     16  C   UNL     1      10.331  12.797  18.289  0.00  0.00    +0.000 A 
ATOM     17  C   UNL     1       9.488  11.827  17.766  0.00  0.00    +0.000 A 
ATOM     18  C   UNL     1       9.087  10.760  18.566  0.00  0.00    +0.000 A 
ATOM     19  C   UNL     1       9.495  10.646  19.890  0.00  0.00    +0.000 A 
ATOM     20  C   UNL     1      10.400  11.585  20.380  0.00  0.00    +0.000 A 
BRANCH  15  22
ATOM     21  C   UNL     1      11.743  14.851  19.591  0.00  0.00    +0.000 C 
ATOM     22  O   UNL     1      11.639  13.569  20.206  0.00  0.00    +0.000 OA
ENDBRANCH  15  22
ENDBRANCH  13  18
ENDBRANCH   1  14
TORSDOF 5
ENDMDL
MODEL 4
REMARK VINA RESULT:      -7.0      1.353      1.932
REMARK  Name = 
REMARK  6 active torsions:
REMARK  status: ('A' for Active; 'I' for Inactive)
REMARK    1  A    between atoms: C_1  and  O_2
REMARK    2  A    between atoms: O_2  and  C_3
REMARK    3  A    between atoms: C_6  and  C_7
REMARK    4  A    between atoms: N_8  and  N_9
REMARK    5  A    between atoms: C_10  and  C_12
REMARK    6  A    between atoms: C_17  and  O_18
REMARK                            x       y       z     vdW  Elec       q    Type
REMARK                         _______ _______ _______ _____ _____    ______ ____
ROOT
ATOM      1  N   UNL     1       7.751   7.477  17.861  0.00  0.00    +0.000 N 
ATOM      2  C   UNL     1       7.580   6.222  18.417  0.00  0.00    +0.000 C 
ATOM      3  O   UNL     1       8.068   5.801  19.456  0.00  0.00    +0.000 OA
ATOM      4  H   UNL     1       7.535   7.590  16.874  0.00  0.00    +0.000 HD
ENDROOT
BRANCH   2   5
ATOM      5  C   UNL     1       6.649   5.346  17.678  0.00  0.00    +0.000 A 
ATOM      6  C   UNL     1       7.074   4.926  16.412  0.00  0.00    +0.000 A 
ATOM      7  C   UNL     1       6.269   4.092  15.645  0.00  0.00    +0.000 A 
ATOM      8  C   UNL     1       5.031   3.683  16.137  0.00  0.00    +0.000 A 
ATOM      9  C   UNL     1       4.601   4.093  17.403  0.00  0.00    +0.000 A 
ATOM     10  C   UNL     1       5.414   4.917  18.177  0.00  0.00    +0.000 A 
BRANCH  10  11
ATOM     11  O   UNL     1       4.996   5.300  19.423  0.00  0.00    +0.000 OA
ATOM     12  H   UNL     1       5.736   5.731  19.885  0.00  0.00    +0.000 HD
ENDBRANCH  10  11
ENDBRANCH   2   5
BRANCH   1  14
ATOM     13  C   UNL     1       8.350   9.682  17.884  0.00  0.00    +0.000 C 
ATOM     14  N   UNL     1       8.466   8.503  18.400  0.00  0.00    +0.000 NA
BRANCH  13  18
ATOM     15  C   UNL     1      10.595  12.843  19.561  0.00  0.00    +0.000 A 
ATOM     16  C   UNL     1       9.879  13.044  18.382  0.00  0.00    +0.000 A 
ATOM     17  C   UNL     1       9.121  12.011  17.850  0.00  0.00    +0.000 A 
ATOM     18  C   UNL     1       9.042  10.796  18.527  0.00  0.00    +0.000 A 
ATOM     19  C   UNL     1       9.693  10.592  19.739  0.00  0.00    +0.000 A 
ATOM     20  C   UNL     1      10.510  11.610  20.223  0.00  0.00    +0.000 A 
BRANCH  15  22
ATOM     21  C   UNL     1      12.333  14.443  19.347  0.00  0.00    +0.000 C 
ATOM     22  O   UNL     1      11.368  13.792  20.172  0.00  0.00    +0.000 OA
ENDBRANCH  15  22
ENDBRANCH  13  18
ENDBRANCH   1  14
TORSDOF 5
ENDMDL
MODEL 5
REMARK VINA RESULT:      -7.0      0.571      1.216
REMARK  Name = 
REMARK  6 active torsions:
REMARK  status: ('A' for Active; 'I' for Inactive)
REMARK    1  A    between atoms: C_1  and  O_2
REMARK    2  A    between atoms: O_2  and  C_3
REMARK    3  A    between atoms: C_6  and  C_7
REMARK    4  A    between atoms: N_8  and  N_9
REMARK    5  A    between atoms: C_10  and  C_12
REMARK    6  A    between atoms: C_17  and  O_18
REMARK                            x       y       z     vdW  Elec       q    Type
REMARK                         _______ _______ _______ _____ _____    ______ ____
ROOT
ATOM      1  N   UNL     1       7.626   8.226  17.500  0.00  0.00    +0.000 N 
ATOM      2  C   UNL     1       7.592   6.901  17.893  0.00  0.00    +0.000 C 
ATOM      3  O   UNL     1       8.023   6.428  18.935  0.00  0.00    +0.000 OA
ATOM      4  H   UNL     1       7.505   8.429  16.511  0.00  0.00    +0.000 HD
ENDROOT
BRANCH   2   5
ATOM      5  C   UNL     1       6.896   5.999  16.953  0.00  0.00    +0.000 A 
ATOM      6  C   UNL     1       5.880   6.579  16.185  0.00  0.00    +0.000 A 
ATOM      7  C   UNL     1       5.174   5.811  15.266  0.00  0.00    +0.000 A 
ATOM      8  C   UNL     1       5.475   4.458  15.119  0.00  0.00    +0.000 A 
ATOM      9  C   UNL     1       6.492   3.873  15.879  0.00  0.00    +0.000 A 
ATOM     10  C   UNL     1       7.209   4.645  16.790  0.00  0.00    +0.000 A 
BRANCH  10  11
ATOM     11  O   UNL     1       8.216   4.071  17.517  0.00  0.00    +0.000 OA
ATOM     12  H   UNL     1       7.835   3.650  18.307  0.00  0.00    +0.000 HD
ENDBRANCH  10  11
ENDBRANCH   2   5
BRANCH   1  14
ATOM     13  C   UNL     1       9.054   9.995  17.734  0.00  0.00    +0.000 C 
ATOM     14  N   UNL     1       8.108   9.268  18.232  0.00  0.00    +0.000 NA
BRANCH  13  18
ATOM     15  C   UNL     1      10.619  13.354  19.761  0.00  0.00    +0.000 A 
ATOM     16  C   UNL     1      10.131  13.487  18.462  0.00  0.00    +0.000 A 
ATOM     17  C   UNL     1       9.592  12.387  17.811  0.00  0.00    +0.000 A 
ATOM     18  C   UNL     1       9.498  11.169  18.480  0.00  0.00    +0.000 A 
ATOM     19  C   UNL     1       9.917  11.026  19.798  0.00  0.00    +0.000 A 
ATOM     20  C   UNL     1      10.524  12.118  20.415  0.00  0.00    +0.000 A 
BRANCH  15  22
ATOM     21  C   UNL     1      10.333  15.511  20.708  0.00  0.00    +0.000 C 
ATOM     22  O   UNL     1      11.165  14.372  20.494  0.00  0.00    +0.000 OA
ENDBRANCH  15  22
ENDBRANCH  13  18
ENDBRANCH   1  14
TORSDOF 5
ENDMDL
MODEL 6
REMARK VINA RESULT:      -7.0      1.242      1.294
REMARK  Name = 
REMARK  6 active torsions:
REMARK  status: ('A' for Active; 'I' for Inactive)
REMARK    1  A    between atoms: C_1  and  O_2
REMARK    2  A    between atoms: O_2  and  C_3
REMARK    3  A    between atoms: C_6  and  C_7
REMARK    4  A    between atoms: N_8  and  N_9
REMARK    5  A    between atoms: C_10  and  C_12
REMARK    6  A    between atoms: C_17  and  O_18
REMARK                            x       y       z     vdW  Elec       q    Type
REMARK                         _______ _______ _______ _____ _____    ______ ____
ROOT
ATOM      1  N   UNL     1       7.739   7.455  17.889  0.00  0.00    +0.000 N 
ATOM      2  C   UNL     1       7.552   6.163  18.345  0.00  0.00    +0.000 C 
ATOM      3  O   UNL     1       8.072   5.642  19.321  0.00  0.00    +0.000 OA
ATOM      4  H   UNL     1       7.483   7.658  16.926  0.00  0.00    +0.000 HD
ENDROOT
BRANCH   2   5
ATOM      5  C   UNL     1       6.561   5.379  17.580  0.00  0.00    +0.000 A 
ATOM      6  C   UNL     1       6.559   5.577  16.195  0.00  0.00    +0.000 A 
ATOM      7  C   UNL     1       5.667   4.877  15.391  0.00  0.00    +0.000 A 
ATOM      8  C   UNL     1       4.768   3.983  15.970  0.00  0.00    +0.000 A 
ATOM      9  C   UNL     1       4.768   3.776  17.353  0.00  0.00    +0.000 A 
ATOM     10  C   UNL     1       5.671   4.467  18.158  0.00  0.00    +0.000 A 
BRANCH  10  11
ATOM     11  O   UNL     1       5.679   4.246  19.508  0.00  0.00    +0.000 OA
ATOM     12  H   UNL     1       5.935   3.322  19.675  0.00  0.00    +0.000 HD
ENDBRANCH  10  11
ENDBRANCH   2   5
BRANCH   1  14
ATOM     13  C   UNL     1       8.515   9.602  17.976  0.00  0.00    +0.000 C 
ATOM     14  N   UNL     1       8.509   8.411  18.477  0.00  0.00    +0.000 NA
BRANCH  13  18
ATOM     15  C   UNL     1      10.410  12.755  20.053  0.00  0.00    +0.000 A 
ATOM     16  C   UNL     1       9.955  11.635  20.748  0.00  0.00    +0.000 A 
ATOM     17  C   UNL     1       9.359  10.590  20.058  0.00  0.00    +0.000 A 
ATOM     18  C   UNL     1       9.265  10.647  18.669  0.00  0.00    +0.000 A 
ATOM     19  C   UNL     1       9.770  11.723  17.947  0.00  0.00    +0.000 A 
ATOM     20  C   UNL     1      10.298  12.798  18.657  0.00  0.00    +0.000 A 
BRANCH  15  22
ATOM     21  C   UNL     1      10.974  15.053  19.891  0.00  0.00    +0.000 C 
ATOM     22  O   UNL     1      11.014  13.837  20.634  0.00  0.00    +0.000 OA
ENDBRANCH  15  22
ENDBRANCH  13  18
ENDBRANCH   1  14
TORSDOF 5
ENDMDL
MODEL 7
REMARK VINA RESULT:      -6.9      2.452      8.525
REMARK  Name = 
REMARK  6 active torsions:
REMARK  status: ('A' for Active; 'I' for Inactive)
REMARK    1  A    between atoms: C_1  and  O_2
REMARK    2  A    between atoms: O_2  and  C_3
REMARK    3  A    between atoms: C_6  and  C_7
REMARK    4  A    between atoms: N_8  and  N_9
REMARK    5  A    between atoms: C_10  and  C_12
REMARK    6  A    between atoms: C_17  and  O_18
REMARK                            x       y       z     vdW  Elec       q    Type
REMARK                         _______ _______ _______ _____ _____    ______ ____
ROOT
ATOM      1  N   UNL     1       8.772   9.245  18.270  0.00  0.00    +0.000 N 
ATOM      2  C   UNL     1       8.819  10.612  18.069  0.00  0.00    +0.000 C 
ATOM      3  O   UNL     1       7.968  11.310  17.535  0.00  0.00    +0.000 OA
ATOM      4  H   UNL     1       9.649   8.764  18.452  0.00  0.00    +0.000 HD
ENDROOT
BRANCH   2   5
ATOM      5  C   UNL     1      10.014  11.275  18.628  0.00  0.00    +0.000 A 
ATOM      6  C   UNL     1      10.879  11.866  17.700  0.00  0.00    +0.000 A 
ATOM      7  C   UNL     1      12.027  12.520  18.133  0.00  0.00    +0.000 A 
ATOM      8  C   UNL     1      12.319  12.577  19.495  0.00  0.00    +0.000 A 
ATOM      9  C   UNL     1      11.457  11.994  20.428  0.00  0.00    +0.000 A 
ATOM     10  C   UNL     1      10.299  11.350  19.996  0.00  0.00    +0.000 A 
BRANCH  10  11
ATOM     11  O   UNL     1       9.450  10.797  20.916  0.00  0.00    +0.000 OA
ATOM     12  H   UNL     1       9.939  10.141  21.442  0.00  0.00    +0.000 HD
ENDBRANCH  10  11
ENDBRANCH   2   5
BRANCH   1  14
ATOM     13  C   UNL     1       7.860   7.152  18.164  0.00  0.00    +0.000 C 
ATOM     14  N   UNL     1       7.736   8.421  17.952  0.00  0.00    +0.000 NA
BRANCH  13  18
ATOM     15  C   UNL     1       4.352   4.885  17.531  0.00  0.00    +0.000 A 
ATOM     16  C   UNL     1       4.812   5.752  16.540  0.00  0.00    +0.000 A 
ATOM     17  C   UNL     1       5.980   6.473  16.742  0.00  0.00    +0.000 A 
ATOM     18  C   UNL     1       6.710   6.287  17.913  0.00  0.00    +0.000 A 
ATOM     19  C   UNL     1       6.308   5.381  18.888  0.00  0.00    +0.000 A 
ATOM     20  C   UNL     1       5.096   4.719  18.707  0.00  0.00    +0.000 A 
BRANCH  15  22
ATOM     21  C   UNL     1       3.359   2.742  17.746  0.00  0.00    +0.000 C 
ATOM     22  O   UNL     1       3.218   4.126  17.434  0.00  0.00    +0.000 OA
ENDBRANCH  15  22
ENDBRANCH  13  18
ENDBRANCH   1  14
TORSDOF 5
ENDMDL
MODEL 8
REMARK VINA RESULT:      -6.9      2.089      8.461
REMARK  Name = 
REMARK  6 active torsions:
REMARK  status: ('A' for Active; 'I' for Inactive)
REMARK    1  A    between atoms: C_1  and  O_2
REMARK    2  A    between atoms: O_2  and  C_3
REMARK    3  A    between atoms: C_6  and  C_7
REMARK    4  A    between atoms: N_8  and  N_9
REMARK    5  A    between atoms: C_10  and  C_12
REMARK    6  A    between atoms: C_17  and  O_18
REMARK                            x       y       z     vdW  Elec       q    Type
REMARK                         _______ _______ _______ _____ _____    ______ ____
ROOT
ATOM      1  N   UNL     1       9.091  10.593  18.170  0.00  0.00    +0.000 N 
ATOM      2  C   UNL     1       9.784  11.407  19.047  0.00  0.00    +0.000 C 
ATOM      3  O   UNL     1       9.971  11.216  20.240  0.00  0.00    +0.000 OA
ATOM      4  H   UNL     1       8.767  11.006  17.299  0.00  0.00    +0.000 HD
ENDROOT
BRANCH   2   5
ATOM      5  C   UNL     1      10.402  12.595  18.426  0.00  0.00    +0.000 A 
ATOM      6  C   UNL     1      11.341  12.343  17.420  0.00  0.00    +0.000 A 
ATOM      7  C   UNL     1      11.970  13.399  16.770  0.00  0.00    +0.000 A 
ATOM      8  C   UNL     1      11.669  14.711  17.131  0.00  0.00    +0.000 A 
ATOM      9  C   UNL     1      10.727  14.972  18.131  0.00  0.00    +0.000 A 
ATOM     10  C   UNL     1      10.086  13.914  18.773  0.00  0.00    +0.000 A 
BRANCH  10  11
ATOM     11  O   UNL     1       9.151  14.175  19.737  0.00  0.00    +0.000 OA
ATOM     12  H   UNL     1       9.251  15.097  20.031  0.00  0.00    +0.000 HD
ENDBRANCH  10  11
ENDBRANCH   2   5
BRANCH   1  14
ATOM     13  C   UNL     1       7.933   8.732  17.525  0.00  0.00    +0.000 C 
ATOM     14  N   UNL     1       8.526   9.391  18.466  0.00  0.00    +0.000 NA
BRANCH  13  18
ATOM     15  C   UNL     1       6.231   5.014  18.586  0.00  0.00    +0.000 A 
ATOM     16  C   UNL     1       5.657   5.782  17.574  0.00  0.00    +0.000 A 
ATOM     17  C   UNL     1       6.236   6.988  17.210  0.00  0.00    +0.000 A 
ATOM     18  C   UNL     1       7.415   7.399  17.826  0.00  0.00    +0.000 A 
ATOM     19  C   UNL     1       8.044   6.621  18.792  0.00  0.00    +0.000 A 
ATOM     20  C   UNL     1       7.414   5.449  19.201  0.00  0.00    +0.000 A 
BRANCH  15  22
ATOM     21  C   UNL     1       4.351   3.764  19.314  0.00  0.00    +0.000 C 
ATOM     22  O   UNL     1       5.746   3.811  19.019  0.00  0.00    +0.000 OA
ENDBRANCH  15  22
ENDBRANCH  13  18
ENDBRANCH   1  14
TORSDOF 5
ENDMDL
MODEL 9
REMARK VINA RESULT:      -6.9      2.386      8.522
REMARK  Name = 
REMARK  6 active torsions:
REMARK  status: ('A' for Active; 'I' for Inactive)
REMARK    1  A    between atoms: C_1  and  O_2
REMARK    2  A    between atoms: O_2  and  C_3
REMARK    3  A    between atoms: C_6  and  C_7
REMARK    4  A    between atoms: N_8  and  N_9
REMARK    5  A    between atoms: C_10  and  C_12
REMARK    6  A    between atoms: C_17  and  O_18
REMARK                            x       y       z     vdW  Elec       q    Type
REMARK                         _______ _______ _______ _____ _____    ______ ____
ROOT
ATOM      1  N   UNL     1       8.781   9.280  18.215  0.00  0.00    +0.000 N 
ATOM      2  C   UNL     1       8.817  10.653  18.054  0.00  0.00    +0.000 C 
ATOM      3  O   UNL     1       7.955  11.361  17.555  0.00  0.00    +0.000 OA
ATOM      4  H   UNL     1       9.664   8.799  18.368  0.00  0.00    +0.000 HD
ENDROOT
BRANCH   2   5
ATOM      5  C   UNL     1      10.018  11.305  18.615  0.00  0.00    +0.000 A 
ATOM      6  C   UNL     1      10.887  11.892  17.688  0.00  0.00    +0.000 A 
ATOM      7  C   UNL     1      12.039  12.537  18.122  0.00  0.00    +0.000 A 
ATOM      8  C   UNL     1      12.332  12.589  19.483  0.00  0.00    +0.000 A 
ATOM      9  C   UNL     1      11.466  12.010  20.416  0.00  0.00    +0.000 A 
ATOM     10  C   UNL     1      10.304  11.375  19.982  0.00  0.00    +0.000 A 
BRANCH  10  11
ATOM     11  O   UNL     1       9.450  10.827  20.901  0.00  0.00    +0.000 OA
ATOM     12  H   UNL     1       9.905  10.098  21.358  0.00  0.00    +0.000 HD
ENDBRANCH  10  11
ENDBRANCH   2   5
BRANCH   1  14
ATOM     13  C   UNL     1       7.830   7.203  18.173  0.00  0.00    +0.000 C 
ATOM     14  N   UNL     1       7.744   8.460  17.888  0.00  0.00    +0.000 NA
BRANCH  13  18
ATOM     15  C   UNL     1       4.689   4.520  17.289  0.00  0.00    +0.000 A 
ATOM     16  C   UNL     1       5.412   4.382  18.473  0.00  0.00    +0.000 A 
ATOM     17  C   UNL     1       6.424   5.283  18.772  0.00  0.00    +0.000 A 
ATOM     18  C   UNL     1       6.676   6.347  17.910  0.00  0.00    +0.000 A 
ATOM     19  C   UNL     1       5.925   6.545  16.756  0.00  0.00    +0.000 A 
ATOM     20  C   UNL     1       4.963   5.593  16.429  0.00  0.00    +0.000 A 
BRANCH  15  22
ATOM     21  C   UNL     1       3.368   2.611  17.779  0.00  0.00    +0.000 C 
ATOM     22  O   UNL     1       3.671   3.692  16.900  0.00  0.00    +0.000 OA
ENDBRANCH  15  22
ENDBRANCH  13  18
ENDBRANCH   1  14
TORSDOF 5
ENDMDL
