MODEL 1
REMARK VINA RESULT:      -8.2      0.000      0.000
REMARK  Name = 
REMARK  5 active torsions:
REMARK  status: ('A' for Active; 'I' for Inactive)
REMARK    1  A    between atoms: C_2  and  N_3
REMARK    2  A    between atoms: N_5  and  C_6
REMARK    3  A    between atoms: C_6  and  C_7
REMARK    4  A    between atoms: C_7  and  C_8
REMARK    5  A    between atoms: N_14  and  C_15
REMARK                            x       y       z     vdW  Elec       q    Type
REMARK                         _______ _______ _______ _____ _____    ______ ____
ROOT
ATOM      1  N   UNL     1       3.655   2.652  20.399  0.00  0.00    +0.000 NA
ATOM      2  C   UNL     1       3.836   3.299  19.290  0.00  0.00    +0.000 C 
ATOM      3  N   UNL     1       2.801   4.011  18.743  0.00  0.00    +0.000 N 
ATOM      4  N   UNL     1       4.966   3.296  18.500  0.00  0.00    +0.000 N 
ATOM      5  H   UNL     1       2.408   3.478  17.972  0.00  0.00    +0.000 HD
ATOM      6  H   UNL     1       5.708   2.681  18.824  0.00  0.00    +0.000 HD
ENDROOT
BRANCH   4   7
ATOM      7  C   UNL     1       5.468   4.359  17.609  0.00  0.00    +0.000 C 
ATOM      8  C   UNL     1       5.195   5.783  18.154  0.00  0.00    +0.000 C 
ATOM      9  C   UNL     1       5.733   6.858  17.199  0.00  0.00    +0.000 C 
ATOM     10  C   UNL     1       7.254   6.688  17.089  0.00  0.00    +0.000 C 
ATOM     11  C   UNL     1       7.580   5.300  16.518  0.00  0.00    +0.000 C 
ATOM     12  C   UNL     1       6.932   5.176  15.130  0.00  0.00    +0.000 C 
ATOM     13  C   UNL     1       5.404   5.290  15.251  0.00  0.00    +0.000 C 
ATOM     14  C   UNL     1       5.061   6.674  15.825  0.00  0.00    +0.000 C 
ATOM     15  C   UNL     1       4.866   4.200  16.198  0.00  0.00    +0.000 C 
ATOM     16  C   UNL     1       7.012   4.208  17.451  0.00  0.00    +0.000 C 
ENDBRANCH   4   7
BRANCH   1  18
ATOM     17  N   UNL     1       5.484   1.226  21.308  0.00  0.00    +0.000 NA
ATOM     18  C   UNL     1       4.641   1.879  20.869  0.00  0.00    +0.000 C 
ENDBRANCH   1  18
BRANCH   3  19
ATOM     19  C   UNL     1       1.728   4.598  19.549  0.00  0.00    +0.000 C 
BRANCH  19  20
ATOM     20  C   UNL     1       2.246   5.754  20.420  0.00  0.00    +0.000 C 
BRANCH  20  21
ATOM     21  C   UNL     1       1.973   7.107  19.809  0.00  0.00    +0.000 A 
ATOM     22  C   UNL     1       1.387   8.122  20.575  0.00  0.00    +0.000 A 
ATOM     23  C   UNL     1       1.063   9.348  19.994  0.00  0.00    +0.000 A 
ATOM     24  C   UNL     1       1.321   9.570  18.643  0.00  0.00    +0.000 A 
ATOM     25  C   UNL     1       1.938   8.580  17.880  0.00  0.00    +0.000 A 
ATOM     26  C   UNL     1       2.269   7.355  18.462  0.00  0.00    +0.000 A 
ENDBRANCH  20  21
ENDBRANCH  19  20
ENDBRANCH   3  19
TORSDOF 5
ENDMDL
MODEL 2
REMARK VINA RESULT:      -8.1      0.071      1.535
REMARK  Name = 
REMARK  5 active torsions:
REMARK  status: ('A' for Active; 'I' for Inactive)
REMARK    1  A    between atoms: C_2  and  N_3
REMARK    2  A    between atoms: N_5  and  C_6
REMARK    3  A    between atoms: C_6  and  C_7
REMARK    4  A    between atoms: C_7  and  C_8
REMARK    5  A    between atoms: N_14  and  C_15
REMARK                            x       y       z     vdW  Elec       q    Type
REMARK                         _______ _______ _______ _____ _____    ______ ____
ROOT
ATOM      1  N   UNL     1       3.654   2.627  20.434  0.00  0.00    +0.000 NA
ATOM      2  C   UNL     1       3.842   3.256  19.317  0.00  0.00    +0.000 C 
ATOM      3  N   UNL     1       2.813   3.963  18.753  0.00  0.00    +0.000 N 
ATOM      4  N   UNL     1       4.977   3.239  18.534  0.00  0.00    +0.000 N 
ATOM      5  H   UNL     1       2.422   3.419  17.988  0.00  0.00    +0.000 HD
ATOM      6  H   UNL     1       5.715   2.627  18.871  0.00  0.00    +0.000 HD
ENDROOT
BRANCH   4   7
ATOM      7  C   UNL     1       5.487   4.287  17.630  0.00  0.00    +0.000 C 
ATOM      8  C   UNL     1       4.836   4.241  16.224  0.00  0.00    +0.000 C 
ATOM      9  C   UNL     1       5.393   5.346  15.316  0.00  0.00    +0.000 C 
ATOM     10  C   UNL     1       5.047   6.704  15.940  0.00  0.00    +0.000 C 
ATOM     11  C   UNL     1       5.698   6.817  17.327  0.00  0.00    +0.000 C 
ATOM     12  C   UNL     1       7.220   6.682  17.165  0.00  0.00    +0.000 C 
ATOM     13  C   UNL     1       7.568   5.298  16.591  0.00  0.00    +0.000 C 
ATOM     14  C   UNL     1       6.919   5.167  15.205  0.00  0.00    +0.000 C 
ATOM     15  C   UNL     1       7.022   4.192  17.514  0.00  0.00    +0.000 C 
ATOM     16  C   UNL     1       5.176   5.688  18.241  0.00  0.00    +0.000 C 
ENDBRANCH   4   7
BRANCH   1  18
ATOM     17  N   UNL     1       5.494   1.226  21.361  0.00  0.00    +0.000 NA
ATOM     18  C   UNL     1       4.635   1.859  20.921  0.00  0.00    +0.000 C 
ENDBRANCH   1  18
BRANCH   3  19
ATOM     19  C   UNL     1       1.736   4.565  19.544  0.00  0.00    +0.000 C 
BRANCH  19  20
ATOM     20  C   UNL     1       2.258   5.716  20.420  0.00  0.00    +0.000 C 
BRANCH  20  21
ATOM     21  C   UNL     1       1.980   7.073  19.821  0.00  0.00    +0.000 A 
ATOM     22  C   UNL     1       1.395   8.081  20.598  0.00  0.00    +0.000 A 
ATOM     23  C   UNL     1       1.066   9.310  20.026  0.00  0.00    +0.000 A 
ATOM     24  C   UNL     1       1.316   9.543  18.676  0.00  0.00    +0.000 A 
ATOM     25  C   UNL     1       1.931   8.560  17.903  0.00  0.00    +0.000 A 
ATOM     26  C   UNL     1       2.268   7.331  18.474  0.00  0.00    +0.000 A 
ENDBRANCH  20  21
ENDBRANCH  19  20
ENDBRANCH   3  19
TORSDOF 5
ENDMDL
MODEL 3
REMARK VINA RESULT:      -8.1      0.133      1.553
REMARK  Name = 
REMARK  5 active torsions:
REMARK  status: ('A' for Active; 'I' for Inactive)
REMARK    1  A    between atoms: C_2  and  N_3
REMARK    2  A    between atoms: N_5  and  C_6
REMARK    3  A    between atoms: C_6  and  C_7
REMARK    4  A    between atoms: C_7  and  C_8
REMARK    5  A    between atoms: N_14  and  C_15
REMARK                            x       y       z     vdW  Elec       q    Type
REMARK                         _______ _______ _______ _____ _____    ______ ____
ROOT
ATOM      1  N   UNL     1       3.695   2.561  20.419  0.00  0.00    +0.000 NA
ATOM      2  C   UNL     1       3.900   3.203  19.311  0.00  0.00    +0.000 C 
ATOM      3  N   UNL     1       2.869   3.885  18.721  0.00  0.00    +0.000 N 
ATOM      4  N   UNL     1       5.058   3.224  18.564  0.00  0.00    +0.000 N 
ATOM      5  H   UNL     1       2.518   3.336  17.941  0.00  0.00    +0.000 HD
ATOM      6  H   UNL     1       5.803   2.630  18.920  0.00  0.00    +0.000 HD
ENDROOT
BRANCH   4   7
ATOM      7  C   UNL     1       5.566   4.292  17.683  0.00  0.00    +0.000 C 
ATOM      8  C   UNL     1       7.092   4.194  17.434  0.00  0.00    +0.000 C 
ATOM      9  C   UNL     1       7.579   5.322  16.513  0.00  0.00    +0.000 C 
ATOM     10  C   UNL     1       6.879   5.174  15.156  0.00  0.00    +0.000 C 
ATOM     11  C   UNL     1       5.359   5.298  15.342  0.00  0.00    +0.000 C 
ATOM     12  C   UNL     1       5.051   6.675  15.948  0.00  0.00    +0.000 C 
ATOM     13  C   UNL     1       5.708   6.799  17.333  0.00  0.00    +0.000 C 
ATOM     14  C   UNL     1       7.230   6.673  17.165  0.00  0.00    +0.000 C 
ATOM     15  C   UNL     1       5.204   5.676  18.259  0.00  0.00    +0.000 C 
ATOM     16  C   UNL     1       4.860   4.191  16.296  0.00  0.00    +0.000 C 
ENDBRANCH   4   7
BRANCH   1  18
ATOM     17  N   UNL     1       5.545   1.205  21.392  0.00  0.00    +0.000 NA
ATOM     18  C   UNL     1       4.682   1.816  20.931  0.00  0.00    +0.000 C 
ENDBRANCH   1  18
BRANCH   3  19
ATOM     19  C   UNL     1       1.752   4.451  19.482  0.00  0.00    +0.000 C 
BRANCH  19  20
ATOM     20  C   UNL     1       2.222   5.574  20.420  0.00  0.00    +0.000 C 
BRANCH  20  21
ATOM     21  C   UNL     1       1.975   6.949  19.846  0.00  0.00    +0.000 A 
ATOM     22  C   UNL     1       1.439   7.962  20.650  0.00  0.00    +0.000 A 
ATOM     23  C   UNL     1       1.137   9.211  20.105  0.00  0.00    +0.000 A 
ATOM     24  C   UNL     1       1.367   9.456  18.753  0.00  0.00    +0.000 A 
ATOM     25  C   UNL     1       1.935   8.467  17.953  0.00  0.00    +0.000 A 
ATOM     26  C   UNL     1       2.244   7.219  18.498  0.00  0.00    +0.000 A 
ENDBRANCH  20  21
ENDBRANCH  19  20
ENDBRANCH   3  19
TORSDOF 5
ENDMDL
MODEL 4
REMARK VINA RESULT:      -7.9      2.304      6.709
REMARK  Name = 
REMARK  5 active torsions:
REMARK  status: ('A' for Active; 'I' for Inactive)
REMARK    1  A    between atoms: C_2  and  N_3
REMARK    2  A    between atoms: N_5  and  C_6
REMARK    3  A    between atoms: C_6  and  C_7
REMARK    4  A    between atoms: C_7  and  C_8
REMARK    5  A    between atoms: N_14  and  C_15
REMARK                            x       y       z     vdW  Elec       q    Type
REMARK                         _______ _______ _______ _____ _____    ______ ____
ROOT
ATOM      1  N   UNL     1       3.624   7.832  17.394  0.00  0.00    +0.000 NA
ATOM      2  C   UNL     1       3.522   6.541  17.456  0.00  0.00    +0.000 C 
ATOM      3  N   UNL     1       4.464   5.755  16.847  0.00  0.00    +0.000 N 
ATOM      4  N   UNL     1       2.490   5.814  18.010  0.00  0.00    +0.000 N 
ATOM      5  H   UNL     1       4.083   5.404  15.973  0.00  0.00    +0.000 HD
ATOM      6  H   UNL     1       1.719   6.374  18.365  0.00  0.00    +0.000 HD
ENDROOT
BRANCH   4   7
ATOM      7  C   UNL     1       2.533   4.471  18.619  0.00  0.00    +0.000 C 
ATOM      8  C   UNL     1       3.866   4.185  19.355  0.00  0.00    +0.000 C 
ATOM      9  C   UNL     1       3.870   2.780  19.974  0.00  0.00    +0.000 C 
ATOM     10  C   UNL     1       2.745   2.708  21.013  0.00  0.00    +0.000 C 
ATOM     11  C   UNL     1       1.391   2.951  20.328  0.00  0.00    +0.000 C 
ATOM     12  C   UNL     1       1.188   1.874  19.251  0.00  0.00    +0.000 C 
ATOM     13  C   UNL     1       2.286   1.986  18.180  0.00  0.00    +0.000 C 
ATOM     14  C   UNL     1       3.648   1.749  18.851  0.00  0.00    +0.000 C 
ATOM     15  C   UNL     1       2.268   3.392  17.550  0.00  0.00    +0.000 C 
ATOM     16  C   UNL     1       1.386   4.347  19.668  0.00  0.00    +0.000 C 
ENDBRANCH   4   7
BRANCH   1  18
ATOM     17  N   UNL     1       1.788   9.246  18.311  0.00  0.00    +0.000 NA
ATOM     18  C   UNL     1       2.644   8.586  17.905  0.00  0.00    +0.000 C 
ENDBRANCH   1  18
BRANCH   3  19
ATOM     19  C   UNL     1       5.852   6.185  16.654  0.00  0.00    +0.000 C 
BRANCH  19  20
ATOM     20  C   UNL     1       6.772   4.994  16.343  0.00  0.00    +0.000 C 
BRANCH  20  21
ATOM     21  C   UNL     1       6.837   4.682  14.867  0.00  0.00    +0.000 A 
ATOM     22  C   UNL     1       7.730   5.373  14.040  0.00  0.00    +0.000 A 
ATOM     23  C   UNL     1       7.739   5.143  12.663  0.00  0.00    +0.000 A 
ATOM     24  C   UNL     1       6.856   4.223  12.103  0.00  0.00    +0.000 A 
ATOM     25  C   UNL     1       5.989   3.503  12.922  0.00  0.00    +0.000 A 
ATOM     26  C   UNL     1       5.983   3.726  14.300  0.00  0.00    +0.000 A 
ENDBRANCH  20  21
ENDBRANCH  19  20
ENDBRANCH   3  19
TORSDOF 5
ENDMDL
MODEL 5
REMARK VINA RESULT:      -7.9      2.052      4.875
REMARK  Name = 
REMARK  5 active torsions:
REMARK  status: ('A' for Active; 'I' for Inactive)
REMARK    1  A    between atoms: C_2  and  N_3
REMARK    2  A    between atoms: N_5  and  C_6
REMARK    3  A    between atoms: C_6  and  C_7
REMARK    4  A    between atoms: C_7  and  C_8
REMARK    5  A    between atoms: N_14  and  C_15
REMARK                            x       y       z     vdW  Elec       q    Type
REMARK                         _______ _______ _______ _____ _____    ______ ____
ROOT
ATOM      1  N   UNL     1       4.931   6.719  16.106  0.00  0.00    +0.000 NA
ATOM      2  C   UNL     1       4.399   6.282  17.205  0.00  0.00    +0.000 C 
ATOM      3  N   UNL     1       3.769   7.157  18.050  0.00  0.00    +0.000 N 
ATOM      4  N   UNL     1       4.459   4.999  17.705  0.00  0.00    +0.000 N 
ATOM      5  H   UNL     1       4.388   7.362  18.830  0.00  0.00    +0.000 HD
ATOM      6  H   UNL     1       5.022   4.355  17.154  0.00  0.00    +0.000 HD
ENDROOT
BRANCH   4   7
ATOM      7  C   UNL     1       3.484   4.299  18.563  0.00  0.00    +0.000 C 
ATOM      8  C   UNL     1       3.373   4.916  19.979  0.00  0.00    +0.000 C 
ATOM      9  C   UNL     1       2.349   4.160  20.838  0.00  0.00    +0.000 C 
ATOM     10  C   UNL     1       0.974   4.285  20.170  0.00  0.00    +0.000 C 
ATOM     11  C   UNL     1       1.019   3.654  18.770  0.00  0.00    +0.000 C 
ATOM     12  C   UNL     1       1.406   2.174  18.912  0.00  0.00    +0.000 C 
ATOM     13  C   UNL     1       2.809   2.054  19.529  0.00  0.00    +0.000 C 
ATOM     14  C   UNL     1       2.782   2.684  20.930  0.00  0.00    +0.000 C 
ATOM     15  C   UNL     1       3.836   2.800  18.656  0.00  0.00    +0.000 C 
ATOM     16  C   UNL     1       2.072   4.381  17.906  0.00  0.00    +0.000 C 
ENDBRANCH   4   7
BRANCH   1  18
ATOM     17  N   UNL     1       6.263   5.151  14.701  0.00  0.00    +0.000 NA
ATOM     18  C   UNL     1       5.630   5.873  15.341  0.00  0.00    +0.000 C 
ENDBRANCH   1  18
BRANCH   3  19
ATOM     19  C   UNL     1       3.125   8.387  17.582  0.00  0.00    +0.000 C 
BRANCH  19  20
ATOM     20  C   UNL     1       1.624   8.396  17.911  0.00  0.00    +0.000 C 
BRANCH  20  21
ATOM     21  C   UNL     1       1.335   8.943  19.289  0.00  0.00    +0.000 A 
ATOM     22  C   UNL     1       1.499   8.132  20.418  0.00  0.00    +0.000 A 
ATOM     23  C   UNL     1       1.159   8.609  21.685  0.00  0.00    +0.000 A 
ATOM     24  C   UNL     1       0.653   9.898  21.833  0.00  0.00    +0.000 A 
ATOM     25  C   UNL     1       0.521  10.727  20.720  0.00  0.00    +0.000 A 
ATOM     26  C   UNL     1       0.867  10.254  19.453  0.00  0.00    +0.000 A 
ENDBRANCH  20  21
ENDBRANCH  19  20
ENDBRANCH   3  19
TORSDOF 5
ENDMDL
MODEL 6
REMARK VINA RESULT:      -7.9      2.438      6.267
REMARK  Name = 
REMARK  5 active torsions:
REMARK  status: ('A' for Active; 'I' for Inactive)
REMARK    1  A    between atoms: C_2  and  N_3
REMARK    2  A    between atoms: N_5  and  C_6
REMARK    3  A    between atoms: C_6  and  C_7
REMARK    4  A    between atoms: C_7  and  C_8
REMARK    5  A    between atoms: N_14  and  C_15
REMARK                            x       y       z     vdW  Elec       q    Type
REMARK                         _______ _______ _______ _____ _____    ______ ____
ROOT
ATOM      1  N   UNL     1       7.258   6.006  18.613  0.00  0.00    +0.000 NA
ATOM      2  C   UNL     1       5.991   5.785  18.454  0.00  0.00    +0.000 C 
ATOM      3  N   UNL     1       5.350   6.274  17.345  0.00  0.00    +0.000 N 
ATOM      4  N   UNL     1       5.137   5.163  19.339  0.00  0.00    +0.000 N 
ATOM      5  H   UNL     1       4.826   7.104  17.609  0.00  0.00    +0.000 HD
ATOM      6  H   UNL     1       5.564   4.894  20.222  0.00  0.00    +0.000 HD
ENDROOT
BRANCH   4   7
ATOM      7  C   UNL     1       3.914   4.390  19.049  0.00  0.00    +0.000 C 
ATOM      8  C   UNL     1       3.830   3.924  17.574  0.00  0.00    +0.000 C 
ATOM      9  C   UNL     1       2.546   3.123  17.315  0.00  0.00    +0.000 C 
ATOM     10  C   UNL     1       2.574   1.867  18.195  0.00  0.00    +0.000 C 
ATOM     11  C   UNL     1       2.623   2.274  19.676  0.00  0.00    +0.000 C 
ATOM     12  C   UNL     1       1.377   3.115  19.994  0.00  0.00    +0.000 C 
ATOM     13  C   UNL     1       1.381   4.400  19.150  0.00  0.00    +0.000 C 
ATOM     14  C   UNL     1       1.336   4.010  17.665  0.00  0.00    +0.000 C 
ATOM     15  C   UNL     1       2.663   5.209  19.425  0.00  0.00    +0.000 C 
ATOM     16  C   UNL     1       3.892   3.112  19.943  0.00  0.00    +0.000 C 
ENDBRANCH   4   7
BRANCH   1  18
ATOM     17  N   UNL     1       8.336   5.240  20.725  0.00  0.00    +0.000 NA
ATOM     18  C   UNL     1       7.848   5.611  19.747  0.00  0.00    +0.000 C 
ENDBRANCH   1  18
BRANCH   3  19
ATOM     19  C   UNL     1       6.032   6.495  16.067  0.00  0.00    +0.000 C 
BRANCH  19  20
ATOM     20  C   UNL     1       6.952   5.316  15.709  0.00  0.00    +0.000 C 
BRANCH  20  21
ATOM     21  C   UNL     1       6.658   4.746  14.342  0.00  0.00    +0.000 A 
ATOM     22  C   UNL     1       5.495   3.997  14.126  0.00  0.00    +0.000 A 
ATOM     23  C   UNL     1       5.259   3.403  12.885  0.00  0.00    +0.000 A 
ATOM     24  C   UNL     1       6.182   3.554  11.852  0.00  0.00    +0.000 A 
ATOM     25  C   UNL     1       7.324   4.329  12.046  0.00  0.00    +0.000 A 
ATOM     26  C   UNL     1       7.559   4.928  13.284  0.00  0.00    +0.000 A 
ENDBRANCH  20  21
ENDBRANCH  19  20
ENDBRANCH   3  19
TORSDOF 5
ENDMDL
MODEL 7
REMARK VINA RESULT:      -7.9      1.881      2.872
REMARK  Name = 
REMARK  5 active torsions:
REMARK  status: ('A' for Active; 'I' for Inactive)
REMARK    1  A    between atoms: C_2  and  N_3
REMARK    2  A    between atoms: N_5  and  C_6
REMARK    3  A    between atoms: C_6  and  C_7
REMARK    4  A    between atoms: C_7  and  C_8
REMARK    5  A    between atoms: N_14  and  C_15
REMARK                            x       y       z     vdW  Elec       q    Type
REMARK                         _______ _______ _______ _____ _____    ______ ____
ROOT
ATOM      1  N   UNL     1       1.994   4.835  21.156  0.00  0.00    +0.000 NA
ATOM      2  C   UNL     1       2.536   5.248  20.053  0.00  0.00    +0.000 C 
ATOM      3  N   UNL     1       2.327   6.536  19.635  0.00  0.00    +0.000 N 
ATOM      4  N   UNL     1       3.265   4.501  19.154  0.00  0.00    +0.000 N 
ATOM      5  H   UNL     1       1.632   6.531  18.893  0.00  0.00    +0.000 HD
ATOM      6  H   UNL     1       3.335   3.512  19.383  0.00  0.00    +0.000 HD
ENDROOT
BRANCH   4   7
ATOM      7  C   UNL     1       4.340   4.944  18.247  0.00  0.00    +0.000 C 
ATOM      8  C   UNL     1       3.968   6.215  17.444  0.00  0.00    +0.000 C 
ATOM      9  C   UNL     1       5.113   6.643  16.515  0.00  0.00    +0.000 C 
ATOM     10  C   UNL     1       6.334   6.983  17.379  0.00  0.00    +0.000 C 
ATOM     11  C   UNL     1       6.768   5.742  18.172  0.00  0.00    +0.000 C 
ATOM     12  C   UNL     1       7.118   4.623  17.179  0.00  0.00    +0.000 C 
ATOM     13  C   UNL     1       5.876   4.245  16.354  0.00  0.00    +0.000 C 
ATOM     14  C   UNL     1       5.426   5.479  15.556  0.00  0.00    +0.000 C 
ATOM     15  C   UNL     1       4.735   3.801  17.289  0.00  0.00    +0.000 C 
ATOM     16  C   UNL     1       5.612   5.278  19.085  0.00  0.00    +0.000 C 
ENDBRANCH   4   7
BRANCH   1  18
ATOM     17  N   UNL     1       2.235   2.449  21.834  0.00  0.00    +0.000 NA
ATOM     18  C   UNL     1       2.122   3.548  21.501  0.00  0.00    +0.000 C 
ENDBRANCH   1  18
BRANCH   3  19
ATOM     19  C   UNL     1       2.065   7.640  20.563  0.00  0.00    +0.000 C 
BRANCH  19  20
ATOM     20  C   UNL     1       1.191   8.724  19.913  0.00  0.00    +0.000 C 
BRANCH  20  21
ATOM     21  C   UNL     1       0.442   9.552  20.930  0.00  0.00    +0.000 A 
ATOM     22  C   UNL     1       0.368   9.132  22.264  0.00  0.00    +0.000 A 
ATOM     23  C   UNL     1      -0.387   9.853  23.190  0.00  0.00    +0.000 A 
ATOM     24  C   UNL     1      -1.074  10.998  22.791  0.00  0.00    +0.000 A 
ATOM     25  C   UNL     1      -0.976  11.445  21.474  0.00  0.00    +0.000 A 
ATOM     26  C   UNL     1      -0.216  10.729  20.548  0.00  0.00    +0.000 A 
ENDBRANCH  20  21
ENDBRANCH  19  20
ENDBRANCH   3  19
TORSDOF 5
ENDMDL
MODEL 8
REMARK VINA RESULT:      -7.9      2.536      6.507
REMARK  Name = 
REMARK  5 active torsions:
REMARK  status: ('A' for Active; 'I' for Inactive)
REMARK    1  A    between atoms: C_2  and  N_3
REMARK    2  A    between atoms: N_5  and  C_6
REMARK    3  A    between atoms: C_6  and  C_7
REMARK    4  A    between atoms: C_7  and  C_8
REMARK    5  A    between atoms: N_14  and  C_15
REMARK                            x       y       z     vdW  Elec       q    Type
REMARK                         _______ _______ _______ _____ _____    ______ ____
ROOT
ATOM      1  N   UNL     1       6.716   5.763  18.404  0.00  0.00    +0.000 NA
ATOM      2  C   UNL     1       5.442   5.532  18.474  0.00  0.00    +0.000 C 
ATOM      3  N   UNL     1       4.640   5.823  17.403  0.00  0.00    +0.000 N 
ATOM      4  N   UNL     1       4.736   5.089  19.572  0.00  0.00    +0.000 N 
ATOM      5  H   UNL     1       4.148   6.693  17.589  0.00  0.00    +0.000 HD
ATOM      6  H   UNL     1       5.292   4.977  20.417  0.00  0.00    +0.000 HD
ENDROOT
BRANCH   4   7
ATOM      7  C   UNL     1       3.496   4.291  19.608  0.00  0.00    +0.000 C 
ATOM      8  C   UNL     1       3.035   3.829  18.203  0.00  0.00    +0.000 C 
ATOM      9  C   UNL     1       1.744   3.002  18.284  0.00  0.00    +0.000 C 
ATOM     10  C   UNL     1       2.027   1.744  19.115  0.00  0.00    +0.000 C 
ATOM     11  C   UNL     1       2.456   2.147  20.534  0.00  0.00    +0.000 C 
ATOM     12  C   UNL     1       1.322   2.961  21.176  0.00  0.00    +0.000 C 
ATOM     13  C   UNL     1       1.079   4.249  20.372  0.00  0.00    +0.000 C 
ATOM     14  C   UNL     1       0.652   3.863  18.948  0.00  0.00    +0.000 C 
ATOM     15  C   UNL     1       2.373   5.083  20.307  0.00  0.00    +0.000 C 
ATOM     16  C   UNL     1       3.734   3.011  20.465  0.00  0.00    +0.000 C 
ENDBRANCH   4   7
BRANCH   1  18
ATOM     17  N   UNL     1       8.094   5.408  20.451  0.00  0.00    +0.000 NA
ATOM     18  C   UNL     1       7.472   5.569  19.492  0.00  0.00    +0.000 C 
ENDBRANCH   1  18
BRANCH   3  19
ATOM     19  C   UNL     1       5.124   5.804  16.020  0.00  0.00    +0.000 C 
BRANCH  19  20
ATOM     20  C   UNL     1       5.303   4.366  15.507  0.00  0.00    +0.000 C 
BRANCH  20  21
ATOM     21  C   UNL     1       6.065   4.305  14.205  0.00  0.00    +0.000 A 
ATOM     22  C   UNL     1       7.194   5.111  14.011  0.00  0.00    +0.000 A 
ATOM     23  C   UNL     1       7.854   5.116  12.781  0.00  0.00    +0.000 A 
ATOM     24  C   UNL     1       7.393   4.317  11.738  0.00  0.00    +0.000 A 
ATOM     25  C   UNL     1       6.293   3.483  11.933  0.00  0.00    +0.000 A 
ATOM     26  C   UNL     1       5.635   3.472  13.164  0.00  0.00    +0.000 A 
ENDBRANCH  20  21
ENDBRANCH  19  20
ENDBRANCH   3  19
TORSDOF 5
ENDMDL
MODEL 9
REMARK VINA RESULT:      -7.9      1.881      2.955
REMARK  Name = 
REMARK  5 active torsions:
REMARK  status: ('A' for Active; 'I' for Inactive)
REMARK    1  A    between atoms: C_2  and  N_3
REMARK    2  A    between atoms: N_5  and  C_6
REMARK    3  A    between atoms: C_6  and  C_7
REMARK    4  A    between atoms: C_7  and  C_8
REMARK    5  A    between atoms: N_14  and  C_15
REMARK                            x       y       z     vdW  Elec       q    Type
REMARK                         _______ _______ _______ _____ _____    ______ ____
ROOT
ATOM      1  N   UNL     1       1.971   4.853  21.169  0.00  0.00    +0.000 NA
ATOM      2  C   UNL     1       2.531   5.267  20.075  0.00  0.00    +0.000 C 
ATOM      3  N   UNL     1       2.326   6.554  19.652  0.00  0.00    +0.000 N 
ATOM      4  N   UNL     1       3.278   4.521  19.189  0.00  0.00    +0.000 N 
ATOM      5  H   UNL     1       1.644   6.546  18.898  0.00  0.00    +0.000 HD
ATOM      6  H   UNL     1       3.347   3.533  19.420  0.00  0.00    +0.000 HD
ENDROOT
BRANCH   4   7
ATOM      7  C   UNL     1       4.368   4.967  18.301  0.00  0.00    +0.000 C 
ATOM      8  C   UNL     1       5.659   5.340  19.071  0.00  0.00    +0.000 C 
ATOM      9  C   UNL     1       6.768   5.797  18.112  0.00  0.00    +0.000 C 
ATOM     10  C   UNL     1       7.108   4.630  17.177  0.00  0.00    +0.000 C 
ATOM     11  C   UNL     1       5.867   4.241  16.361  0.00  0.00    +0.000 C 
ATOM     12  C   UNL     1       5.417   5.460  15.542  0.00  0.00    +0.000 C 
ATOM     13  C   UNL     1       5.022   6.610  16.484  0.00  0.00    +0.000 C 
ATOM     14  C   UNL     1       6.254   7.009  17.311  0.00  0.00    +0.000 C 
ATOM     15  C   UNL     1       3.899   6.152  17.434  0.00  0.00    +0.000 C 
ATOM     16  C   UNL     1       4.730   3.814  17.315  0.00  0.00    +0.000 C 
ENDBRANCH   4   7
BRANCH   1  18
ATOM     17  N   UNL     1       2.231   2.453  21.789  0.00  0.00    +0.000 NA
ATOM     18  C   UNL     1       2.097   3.567  21.516  0.00  0.00    +0.000 C 
ENDBRANCH   1  18
BRANCH   3  19
ATOM     19  C   UNL     1       2.044   7.657  20.574  0.00  0.00    +0.000 C 
BRANCH  19  20
ATOM     20  C   UNL     1       1.173   8.736  19.911  0.00  0.00    +0.000 C 
BRANCH  20  21
ATOM     21  C   UNL     1       0.424   9.576  20.917  0.00  0.00    +0.000 A 
ATOM     22  C   UNL     1       0.307   9.148  22.245  0.00  0.00    +0.000 A 
ATOM     23  C   UNL     1      -0.450   9.883  23.159  0.00  0.00    +0.000 A 
ATOM     24  C   UNL     1      -1.096  11.049  22.753  0.00  0.00    +0.000 A 
ATOM     25  C   UNL     1      -0.954  11.504  21.443  0.00  0.00    +0.000 A 
ATOM     26  C   UNL     1      -0.192  10.774  20.529  0.00  0.00    +0.000 A 
ENDBRANCH  20  21
ENDBRANCH  19  20
ENDBRANCH   3  19
TORSDOF 5
ENDMDL
