MODEL 1
REMARK VINA RESULT:      -7.8      0.000      0.000
REMARK  Name = 
REMARK  10 active torsions:
REMARK  status: ('A' for Active; 'I' for Inactive)
REMARK    1  A    between atoms: C_1  and  O_2
REMARK    2  A    between atoms: O_2  and  C_3
REMARK    3  A    between atoms: C_6  and  C_7
REMARK    4  A    between atoms: C_7  and  N_8
REMARK    5  A    between atoms: N_8  and  C_9
REMARK    6  A    between atoms: C_10  and  C_12
REMARK    7  A    between atoms: C_12  and  C_13
REMARK    8  A    between atoms: C_13  and  N_14
REMARK    9  A    between atoms: C_26  and  O_27
REMARK   10  A    between atoms: O_27  and  C_28
REMARK                            x       y       z     vdW  Elec       q    Type
REMARK                         _______ _______ _______ _____ _____    ______ ____
ROOT
ATOM      1  N   UNL     1       1.185  11.421  19.462  0.00  0.00    +0.000 N 
ATOM      2  C   UNL     1       1.948  12.259  18.546  0.00  0.00    +0.000 C 
ATOM      3  C   UNL     1       1.220  10.006  19.273  0.00  0.00    +0.000 C 
ATOM      4  O   UNL     1       0.852   9.209  20.131  0.00  0.00    +0.000 OA
ENDROOT
BRANCH   1   5
ATOM      5  C   UNL     1       0.896  12.058  20.801  0.00  0.00    +0.000 C 
BRANCH   5   9
ATOM      6  C   UNL     1      -3.340  12.760  21.670  0.00  0.00    +0.000 A 
ATOM      7  C   UNL     1      -2.754  13.184  20.496  0.00  0.00    +0.000 A 
ATOM      8  C   UNL     1      -1.396  12.964  20.246  0.00  0.00    +0.000 A 
ATOM      9  C   UNL     1      -0.566  12.323  21.181  0.00  0.00    +0.000 A 
ATOM     10  C   UNL     1      -1.183  11.862  22.380  0.00  0.00    +0.000 A 
ATOM     11  C   UNL     1      -2.566  12.078  22.605  0.00  0.00    +0.000 A 
BRANCH   6  13
ATOM     12  C   UNL     1      -5.092  13.751  22.969  0.00  0.00    +0.000 C 
ATOM     13  O   UNL     1      -4.673  13.064  21.797  0.00  0.00    +0.000 OA
ENDBRANCH   6  13
BRANCH  10  14
ATOM     14  O   UNL     1      -0.405  11.179  23.294  0.00  0.00    +0.000 OA
ATOM     15  C   UNL     1      -0.452   9.746  23.235  0.00  0.00    +0.000 C 
ENDBRANCH  10  14
ENDBRANCH   5   9
ENDBRANCH   1   5
BRANCH   3  16
ATOM     16  C   UNL     1       1.792   9.500  17.909  0.00  0.00    +0.000 C 
BRANCH  16  17
ATOM     17  C   UNL     1       2.720   8.255  17.886  0.00  0.00    +0.000 C 
BRANCH  17  18
ATOM     18  N   UNL     1       2.229   7.144  18.782  0.00  0.00    +0.000 N 
ATOM     19  C   UNL     1       2.998   5.999  18.958  0.00  0.00    +0.000 C 
ATOM     20  N   UNL     1       4.067   5.847  18.225  0.00  0.00    +0.000 NA
ATOM     21  S   UNL     1       4.806   4.426  18.463  0.00  0.00    +0.000 S 
ATOM     22  O   UNL     1       4.635   3.582  17.300  0.00  0.00    +0.000 OA
ATOM     23  O   UNL     1       6.081   4.621  19.116  0.00  0.00    +0.000 OA
ATOM     24  C   UNL     1       3.694   3.862  19.673  0.00  0.00    +0.000 A 
ATOM     25  C   UNL     1       3.778   2.628  20.299  0.00  0.00    +0.000 A 
ATOM     26  C   UNL     1       2.809   2.342  21.245  0.00  0.00    +0.000 A 
ATOM     27  C   UNL     1       1.814   3.299  21.529  0.00  0.00    +0.000 A 
ATOM     28  C   UNL     1       1.763   4.552  20.857  0.00  0.00    +0.000 A 
ATOM     29  C   UNL     1       2.731   4.836  19.885  0.00  0.00    +0.000 A 
ATOM     30  H   UNL     1       1.664   7.456  19.572  0.00  0.00    +0.000 HD
ENDBRANCH  17  18
ENDBRANCH  16  17
ENDBRANCH   3  16
TORSDOF 7
ENDMDL
MODEL 2
REMARK VINA RESULT:      -7.7      3.193      4.515
REMARK  Name = 
REMARK  10 active torsions:
REMARK  status: ('A' for Active; 'I' for Inactive)
REMARK    1  A    between atoms: C_1  and  O_2
REMARK    2  A    between atoms: O_2  and  C_3
REMARK    3  A    between atoms: C_6  and  C_7
REMARK    4  A    between atoms: C_7  and  N_8
REMARK    5  A    between atoms: N_8  and  C_9
REMARK    6  A    between atoms: C_10  and  C_12
REMARK    7  A    between atoms: C_12  and  C_13
REMARK    8  A    between atoms: C_13  and  N_14
REMARK    9  A    between atoms: C_26  and  O_27
REMARK   10  A    between atoms: O_27  and  C_28
REMARK                            x       y       z     vdW  Elec       q    Type
REMARK                         _______ _______ _______ _____ _____    ______ ____
ROOT
ATOM      1  N   UNL     1      -0.072  10.267  20.226  0.00  0.00    +0.000 N 
ATOM      2  C   UNL     1       1.158  10.538  19.492  0.00  0.00    +0.000 C 
ATOM      3  C   UNL     1       0.005   9.460  21.401  0.00  0.00    +0.000 C 
ATOM      4  O   UNL     1      -0.899   9.401  22.231  0.00  0.00    +0.000 OA
ENDROOT
BRANCH   1   5
ATOM      5  C   UNL     1      -1.172  11.278  20.001  0.00  0.00    +0.000 C 
BRANCH   5   9
ATOM      6  C   UNL     1      -3.560  10.698  16.375  0.00  0.00    +0.000 A 
ATOM      7  C   UNL     1      -2.295  10.166  16.511  0.00  0.00    +0.000 A 
ATOM      8  C   UNL     1      -1.544  10.377  17.670  0.00  0.00    +0.000 A 
ATOM      9  C   UNL     1      -2.030  11.153  18.736  0.00  0.00    +0.000 A 
ATOM     10  C   UNL     1      -3.349  11.676  18.602  0.00  0.00    +0.000 A 
ATOM     11  C   UNL     1      -4.102  11.433  17.426  0.00  0.00    +0.000 A 
BRANCH   6  13
ATOM     12  C   UNL     1      -3.357  10.075  14.070  0.00  0.00    +0.000 C 
ATOM     13  O   UNL     1      -4.176  10.435  15.176  0.00  0.00    +0.000 OA
ENDBRANCH   6  13
BRANCH  10  14
ATOM     14  O   UNL     1      -3.876  12.394  19.657  0.00  0.00    +0.000 OA
ATOM     15  C   UNL     1      -5.240  12.820  19.527  0.00  0.00    +0.000 C 
ENDBRANCH  10  14
ENDBRANCH   5   9
ENDBRANCH   1   5
BRANCH   3  16
ATOM     16  C   UNL     1       1.332   8.662  21.613  0.00  0.00    +0.000 C 
BRANCH  16  17
ATOM     17  C   UNL     1       1.493   7.261  20.962  0.00  0.00    +0.000 C 
BRANCH  17  18
ATOM     18  N   UNL     1       2.556   7.234  19.890  0.00  0.00    +0.000 N 
ATOM     19  C   UNL     1       2.753   6.085  19.133  0.00  0.00    +0.000 C 
ATOM     20  N   UNL     1       2.109   5.000  19.468  0.00  0.00    +0.000 NA
ATOM     21  S   UNL     1       2.511   3.717  18.565  0.00  0.00    +0.000 S 
ATOM     22  O   UNL     1       3.270   2.776  19.360  0.00  0.00    +0.000 OA
ATOM     23  O   UNL     1       1.406   3.325  17.720  0.00  0.00    +0.000 OA
ATOM     24  C   UNL     1       3.644   4.569  17.561  0.00  0.00    +0.000 A 
ATOM     25  C   UNL     1       4.382   3.985  16.543  0.00  0.00    +0.000 A 
ATOM     26  C   UNL     1       5.236   4.816  15.838  0.00  0.00    +0.000 A 
ATOM     27  C   UNL     1       5.307   6.183  16.171  0.00  0.00    +0.000 A 
ATOM     28  C   UNL     1       4.534   6.738  17.230  0.00  0.00    +0.000 A 
ATOM     29  C   UNL     1       3.684   5.897  17.958  0.00  0.00    +0.000 A 
ATOM     30  H   UNL     1       2.717   8.132  19.432  0.00  0.00    +0.000 HD
ENDBRANCH  17  18
ENDBRANCH  16  17
ENDBRANCH   3  16
TORSDOF 7
ENDMDL
MODEL 3
REMARK VINA RESULT:      -7.7      2.698      3.868
REMARK  Name = 
REMARK  10 active torsions:
REMARK  status: ('A' for Active; 'I' for Inactive)
REMARK    1  A    between atoms: C_1  and  O_2
REMARK    2  A    between atoms: O_2  and  C_3
REMARK    3  A    between atoms: C_6  and  C_7
REMARK    4  A    between atoms: C_7  and  N_8
REMARK    5  A    between atoms: N_8  and  C_9
REMARK    6  A    between atoms: C_10  and  C_12
REMARK    7  A    between atoms: C_12  and  C_13
REMARK    8  A    between atoms: C_13  and  N_14
REMARK    9  A    between atoms: C_26  and  O_27
REMARK   10  A    between atoms: O_27  and  C_28
REMARK                            x       y       z     vdW  Elec       q    Type
REMARK                         _______ _______ _______ _____ _____    ______ ____
ROOT
ATOM      1  N   UNL     1      -0.041  11.109  20.557  0.00  0.00    +0.000 N 
ATOM      2  C   UNL     1      -0.588  11.136  21.908  0.00  0.00    +0.000 C 
ATOM      3  C   UNL     1       0.620   9.922  20.119  0.00  0.00    +0.000 C 
ATOM      4  O   UNL     1       0.866   9.692  18.938  0.00  0.00    +0.000 OA
ENDROOT
BRANCH   1   5
ATOM      5  C   UNL     1      -0.685  12.085  19.600  0.00  0.00    +0.000 C 
BRANCH   5   9
ATOM      6  C   UNL     1      -5.005  11.944  18.887  0.00  0.00    +0.000 A 
ATOM      7  C   UNL     1      -4.463  12.609  19.966  0.00  0.00    +0.000 A 
ATOM      8  C   UNL     1      -3.082  12.627  20.184  0.00  0.00    +0.000 A 
ATOM      9  C   UNL     1      -2.190  11.957  19.331  0.00  0.00    +0.000 A 
ATOM     10  C   UNL     1      -2.753  11.296  18.201  0.00  0.00    +0.000 A 
ATOM     11  C   UNL     1      -4.154  11.306  17.987  0.00  0.00    +0.000 A 
BRANCH   6  13
ATOM     12  C   UNL     1      -7.120  11.189  19.720  0.00  0.00    +0.000 C 
ATOM     13  O   UNL     1      -6.375  11.985  18.807  0.00  0.00    +0.000 OA
ENDBRANCH   6  13
BRANCH  10  14
ATOM     14  O   UNL     1      -1.896  10.676  17.313  0.00  0.00    +0.000 OA
ATOM     15  C   UNL     1      -2.500   9.993  16.206  0.00  0.00    +0.000 C 
ENDBRANCH  10  14
ENDBRANCH   5   9
ENDBRANCH   1   5
BRANCH   3  16
ATOM     16  C   UNL     1       0.998   8.886  21.226  0.00  0.00    +0.000 C 
BRANCH  16  17
ATOM     17  C   UNL     1       1.343   7.427  20.821  0.00  0.00    +0.000 C 
BRANCH  17  18
ATOM     18  N   UNL     1       2.436   7.353  19.783  0.00  0.00    +0.000 N 
ATOM     19  C   UNL     1       2.652   6.172  19.082  0.00  0.00    +0.000 C 
ATOM     20  N   UNL     1       1.994   5.104  19.442  0.00  0.00    +0.000 NA
ATOM     21  S   UNL     1       2.419   3.783  18.606  0.00  0.00    +0.000 S 
ATOM     22  O   UNL     1       3.150   2.874  19.462  0.00  0.00    +0.000 OA
ATOM     23  O   UNL     1       1.337   3.358  17.747  0.00  0.00    +0.000 OA
ATOM     24  C   UNL     1       3.583   4.589  17.601  0.00  0.00    +0.000 A 
ATOM     25  C   UNL     1       4.348   3.961  16.630  0.00  0.00    +0.000 A 
ATOM     26  C   UNL     1       5.225   4.759  15.917  0.00  0.00    +0.000 A 
ATOM     27  C   UNL     1       5.292   6.139  16.194  0.00  0.00    +0.000 A 
ATOM     28  C   UNL     1       4.491   6.740  17.205  0.00  0.00    +0.000 A 
ATOM     29  C   UNL     1       3.616   5.933  17.943  0.00  0.00    +0.000 A 
ATOM     30  H   UNL     1       2.614   8.230  19.293  0.00  0.00    +0.000 HD
ENDBRANCH  17  18
ENDBRANCH  16  17
ENDBRANCH   3  16
TORSDOF 7
ENDMDL
MODEL 4
REMARK VINA RESULT:      -7.6      2.559      3.752
REMARK  Name = 
REMARK  10 active torsions:
REMARK  status: ('A' for Active; 'I' for Inactive)
REMARK    1  A    between atoms: C_1  and  O_2
REMARK    2  A    between atoms: O_2  and  C_3
REMARK    3  A    between atoms: C_6  and  C_7
REMARK    4  A    between atoms: C_7  and  N_8
REMARK    5  A    between atoms: N_8  and  C_9
REMARK    6  A    between atoms: C_10  and  C_12
REMARK    7  A    between atoms: C_12  and  C_13
REMARK    8  A    between atoms: C_13  and  N_14
REMARK    9  A    between atoms: C_26  and  O_27
REMARK   10  A    between atoms: O_27  and  C_28
REMARK                            x       y       z     vdW  Elec       q    Type
REMARK                         _______ _______ _______ _____ _____    ______ ____
ROOT
ATOM      1  N   UNL     1       0.068  11.073  20.866  0.00  0.00    +0.000 N 
ATOM      2  C   UNL     1      -0.548  11.053  22.186  0.00  0.00    +0.000 C 
ATOM      3  C   UNL     1       0.689   9.878  20.391  0.00  0.00    +0.000 C 
ATOM      4  O   UNL     1       0.985   9.703  19.212  0.00  0.00    +0.000 OA
ENDROOT
BRANCH   1   5
ATOM      5  C   UNL     1      -0.471  12.136  19.938  0.00  0.00    +0.000 C 
BRANCH   5   9
ATOM      6  C   UNL     1      -4.558  11.530  18.483  0.00  0.00    +0.000 A 
ATOM      7  C   UNL     1      -3.474  10.906  17.902  0.00  0.00    +0.000 A 
ATOM      8  C   UNL     1      -2.176  11.126  18.372  0.00  0.00    +0.000 A 
ATOM      9  C   UNL     1      -1.914  12.004  19.437  0.00  0.00    +0.000 A 
ATOM     10  C   UNL     1      -3.040  12.624  20.052  0.00  0.00    +0.000 A 
ATOM     11  C   UNL     1      -4.350  12.371  19.574  0.00  0.00    +0.000 A 
BRANCH   6  13
ATOM     12  C   UNL     1      -6.721  10.520  18.678  0.00  0.00    +0.000 C 
ATOM     13  O   UNL     1      -5.771  11.245  17.907  0.00  0.00    +0.000 OA
ENDBRANCH   6  13
BRANCH  10  14
ATOM     14  O   UNL     1      -2.819  13.448  21.138  0.00  0.00    +0.000 OA
ATOM     15  C   UNL     1      -3.345  14.780  21.053  0.00  0.00    +0.000 C 
ENDBRANCH  10  14
ENDBRANCH   5   9
ENDBRANCH   1   5
BRANCH   3  16
ATOM     16  C   UNL     1       0.951   8.760  21.451  0.00  0.00    +0.000 C 
BRANCH  16  17
ATOM     17  C   UNL     1       1.305   7.325  20.976  0.00  0.00    +0.000 C 
BRANCH  17  18
ATOM     18  N   UNL     1       2.401   7.308  19.938  0.00  0.00    +0.000 N 
ATOM     19  C   UNL     1       2.626   6.164  19.181  0.00  0.00    +0.000 C 
ATOM     20  N   UNL     1       1.975   5.075  19.488  0.00  0.00    +0.000 NA
ATOM     21  S   UNL     1       2.410   3.799  18.591  0.00  0.00    +0.000 S 
ATOM     22  O   UNL     1       3.147   2.855  19.404  0.00  0.00    +0.000 OA
ATOM     23  O   UNL     1       1.333   3.408  17.709  0.00  0.00    +0.000 OA
ATOM     24  C   UNL     1       3.571   4.660  17.628  0.00  0.00    +0.000 A 
ATOM     25  C   UNL     1       4.342   4.085  16.630  0.00  0.00    +0.000 A 
ATOM     26  C   UNL     1       5.215   4.922  15.957  0.00  0.00    +0.000 A 
ATOM     27  C   UNL     1       5.271   6.288  16.301  0.00  0.00    +0.000 A 
ATOM     28  C   UNL     1       4.464   6.834  17.338  0.00  0.00    +0.000 A 
ATOM     29  C   UNL     1       3.594   5.986  18.034  0.00  0.00    +0.000 A 
ATOM     30  H   UNL     1       2.574   8.209  19.491  0.00  0.00    +0.000 HD
ENDBRANCH  17  18
ENDBRANCH  16  17
ENDBRANCH   3  16
TORSDOF 7
ENDMDL
MODEL 5
REMARK VINA RESULT:      -7.6      1.514      1.726
REMARK  Name = 
REMARK  10 active torsions:
REMARK  status: ('A' for Active; 'I' for Inactive)
REMARK    1  A    between atoms: C_1  and  O_2
REMARK    2  A    between atoms: O_2  and  C_3
REMARK    3  A    between atoms: C_6  and  C_7
REMARK    4  A    between atoms: C_7  and  N_8
REMARK    5  A    between atoms: N_8  and  C_9
REMARK    6  A    between atoms: C_10  and  C_12
REMARK    7  A    between atoms: C_12  and  C_13
REMARK    8  A    between atoms: C_13  and  N_14
REMARK    9  A    between atoms: C_26  and  O_27
REMARK   10  A    between atoms: O_27  and  C_28
REMARK                            x       y       z     vdW  Elec       q    Type
REMARK                         _______ _______ _______ _____ _____    ______ ____
ROOT
ATOM      1  N   UNL     1       0.051  11.023  19.185  0.00  0.00    +0.000 N 
ATOM      2  C   UNL     1      -1.062  10.182  18.763  0.00  0.00    +0.000 C 
ATOM      3  C   UNL     1       1.316  10.840  18.548  0.00  0.00    +0.000 C 
ATOM      4  O   UNL     1       2.226  11.660  18.624  0.00  0.00    +0.000 OA
ENDROOT
BRANCH   1   5
ATOM      5  C   UNL     1      -0.357  12.328  19.829  0.00  0.00    +0.000 C 
BRANCH   5   9
ATOM      6  C   UNL     1      -3.091  12.148  23.246  0.00  0.00    +0.000 A 
ATOM      7  C   UNL     1      -3.416  12.815  22.083  0.00  0.00    +0.000 A 
ATOM      8  C   UNL     1      -2.521  12.875  21.011  0.00  0.00    +0.000 A 
ATOM      9  C   UNL     1      -1.251  12.278  21.074  0.00  0.00    +0.000 A 
ATOM     10  C   UNL     1      -0.932  11.565  22.266  0.00  0.00    +0.000 A 
ATOM     11  C   UNL     1      -1.862  11.500  23.334  0.00  0.00    +0.000 A 
BRANCH   6  13
ATOM     12  C   UNL     1      -5.275  12.852  23.936  0.00  0.00    +0.000 C 
ATOM     13  O   UNL     1      -4.051  12.191  24.227  0.00  0.00    +0.000 OA
ENDBRANCH   6  13
BRANCH  10  14
ATOM     14  O   UNL     1       0.287  10.920  22.335  0.00  0.00    +0.000 OA
ATOM     15  C   UNL     1       0.259   9.525  22.667  0.00  0.00    +0.000 C 
ENDBRANCH  10  14
ENDBRANCH   5   9
ENDBRANCH   1   5
BRANCH   3  16
ATOM     16  C   UNL     1       1.487   9.538  17.701  0.00  0.00    +0.000 C 
BRANCH  16  17
ATOM     17  C   UNL     1       2.564   8.497  18.111  0.00  0.00    +0.000 C 
BRANCH  17  18
ATOM     18  N   UNL     1       2.031   7.085  18.137  0.00  0.00    +0.000 N 
ATOM     19  C   UNL     1       2.909   6.009  18.213  0.00  0.00    +0.000 C 
ATOM     20  N   UNL     1       4.189   6.242  18.113  0.00  0.00    +0.000 NA
ATOM     21  S   UNL     1       5.083   4.891  18.116  0.00  0.00    +0.000 S 
ATOM     22  O   UNL     1       5.643   4.669  16.800  0.00  0.00    +0.000 OA
ATOM     23  O   UNL     1       5.862   4.802  19.330  0.00  0.00    +0.000 OA
ATOM     24  C   UNL     1       3.740   3.803  18.291  0.00  0.00    +0.000 A 
ATOM     25  C   UNL     1       3.852   2.423  18.344  0.00  0.00    +0.000 A 
ATOM     26  C   UNL     1       2.676   1.708  18.491  0.00  0.00    +0.000 A 
ATOM     27  C   UNL     1       1.452   2.398  18.590  0.00  0.00    +0.000 A 
ATOM     28  C   UNL     1       1.384   3.818  18.524  0.00  0.00    +0.000 A 
ATOM     29  C   UNL     1       2.569   4.544  18.356  0.00  0.00    +0.000 A 
ATOM     30  H   UNL     1       1.124   6.984  18.594  0.00  0.00    +0.000 HD
ENDBRANCH  17  18
ENDBRANCH  16  17
ENDBRANCH   3  16
TORSDOF 7
ENDMDL
MODEL 6
REMARK VINA RESULT:      -7.5      2.843      3.927
REMARK  Name = 
REMARK  10 active torsions:
REMARK  status: ('A' for Active; 'I' for Inactive)
REMARK    1  A    between atoms: C_1  and  O_2
REMARK    2  A    between atoms: O_2  and  C_3
REMARK    3  A    between atoms: C_6  and  C_7
REMARK    4  A    between atoms: C_7  and  N_8
REMARK    5  A    between atoms: N_8  and  C_9
REMARK    6  A    between atoms: C_10  and  C_12
REMARK    7  A    between atoms: C_12  and  C_13
REMARK    8  A    between atoms: C_13  and  N_14
REMARK    9  A    between atoms: C_26  and  O_27
REMARK   10  A    between atoms: O_27  and  C_28
REMARK                            x       y       z     vdW  Elec       q    Type
REMARK                         _______ _______ _______ _____ _____    ______ ____
ROOT
ATOM      1  N   UNL     1       0.584   9.959  20.307  0.00  0.00    +0.000 N 
ATOM      2  C   UNL     1      -0.262   9.915  21.493  0.00  0.00    +0.000 C 
ATOM      3  C   UNL     1       1.266   8.767  19.917  0.00  0.00    +0.000 C 
ATOM      4  O   UNL     1       1.769   8.618  18.807  0.00  0.00    +0.000 OA
ENDROOT
BRANCH   1   5
ATOM      5  C   UNL     1       0.235  11.056  19.328  0.00  0.00    +0.000 C 
BRANCH   5   9
ATOM      6  C   UNL     1      -3.928  11.159  17.969  0.00  0.00    +0.000 A 
ATOM      7  C   UNL     1      -3.014  10.261  17.460  0.00  0.00    +0.000 A 
ATOM      8  C   UNL     1      -1.686  10.256  17.896  0.00  0.00    +0.000 A 
ATOM      9  C   UNL     1      -1.218  11.173  18.851  0.00  0.00    +0.000 A 
ATOM     10  C   UNL     1      -2.173  12.080  19.395  0.00  0.00    +0.000 A 
ATOM     11  C   UNL     1      -3.520  12.055  18.954  0.00  0.00    +0.000 A 
BRANCH   6  13
ATOM     12  C   UNL     1      -5.883  12.281  17.157  0.00  0.00    +0.000 C 
ATOM     13  O   UNL     1      -5.190  11.071  17.434  0.00  0.00    +0.000 OA
ENDBRANCH   6  13
BRANCH  10  14
ATOM     14  O   UNL     1      -1.756  12.957  20.378  0.00  0.00    +0.000 OA
ATOM     15  C   UNL     1      -1.255  14.226  19.937  0.00  0.00    +0.000 C 
ENDBRANCH  10  14
ENDBRANCH   5   9
ENDBRANCH   1   5
BRANCH   3  16
ATOM     16  C   UNL     1       1.318   7.618  20.975  0.00  0.00    +0.000 C 
BRANCH  16  17
ATOM     17  C   UNL     1       1.887   6.231  20.568  0.00  0.00    +0.000 C 
BRANCH  17  18
ATOM     18  N   UNL     1       3.160   6.337  19.763  0.00  0.00    +0.000 N 
ATOM     19  C   UNL     1       3.462   5.373  18.808  0.00  0.00    +0.000 C 
ATOM     20  N   UNL     1       2.704   4.312  18.731  0.00  0.00    +0.000 NA
ATOM     21  S   UNL     1       3.232   3.230  17.648  0.00  0.00    +0.000 S 
ATOM     22  O   UNL     1       3.745   2.062  18.330  0.00  0.00    +0.000 OA
ATOM     23  O   UNL     1       2.324   3.153  16.525  0.00  0.00    +0.000 OA
ATOM     24  C   UNL     1       4.602   4.165  17.133  0.00  0.00    +0.000 A 
ATOM     25  C   UNL     1       5.517   3.753  16.177  0.00  0.00    +0.000 A 
ATOM     26  C   UNL     1       6.549   4.628  15.883  0.00  0.00    +0.000 A 
ATOM     27  C   UNL     1       6.613   5.871  16.544  0.00  0.00    +0.000 A 
ATOM     28  C   UNL     1       5.654   6.250  17.524  0.00  0.00    +0.000 A 
ATOM     29  C   UNL     1       4.620   5.359  17.838  0.00  0.00    +0.000 A 
ATOM     30  H   UNL     1       3.465   7.293  19.578  0.00  0.00    +0.000 HD
ENDBRANCH  17  18
ENDBRANCH  16  17
ENDBRANCH   3  16
TORSDOF 7
ENDMDL
MODEL 7
REMARK VINA RESULT:      -7.4      1.389      2.010
REMARK  Name = 
REMARK  10 active torsions:
REMARK  status: ('A' for Active; 'I' for Inactive)
REMARK    1  A    between atoms: C_1  and  O_2
REMARK    2  A    between atoms: O_2  and  C_3
REMARK    3  A    between atoms: C_6  and  C_7
REMARK    4  A    between atoms: C_7  and  N_8
REMARK    5  A    between atoms: N_8  and  C_9
REMARK    6  A    between atoms: C_10  and  C_12
REMARK    7  A    between atoms: C_12  and  C_13
REMARK    8  A    between atoms: C_13  and  N_14
REMARK    9  A    between atoms: C_26  and  O_27
REMARK   10  A    between atoms: O_27  and  C_28
REMARK                            x       y       z     vdW  Elec       q    Type
REMARK                         _______ _______ _______ _____ _____    ______ ____
ROOT
ATOM      1  N   UNL     1       0.735  10.724  20.091  0.00  0.00    +0.000 N 
ATOM      2  C   UNL     1      -0.058   9.533  20.365  0.00  0.00    +0.000 C 
ATOM      3  C   UNL     1       1.316  10.866  18.795  0.00  0.00    +0.000 C 
ATOM      4  O   UNL     1       1.758  11.932  18.375  0.00  0.00    +0.000 OA
ENDROOT
BRANCH   1   5
ATOM      5  C   UNL     1       0.418  11.906  20.977  0.00  0.00    +0.000 C 
BRANCH   5   9
ATOM      6  C   UNL     1      -3.634  12.580  22.498  0.00  0.00    +0.000 A 
ATOM      7  C   UNL     1      -2.574  12.306  23.336  0.00  0.00    +0.000 A 
ATOM      8  C   UNL     1      -1.292  12.078  22.828  0.00  0.00    +0.000 A 
ATOM      9  C   UNL     1      -1.029  12.097  21.449  0.00  0.00    +0.000 A 
ATOM     10  C   UNL     1      -2.122  12.408  20.589  0.00  0.00    +0.000 A 
ATOM     11  C   UNL     1      -3.410  12.656  21.125  0.00  0.00    +0.000 A 
BRANCH   6  13
ATOM     12  C   UNL     1      -4.931  12.427  24.507  0.00  0.00    +0.000 C 
ATOM     13  O   UNL     1      -4.842  12.757  23.127  0.00  0.00    +0.000 OA
ENDBRANCH   6  13
BRANCH  10  14
ATOM     14  O   UNL     1      -1.882  12.490  19.231  0.00  0.00    +0.000 OA
ATOM     15  C   UNL     1      -2.780  11.770  18.375  0.00  0.00    +0.000 C 
ENDBRANCH  10  14
ENDBRANCH   5   9
ENDBRANCH   1   5
BRANCH   3  16
ATOM     16  C   UNL     1       1.337   9.587  17.897  0.00  0.00    +0.000 C 
BRANCH  16  17
ATOM     17  C   UNL     1       2.516   8.584  18.024  0.00  0.00    +0.000 C 
BRANCH  17  18
ATOM     18  N   UNL     1       2.200   7.427  18.941  0.00  0.00    +0.000 N 
ATOM     19  C   UNL     1       2.946   6.256  18.867  0.00  0.00    +0.000 C 
ATOM     20  N   UNL     1       3.815   6.130  17.901  0.00  0.00    +0.000 NA
ATOM     21  S   UNL     1       4.536   4.680  17.879  0.00  0.00    +0.000 S 
ATOM     22  O   UNL     1       4.075   3.919  16.738  0.00  0.00    +0.000 OA
ATOM     23  O   UNL     1       5.932   4.803  18.233  0.00  0.00    +0.000 OA
ATOM     24  C   UNL     1       3.708   4.061  19.275  0.00  0.00    +0.000 A 
ATOM     25  C   UNL     1       3.886   2.787  19.790  0.00  0.00    +0.000 A 
ATOM     26  C   UNL     1       3.147   2.460  20.914  0.00  0.00    +0.000 A 
ATOM     27  C   UNL     1       2.279   3.417  21.475  0.00  0.00    +0.000 A 
ATOM     28  C   UNL     1       2.123   4.713  20.908  0.00  0.00    +0.000 A 
ATOM     29  C   UNL     1       2.855   5.040  19.760  0.00  0.00    +0.000 A 
ATOM     30  H   UNL     1       1.841   7.698  19.857  0.00  0.00    +0.000 HD
ENDBRANCH  17  18
ENDBRANCH  16  17
ENDBRANCH   3  16
TORSDOF 7
ENDMDL
MODEL 8
REMARK VINA RESULT:      -7.4      6.825      9.946
REMARK  Name = 
REMARK  10 active torsions:
REMARK  status: ('A' for Active; 'I' for Inactive)
REMARK    1  A    between atoms: C_1  and  O_2
REMARK    2  A    between atoms: O_2  and  C_3
REMARK    3  A    between atoms: C_6  and  C_7
REMARK    4  A    between atoms: C_7  and  N_8
REMARK    5  A    between atoms: N_8  and  C_9
REMARK    6  A    between atoms: C_10  and  C_12
REMARK    7  A    between atoms: C_12  and  C_13
REMARK    8  A    between atoms: C_13  and  N_14
REMARK    9  A    between atoms: C_26  and  O_27
REMARK   10  A    between atoms: O_27  and  C_28
REMARK                            x       y       z     vdW  Elec       q    Type
REMARK                         _______ _______ _______ _____ _____    ______ ____
ROOT
ATOM      1  N   UNL     1       5.272   6.360  16.663  0.00  0.00    +0.000 N 
ATOM      2  C   UNL     1       4.280   7.243  17.262  0.00  0.00    +0.000 C 
ATOM      3  C   UNL     1       6.653   6.679  16.834  0.00  0.00    +0.000 C 
ATOM      4  O   UNL     1       7.555   5.875  16.617  0.00  0.00    +0.000 OA
ENDROOT
BRANCH   1   5
ATOM      5  C   UNL     1       4.786   4.952  16.406  0.00  0.00    +0.000 C 
BRANCH   5   9
ATOM      6  C   UNL     1       2.458   2.781  19.415  0.00  0.00    +0.000 A 
ATOM      7  C   UNL     1       1.896   3.229  18.238  0.00  0.00    +0.000 A 
ATOM      8  C   UNL     1       2.653   3.935  17.299  0.00  0.00    +0.000 A 
ATOM      9  C   UNL     1       4.008   4.236  17.517  0.00  0.00    +0.000 A 
ATOM     10  C   UNL     1       4.591   3.746  18.721  0.00  0.00    +0.000 A 
ATOM     11  C   UNL     1       3.811   3.014  19.651  0.00  0.00    +0.000 A 
BRANCH   6  13
ATOM     12  C   UNL     1       1.506   2.577  21.604  0.00  0.00    +0.000 C 
ATOM     13  O   UNL     1       1.596   2.125  20.259  0.00  0.00    +0.000 OA
ENDBRANCH   6  13
BRANCH  10  14
ATOM     14  O   UNL     1       5.935   3.977  18.937  0.00  0.00    +0.000 OA
ATOM     15  C   UNL     1       6.272   5.137  19.711  0.00  0.00    +0.000 C 
ENDBRANCH  10  14
ENDBRANCH   5   9
ENDBRANCH   1   5
BRANCH   3  16
ATOM     16  C   UNL     1       6.976   8.117  17.354  0.00  0.00    +0.000 C 
BRANCH  16  17
ATOM     17  C   UNL     1       8.448   8.503  17.664  0.00  0.00    +0.000 C 
BRANCH  17  18
ATOM     18  N   UNL     1       8.583   9.315  18.930  0.00  0.00    +0.000 N 
ATOM     19  C   UNL     1       9.223  10.549  18.901  0.00  0.00    +0.000 C 
ATOM     20  N   UNL     1       9.825  10.914  17.802  0.00  0.00    +0.000 NA
ATOM     21  S   UNL     1      10.612  12.322  17.944  0.00  0.00    +0.000 S 
ATOM     22  O   UNL     1      12.040  12.091  17.923  0.00  0.00    +0.000 OA
ATOM     23  O   UNL     1       9.967  13.345  17.152  0.00  0.00    +0.000 OA
ATOM     24  C   UNL     1      10.162  12.598  19.599  0.00  0.00    +0.000 A 
ATOM     25  C   UNL     1      10.560  13.695  20.346  0.00  0.00    +0.000 A 
ATOM     26  C   UNL     1      10.103  13.758  21.651  0.00  0.00    +0.000 A 
ATOM     27  C   UNL     1       9.267  12.737  22.145  0.00  0.00    +0.000 A 
ATOM     28  C   UNL     1       8.889  11.624  21.342  0.00  0.00    +0.000 A 
ATOM     29  C   UNL     1       9.365  11.547  20.027  0.00  0.00    +0.000 A 
ATOM     30  H   UNL     1       7.814   9.201  19.591  0.00  0.00    +0.000 HD
ENDBRANCH  17  18
ENDBRANCH  16  17
ENDBRANCH   3  16
TORSDOF 7
ENDMDL
MODEL 9
REMARK VINA RESULT:      -7.4      3.808     10.225
REMARK  Name = 
REMARK  10 active torsions:
REMARK  status: ('A' for Active; 'I' for Inactive)
REMARK    1  A    between atoms: C_1  and  O_2
REMARK    2  A    between atoms: O_2  and  C_3
REMARK    3  A    between atoms: C_6  and  C_7
REMARK    4  A    between atoms: C_7  and  N_8
REMARK    5  A    between atoms: N_8  and  C_9
REMARK    6  A    between atoms: C_10  and  C_12
REMARK    7  A    between atoms: C_12  and  C_13
REMARK    8  A    between atoms: C_13  and  N_14
REMARK    9  A    between atoms: C_26  and  O_27
REMARK   10  A    between atoms: O_27  and  C_28
REMARK                            x       y       z     vdW  Elec       q    Type
REMARK                         _______ _______ _______ _____ _____    ______ ____
ROOT
ATOM      1  N   UNL     1       3.701   5.232  18.782  0.00  0.00    +0.000 N 
ATOM      2  C   UNL     1       2.931   4.687  19.893  0.00  0.00    +0.000 C 
ATOM      3  C   UNL     1       3.387   6.546  18.322  0.00  0.00    +0.000 C 
ATOM      4  O   UNL     1       4.135   7.196  17.597  0.00  0.00    +0.000 OA
ENDROOT
BRANCH   1   5
ATOM      5  C   UNL     1       5.064   4.607  18.597  0.00  0.00    +0.000 C 
BRANCH   5   9
ATOM      6  C   UNL     1       6.520   4.460  14.468  0.00  0.00    +0.000 A 
ATOM      7  C   UNL     1       5.286   3.959  14.827  0.00  0.00    +0.000 A 
ATOM      8  C   UNL     1       4.848   4.001  16.154  0.00  0.00    +0.000 A 
ATOM      9  C   UNL     1       5.646   4.534  17.180  0.00  0.00    +0.000 A 
ATOM     10  C   UNL     1       6.908   5.077  16.798  0.00  0.00    +0.000 A 
ATOM     11  C   UNL     1       7.325   5.043  15.444  0.00  0.00    +0.000 A 
BRANCH   6  13
ATOM     12  C   UNL     1       6.132   3.357  12.377  0.00  0.00    +0.000 C 
ATOM     13  O   UNL     1       6.835   4.332  13.137  0.00  0.00    +0.000 OA
ENDBRANCH   6  13
BRANCH  10  14
ATOM     14  O   UNL     1       7.690   5.659  17.776  0.00  0.00    +0.000 OA
ATOM     15  C   UNL     1       7.708   7.093  17.817  0.00  0.00    +0.000 C 
ENDBRANCH  10  14
ENDBRANCH   5   9
ENDBRANCH   1   5
BRANCH   3  16
ATOM     16  C   UNL     1       2.035   7.153  18.818  0.00  0.00    +0.000 C 
BRANCH  16  17
ATOM     17  C   UNL     1       1.761   8.669  18.623  0.00  0.00    +0.000 C 
BRANCH  17  18
ATOM     18  N   UNL     1       1.176   9.320  19.853  0.00  0.00    +0.000 N 
ATOM     19  C   UNL     1       0.149  10.248  19.729  0.00  0.00    +0.000 C 
ATOM     20  N   UNL     1      -0.189  10.647  18.533  0.00  0.00    +0.000 NA
ATOM     21  S   UNL     1      -1.326  11.801  18.545  0.00  0.00    +0.000 S 
ATOM     22  O   UNL     1      -0.749  13.064  18.136  0.00  0.00    +0.000 OA
ATOM     23  O   UNL     1      -2.570  11.293  18.012  0.00  0.00    +0.000 OA
ATOM     24  C   UNL     1      -1.494  11.851  20.273  0.00  0.00    +0.000 A 
ATOM     25  C   UNL     1      -2.353  12.701  20.952  0.00  0.00    +0.000 A 
ATOM     26  C   UNL     1      -2.362  12.603  22.333  0.00  0.00    +0.000 A 
ATOM     27  C   UNL     1      -1.529  11.661  22.968  0.00  0.00    +0.000 A 
ATOM     28  C   UNL     1      -0.658  10.812  22.230  0.00  0.00    +0.000 A 
ATOM     29  C   UNL     1      -0.631  10.922  20.834  0.00  0.00    +0.000 A 
ATOM     30  H   UNL     1       1.177   8.728  20.685  0.00  0.00    +0.000 HD
ENDBRANCH  17  18
ENDBRANCH  16  17
ENDBRANCH   3  16
TORSDOF 7
ENDMDL
