MODEL 1
REMARK VINA RESULT:      -7.5      0.000      0.000
REMARK  Name = 
REMARK  5 active torsions:
REMARK  status: ('A' for Active; 'I' for Inactive)
REMARK    1  A    between atoms: N_1  and  C_2
REMARK    2  A    between atoms: C_2  and  C_3
REMARK    3  A    between atoms: C_5  and  C_6
REMARK    4  A    between atoms: C_17  and  O_18
REMARK    5  A    between atoms: C_19  and  O_20
REMARK                            x       y       z     vdW  Elec       q    Type
REMARK                         _______ _______ _______ _____ _____    ______ ____
ROOT
ATOM      1  C   UNL     1       3.086   6.365  19.862  0.00  0.00    +0.000 C 
ATOM      2  O   UNL     1       4.238   6.591  19.017  0.00  0.00    +0.000 OA
ATOM      3  C   UNL     1       4.034   6.372  17.620  0.00  0.00    +0.000 C 
ATOM      4  C   UNL     1       3.468   4.972  17.318  0.00  0.00    +0.000 C 
ATOM      5  C   UNL     1       2.519   4.429  18.336  0.00  0.00    +0.000 A 
ATOM      6  C   UNL     1       2.393   5.042  19.587  0.00  0.00    +0.000 A 
ATOM      7  C   UNL     1       1.570   4.449  20.565  0.00  0.00    +0.000 A 
ATOM      8  C   UNL     1       0.881   3.259  20.306  0.00  0.00    +0.000 A 
ATOM      9  C   UNL     1       1.024   2.661  19.062  0.00  0.00    +0.000 A 
ATOM     10  C   UNL     1       1.839   3.236  18.092  0.00  0.00    +0.000 A 
ENDROOT
BRANCH   3  11
ATOM     11  C   UNL     1       5.349   6.585  16.787  0.00  0.00    +0.000 C 
ATOM     12  C   UNL     1       6.631   6.684  17.639  0.00  0.00    +0.000 C 
ATOM     13  C   UNL     1       7.329   5.358  17.946  0.00  0.00    +0.000 C 
ATOM     14  C   UNL     1       7.496   4.477  16.709  0.00  0.00    +0.000 C 
ATOM     15  C   UNL     1       6.162   4.264  16.021  0.00  0.00    +0.000 C 
ATOM     16  C   UNL     1       5.576   5.606  15.610  0.00  0.00    +0.000 C 
ENDBRANCH   3  11
BRANCH   9  17
ATOM     17  O   UNL     1       0.394   1.488  18.740  0.00  0.00    +0.000 OA
ATOM     18  H   UNL     1      -0.272   1.682  18.062  0.00  0.00    +0.000 HD
ENDBRANCH   9  17
BRANCH  10  19
ATOM     19  O   UNL     1       1.993   2.601  16.890  0.00  0.00    +0.000 OA
ATOM     20  H   UNL     1       2.961   2.549  16.761  0.00  0.00    +0.000 HD
ENDBRANCH  10  19
BRANCH   1  21
ATOM     21  C   UNL     1       2.018   7.502  19.823  0.00  0.00    +0.000 C 
BRANCH  21  22
ATOM     22  N   UNL     1       1.658   8.052  21.132  0.00  0.00    +0.000 NA
ATOM     23  H   UNL     1       2.506   8.329  21.626  0.00  0.00    +0.000 HD
ATOM     24  H   UNL     1       1.220   7.316  21.683  0.00  0.00    +0.000 HD
ENDBRANCH  21  22
ENDBRANCH   1  21
TORSDOF 5
ENDMDL
MODEL 2
REMARK VINA RESULT:      -7.3      0.904      1.573
REMARK  Name = 
REMARK  5 active torsions:
REMARK  status: ('A' for Active; 'I' for Inactive)
REMARK    1  A    between atoms: N_1  and  C_2
REMARK    2  A    between atoms: C_2  and  C_3
REMARK    3  A    between atoms: C_5  and  C_6
REMARK    4  A    between atoms: C_17  and  O_18
REMARK    5  A    between atoms: C_19  and  O_20
REMARK                            x       y       z     vdW  Elec       q    Type
REMARK                         _______ _______ _______ _____ _____    ______ ____
ROOT
ATOM      1  C   UNL     1       3.305   5.890  19.816  0.00  0.00    +0.000 C 
ATOM      2  O   UNL     1       4.607   5.901  19.184  0.00  0.00    +0.000 OA
ATOM      3  C   UNL     1       4.626   5.557  17.798  0.00  0.00    +0.000 C 
ATOM      4  C   UNL     1       3.954   4.199  17.518  0.00  0.00    +0.000 C 
ATOM      5  C   UNL     1       2.781   3.872  18.383  0.00  0.00    +0.000 A 
ATOM      6  C   UNL     1       2.514   4.625  19.531  0.00  0.00    +0.000 A 
ATOM      7  C   UNL     1       1.465   4.231  20.386  0.00  0.00    +0.000 A 
ATOM      8  C   UNL     1       0.691   3.100  20.106  0.00  0.00    +0.000 A 
ATOM      9  C   UNL     1       0.975   2.360  18.968  0.00  0.00    +0.000 A 
ATOM     10  C   UNL     1       2.013   2.738  18.121  0.00  0.00    +0.000 A 
ENDROOT
BRANCH   3  11
ATOM     11  C   UNL     1       6.082   5.538  17.210  0.00  0.00    +0.000 C 
ATOM     12  C   UNL     1       6.557   6.895  16.649  0.00  0.00    +0.000 C 
ATOM     13  C   UNL     1       7.237   7.828  17.654  0.00  0.00    +0.000 C 
ATOM     14  C   UNL     1       8.297   7.120  18.496  0.00  0.00    +0.000 C 
ATOM     15  C   UNL     1       7.713   5.895  19.171  0.00  0.00    +0.000 C 
ATOM     16  C   UNL     1       7.179   4.934  18.121  0.00  0.00    +0.000 C 
ENDBRANCH   3  11
BRANCH   9  17
ATOM     17  O   UNL     1       0.272   1.232  18.636  0.00  0.00    +0.000 OA
ATOM     18  H   UNL     1      -0.329   1.027  19.370  0.00  0.00    +0.000 HD
ENDBRANCH   9  17
BRANCH  10  19
ATOM     19  O   UNL     1       2.296   1.965  17.028  0.00  0.00    +0.000 OA
ATOM     20  H   UNL     1       3.269   2.000  16.947  0.00  0.00    +0.000 HD
ENDBRANCH  10  19
BRANCH   1  21
ATOM     21  C   UNL     1       2.409   7.123  19.480  0.00  0.00    +0.000 C 
BRANCH  21  22
ATOM     22  N   UNL     1       1.854   7.814  20.646  0.00  0.00    +0.000 NA
ATOM     23  H   UNL     1       2.493   8.554  20.936  0.00  0.00    +0.000 HD
ATOM     24  H   UNL     1       1.797   7.151  21.418  0.00  0.00    +0.000 HD
ENDBRANCH  21  22
ENDBRANCH   1  21
TORSDOF 5
ENDMDL
MODEL 3
REMARK VINA RESULT:      -7.0      2.077      5.382
REMARK  Name = 
REMARK  5 active torsions:
REMARK  status: ('A' for Active; 'I' for Inactive)
REMARK    1  A    between atoms: N_1  and  C_2
REMARK    2  A    between atoms: C_2  and  C_3
REMARK    3  A    between atoms: C_5  and  C_6
REMARK    4  A    between atoms: C_17  and  O_18
REMARK    5  A    between atoms: C_19  and  O_20
REMARK                            x       y       z     vdW  Elec       q    Type
REMARK                         _______ _______ _______ _____ _____    ______ ____
ROOT
ATOM      1  C   UNL     1       2.817   6.963  17.560  0.00  0.00    +0.000 C 
ATOM      2  O   UNL     1       2.041   6.240  18.545  0.00  0.00    +0.000 OA
ATOM      3  C   UNL     1       2.741   5.873  19.735  0.00  0.00    +0.000 C 
ATOM      4  C   UNL     1       4.029   5.081  19.444  0.00  0.00    +0.000 C 
ATOM      5  C   UNL     1       4.761   5.480  18.205  0.00  0.00    +0.000 A 
ATOM      6  C   UNL     1       4.155   6.313  17.258  0.00  0.00    +0.000 A 
ATOM      7  C   UNL     1       4.828   6.588  16.051  0.00  0.00    +0.000 A 
ATOM      8  C   UNL     1       6.087   6.041  15.783  0.00  0.00    +0.000 A 
ATOM      9  C   UNL     1       6.670   5.211  16.730  0.00  0.00    +0.000 A 
ATOM     10  C   UNL     1       6.011   4.928  17.923  0.00  0.00    +0.000 A 
ENDROOT
BRANCH   3  11
ATOM     11  C   UNL     1       1.841   5.044  20.722  0.00  0.00    +0.000 C 
ATOM     12  C   UNL     1       0.634   4.355  20.052  0.00  0.00    +0.000 C 
ATOM     13  C   UNL     1       0.893   2.953  19.496  0.00  0.00    +0.000 C 
ATOM     14  C   UNL     1       1.629   2.051  20.485  0.00  0.00    +0.000 C 
ATOM     15  C   UNL     1       2.906   2.712  20.963  0.00  0.00    +0.000 C 
ATOM     16  C   UNL     1       2.580   4.036  21.635  0.00  0.00    +0.000 C 
ENDBRANCH   3  11
BRANCH   9  17
ATOM     17  O   UNL     1       7.893   4.626  16.533  0.00  0.00    +0.000 OA
ATOM     18  H   UNL     1       7.780   3.665  16.597  0.00  0.00    +0.000 HD
ENDBRANCH   9  17
BRANCH  10  19
ATOM     19  O   UNL     1       6.593   4.073  18.819  0.00  0.00    +0.000 OA
ATOM     20  H   UNL     1       5.865   3.810  19.416  0.00  0.00    +0.000 HD
ENDBRANCH  10  19
BRANCH   1  21
ATOM     21  C   UNL     1       3.060   8.467  17.900  0.00  0.00    +0.000 C 
BRANCH  21  22
ATOM     22  N   UNL     1       2.010   9.378  17.438  0.00  0.00    +0.000 NA
ATOM     23  H   UNL     1       2.082  10.260  17.944  0.00  0.00    +0.000 HD
ATOM     24  H   UNL     1       1.105   8.973  17.672  0.00  0.00    +0.000 HD
ENDBRANCH  21  22
ENDBRANCH   1  21
TORSDOF 5
ENDMDL
MODEL 4
REMARK VINA RESULT:      -6.7      2.498      5.816
REMARK  Name = 
REMARK  5 active torsions:
REMARK  status: ('A' for Active; 'I' for Inactive)
REMARK    1  A    between atoms: N_1  and  C_2
REMARK    2  A    between atoms: C_2  and  C_3
REMARK    3  A    between atoms: C_5  and  C_6
REMARK    4  A    between atoms: C_17  and  O_18
REMARK    5  A    between atoms: C_19  and  O_20
REMARK                            x       y       z     vdW  Elec       q    Type
REMARK                         _______ _______ _______ _____ _____    ______ ____
ROOT
ATOM      1  C   UNL     1       5.883   5.783  18.458  0.00  0.00    +0.000 C 
ATOM      2  O   UNL     1       4.478   5.771  18.804  0.00  0.00    +0.000 OA
ATOM      3  C   UNL     1       3.748   4.615  18.391  0.00  0.00    +0.000 C 
ATOM      4  C   UNL     1       3.886   4.336  16.882  0.00  0.00    +0.000 C 
ATOM      5  C   UNL     1       5.215   4.669  16.287  0.00  0.00    +0.000 A 
ATOM      6  C   UNL     1       6.143   5.433  17.003  0.00  0.00    +0.000 A 
ATOM      7  C   UNL     1       7.346   5.821  16.378  0.00  0.00    +0.000 A 
ATOM      8  C   UNL     1       7.624   5.457  15.057  0.00  0.00    +0.000 A 
ATOM      9  C   UNL     1       6.689   4.707  14.359  0.00  0.00    +0.000 A 
ATOM     10  C   UNL     1       5.496   4.324  14.965  0.00  0.00    +0.000 A 
ENDROOT
BRANCH   3  11
ATOM     11  C   UNL     1       2.223   4.713  18.756  0.00  0.00    +0.000 C 
ATOM     12  C   UNL     1       1.403   3.456  18.396  0.00  0.00    +0.000 C 
ATOM     13  C   UNL     1       1.341   2.373  19.475  0.00  0.00    +0.000 C 
ATOM     14  C   UNL     1       1.011   2.932  20.858  0.00  0.00    +0.000 C 
ATOM     15  C   UNL     1       1.975   4.041  21.229  0.00  0.00    +0.000 C 
ATOM     16  C   UNL     1       1.894   5.158  20.201  0.00  0.00    +0.000 C 
ENDBRANCH   3  11
BRANCH   9  17
ATOM     17  O   UNL     1       6.883   4.326  13.057  0.00  0.00    +0.000 OA
ATOM     18  H   UNL     1       6.842   3.358  13.018  0.00  0.00    +0.000 HD
ENDBRANCH   9  17
BRANCH  10  19
ATOM     19  O   UNL     1       4.575   3.619  14.238  0.00  0.00    +0.000 OA
ATOM     20  H   UNL     1       4.171   4.282  13.644  0.00  0.00    +0.000 HD
ENDBRANCH  10  19
BRANCH   1  21
ATOM     21  C   UNL     1       6.780   4.875  19.355  0.00  0.00    +0.000 C 
BRANCH  21  22
ATOM     22  N   UNL     1       7.788   5.592  20.141  0.00  0.00    +0.000 NA
ATOM     23  H   UNL     1       7.747   5.278  21.110  0.00  0.00    +0.000 HD
ATOM     24  H   UNL     1       7.553   6.584  20.139  0.00  0.00    +0.000 HD
ENDBRANCH  21  22
ENDBRANCH   1  21
TORSDOF 5
ENDMDL
MODEL 5
REMARK VINA RESULT:      -6.7      2.380      2.826
REMARK  Name = 
REMARK  5 active torsions:
REMARK  status: ('A' for Active; 'I' for Inactive)
REMARK    1  A    between atoms: N_1  and  C_2
REMARK    2  A    between atoms: C_2  and  C_3
REMARK    3  A    between atoms: C_5  and  C_6
REMARK    4  A    between atoms: C_17  and  O_18
REMARK    5  A    between atoms: C_19  and  O_20
REMARK                            x       y       z     vdW  Elec       q    Type
REMARK                         _______ _______ _______ _____ _____    ______ ____
ROOT
ATOM      1  C   UNL     1       2.624   5.637  18.427  0.00  0.00    +0.000 C 
ATOM      2  O   UNL     1       3.873   5.933  17.759  0.00  0.00    +0.000 OA
ATOM      3  C   UNL     1       4.615   4.801  17.303  0.00  0.00    +0.000 C 
ATOM      4  C   UNL     1       4.887   3.782  18.426  0.00  0.00    +0.000 C 
ATOM      5  C   UNL     1       3.801   3.640  19.441  0.00  0.00    +0.000 A 
ATOM      6  C   UNL     1       2.760   4.573  19.502  0.00  0.00    +0.000 A 
ATOM      7  C   UNL     1       1.806   4.475  20.536  0.00  0.00    +0.000 A 
ATOM      8  C   UNL     1       1.886   3.465  21.500  0.00  0.00    +0.000 A 
ATOM      9  C   UNL     1       2.930   2.554  21.429  0.00  0.00    +0.000 A 
ATOM     10  C   UNL     1       3.880   2.646  20.416  0.00  0.00    +0.000 A 
ENDROOT
BRANCH   3  11
ATOM     11  C   UNL     1       5.981   5.212  16.643  0.00  0.00    +0.000 C 
ATOM     12  C   UNL     1       6.092   6.712  16.298  0.00  0.00    +0.000 C 
ATOM     13  C   UNL     1       6.638   7.610  17.409  0.00  0.00    +0.000 C 
ATOM     14  C   UNL     1       7.901   7.047  18.060  0.00  0.00    +0.000 C 
ATOM     15  C   UNL     1       7.665   5.632  18.546  0.00  0.00    +0.000 C 
ATOM     16  C   UNL     1       7.261   4.746  17.378  0.00  0.00    +0.000 C 
ENDBRANCH   3  11
BRANCH   9  17
ATOM     17  O   UNL     1       3.084   1.548  22.346  0.00  0.00    +0.000 OA
ATOM     18  H   UNL     1       4.029   1.473  22.553  0.00  0.00    +0.000 HD
ENDBRANCH   9  17
BRANCH  10  19
ATOM     19  O   UNL     1       4.921   1.758  20.396  0.00  0.00    +0.000 OA
ATOM     20  H   UNL     1       5.394   1.914  21.238  0.00  0.00    +0.000 HD
ENDBRANCH  10  19
BRANCH   1  21
ATOM     21  C   UNL     1       1.457   5.233  17.473  0.00  0.00    +0.000 C 
BRANCH  21  22
ATOM     22  N   UNL     1       1.252   3.790  17.329  0.00  0.00    +0.000 NA
ATOM     23  H   UNL     1       0.279   3.565  17.533  0.00  0.00    +0.000 HD
ATOM     24  H   UNL     1       1.821   3.312  18.027  0.00  0.00    +0.000 HD
ENDBRANCH  21  22
ENDBRANCH   1  21
TORSDOF 5
ENDMDL
MODEL 6
REMARK VINA RESULT:      -6.6      1.408      1.518
REMARK  Name = 
REMARK  5 active torsions:
REMARK  status: ('A' for Active; 'I' for Inactive)
REMARK    1  A    between atoms: N_1  and  C_2
REMARK    2  A    between atoms: C_2  and  C_3
REMARK    3  A    between atoms: C_5  and  C_6
REMARK    4  A    between atoms: C_17  and  O_18
REMARK    5  A    between atoms: C_19  and  O_20
REMARK                            x       y       z     vdW  Elec       q    Type
REMARK                         _______ _______ _______ _____ _____    ______ ____
ROOT
ATOM      1  C   UNL     1       2.912   7.545  18.689  0.00  0.00    +0.000 C 
ATOM      2  O   UNL     1       4.121   7.518  17.894  0.00  0.00    +0.000 OA
ATOM      3  C   UNL     1       4.160   6.533  16.860  0.00  0.00    +0.000 C 
ATOM      4  C   UNL     1       3.884   5.112  17.386  0.00  0.00    +0.000 C 
ATOM      5  C   UNL     1       2.901   5.022  18.507  0.00  0.00    +0.000 A 
ATOM      6  C   UNL     1       2.496   6.173  19.191  0.00  0.00    +0.000 A 
ATOM      7  C   UNL     1       1.650   6.048  20.311  0.00  0.00    +0.000 A 
ATOM      8  C   UNL     1       1.212   4.794  20.750  0.00  0.00    +0.000 A 
ATOM      9  C   UNL     1       1.631   3.662  20.065  0.00  0.00    +0.000 A 
ATOM     10  C   UNL     1       2.471   3.775  18.961  0.00  0.00    +0.000 A 
ENDROOT
BRANCH   3  11
ATOM     11  C   UNL     1       5.528   6.537  16.087  0.00  0.00    +0.000 C 
ATOM     12  C   UNL     1       6.772   6.500  16.999  0.00  0.00    +0.000 C 
ATOM     13  C   UNL     1       7.272   5.106  17.383  0.00  0.00    +0.000 C 
ATOM     14  C   UNL     1       7.375   4.163  16.186  0.00  0.00    +0.000 C 
ATOM     15  C   UNL     1       6.057   4.101  15.440  0.00  0.00    +0.000 C 
ATOM     16  C   UNL     1       5.675   5.491  14.956  0.00  0.00    +0.000 C 
ENDBRANCH   3  11
BRANCH   9  17
ATOM     17  O   UNL     1       1.257   2.400  20.445  0.00  0.00    +0.000 OA
ATOM     18  H   UNL     1       1.997   1.801  20.261  0.00  0.00    +0.000 HD
ENDBRANCH   9  17
BRANCH  10  19
ATOM     19  O   UNL     1       2.900   2.639  18.331  0.00  0.00    +0.000 OA
ATOM     20  H   UNL     1       2.851   1.944  19.017  0.00  0.00    +0.000 HD
ENDBRANCH  10  19
BRANCH   1  21
ATOM     21  C   UNL     1       1.688   8.210  17.987  0.00  0.00    +0.000 C 
BRANCH  21  22
ATOM     22  N   UNL     1       1.910   9.587  17.540  0.00  0.00    +0.000 NA
ATOM     23  H   UNL     1       1.810  10.220  18.333  0.00  0.00    +0.000 HD
ATOM     24  H   UNL     1       1.182   9.831  16.870  0.00  0.00    +0.000 HD
ENDBRANCH  21  22
ENDBRANCH   1  21
TORSDOF 5
ENDMDL
MODEL 7
REMARK VINA RESULT:      -6.5      2.483      5.607
REMARK  Name = 
REMARK  5 active torsions:
REMARK  status: ('A' for Active; 'I' for Inactive)
REMARK    1  A    between atoms: N_1  and  C_2
REMARK    2  A    between atoms: C_2  and  C_3
REMARK    3  A    between atoms: C_5  and  C_6
REMARK    4  A    between atoms: C_17  and  O_18
REMARK    5  A    between atoms: C_19  and  O_20
REMARK                            x       y       z     vdW  Elec       q    Type
REMARK                         _______ _______ _______ _____ _____    ______ ____
ROOT
ATOM      1  C   UNL     1       2.745   5.280  19.548  0.00  0.00    +0.000 C 
ATOM      2  O   UNL     1       2.479   6.663  19.879  0.00  0.00    +0.000 OA
ATOM      3  C   UNL     1       2.202   7.523  18.773  0.00  0.00    +0.000 C 
ATOM      4  C   UNL     1       3.305   7.477  17.698  0.00  0.00    +0.000 C 
ATOM      5  C   UNL     1       3.957   6.148  17.504  0.00  0.00    +0.000 A 
ATOM      6  C   UNL     1       3.761   5.118  18.431  0.00  0.00    +0.000 A 
ATOM      7  C   UNL     1       4.472   3.910  18.279  0.00  0.00    +0.000 A 
ATOM      8  C   UNL     1       5.369   3.726  17.222  0.00  0.00    +0.000 A 
ATOM      9  C   UNL     1       5.557   4.761  16.317  0.00  0.00    +0.000 A 
ATOM     10  C   UNL     1       4.865   5.960  16.462  0.00  0.00    +0.000 A 
ENDROOT
BRANCH   3  11
ATOM     11  C   UNL     1       1.983   9.013  19.219  0.00  0.00    +0.000 C 
ATOM     12  C   UNL     1       1.353   9.913  18.135  0.00  0.00    +0.000 C 
ATOM     13  C   UNL     1      -0.176   9.952  18.110  0.00  0.00    +0.000 C 
ATOM     14  C   UNL     1      -0.786  10.161  19.495  0.00  0.00    +0.000 C 
ATOM     15  C   UNL     1      -0.265   9.123  20.470  0.00  0.00    +0.000 C 
ATOM     16  C   UNL     1       1.249   9.222  20.565  0.00  0.00    +0.000 C 
ENDBRANCH   3  11
BRANCH   9  17
ATOM     17  O   UNL     1       6.430   4.661  15.266  0.00  0.00    +0.000 OA
ATOM     18  H   UNL     1       7.189   5.236  15.451  0.00  0.00    +0.000 HD
ENDBRANCH   9  17
BRANCH  10  19
ATOM     19  O   UNL     1       5.103   6.977  15.577  0.00  0.00    +0.000 OA
ATOM     20  H   UNL     1       6.066   7.130  15.632  0.00  0.00    +0.000 HD
ENDBRANCH  10  19
BRANCH   1  21
ATOM     21  C   UNL     1       1.478   4.441  19.192  0.00  0.00    +0.000 C 
BRANCH  21  22
ATOM     22  N   UNL     1       0.746   3.916  20.346  0.00  0.00    +0.000 NA
ATOM     23  H   UNL     1      -0.064   4.507  20.530  0.00  0.00    +0.000 HD
ATOM     24  H   UNL     1       1.349   3.974  21.165  0.00  0.00    +0.000 HD
ENDBRANCH  21  22
ENDBRANCH   1  21
TORSDOF 5
ENDMDL
MODEL 8
REMARK VINA RESULT:      -6.3      1.655      2.498
REMARK  Name = 
REMARK  5 active torsions:
REMARK  status: ('A' for Active; 'I' for Inactive)
REMARK    1  A    between atoms: N_1  and  C_2
REMARK    2  A    between atoms: C_2  and  C_3
REMARK    3  A    between atoms: C_5  and  C_6
REMARK    4  A    between atoms: C_17  and  O_18
REMARK    5  A    between atoms: C_19  and  O_20
REMARK                            x       y       z     vdW  Elec       q    Type
REMARK                         _______ _______ _______ _____ _____    ______ ____
ROOT
ATOM      1  C   UNL     1       4.043   6.329  18.269  0.00  0.00    +0.000 C 
ATOM      2  O   UNL     1       5.141   5.674  17.591  0.00  0.00    +0.000 OA
ATOM      3  C   UNL     1       4.779   4.598  16.724  0.00  0.00    +0.000 C 
ATOM      4  C   UNL     1       3.929   3.527  17.433  0.00  0.00    +0.000 C 
ATOM      5  C   UNL     1       2.983   4.041  18.469  0.00  0.00    +0.000 A 
ATOM      6  C   UNL     1       3.086   5.356  18.935  0.00  0.00    +0.000 A 
ATOM      7  C   UNL     1       2.249   5.782  19.986  0.00  0.00    +0.000 A 
ATOM      8  C   UNL     1       1.323   4.913  20.571  0.00  0.00    +0.000 A 
ATOM      9  C   UNL     1       1.240   3.610  20.102  0.00  0.00    +0.000 A 
ATOM     10  C   UNL     1       2.066   3.178  19.069  0.00  0.00    +0.000 A 
ENDROOT
BRANCH   3  11
ATOM     11  C   UNL     1       6.034   3.909  16.076  0.00  0.00    +0.000 C 
ATOM     12  C   UNL     1       5.733   3.137  14.774  0.00  0.00    +0.000 C 
ATOM     13  C   UNL     1       5.819   3.954  13.484  0.00  0.00    +0.000 C 
ATOM     14  C   UNL     1       7.088   4.801  13.402  0.00  0.00    +0.000 C 
ATOM     15  C   UNL     1       7.226   5.676  14.631  0.00  0.00    +0.000 C 
ATOM     16  C   UNL     1       7.279   4.807  15.878  0.00  0.00    +0.000 C 
ENDBRANCH   3  11
BRANCH   9  17
ATOM     17  O   UNL     1       0.370   2.697  20.636  0.00  0.00    +0.000 OA
ATOM     18  H   UNL     1       0.491   1.857  20.165  0.00  0.00    +0.000 HD
ENDBRANCH   9  17
BRANCH  10  19
ATOM     19  O   UNL     1       1.990   1.875  18.655  0.00  0.00    +0.000 OA
ATOM     20  H   UNL     1       2.039   1.352  19.479  0.00  0.00    +0.000 HD
ENDBRANCH  10  19
BRANCH   1  21
ATOM     21  C   UNL     1       3.216   7.305  17.374  0.00  0.00    +0.000 C 
BRANCH  21  22
ATOM     22  N   UNL     1       2.766   8.524  18.050  0.00  0.00    +0.000 NA
ATOM     23  H   UNL     1       3.572   9.111  18.262  0.00  0.00    +0.000 HD
ATOM     24  H   UNL     1       2.346   8.263  18.941  0.00  0.00    +0.000 HD
ENDBRANCH  21  22
ENDBRANCH   1  21
TORSDOF 5
ENDMDL
MODEL 9
REMARK VINA RESULT:      -6.2      2.332      3.666
REMARK  Name = 
REMARK  5 active torsions:
REMARK  status: ('A' for Active; 'I' for Inactive)
REMARK    1  A    between atoms: N_1  and  C_2
REMARK    2  A    between atoms: C_2  and  C_3
REMARK    3  A    between atoms: C_5  and  C_6
REMARK    4  A    between atoms: C_17  and  O_18
REMARK    5  A    between atoms: C_19  and  O_20
REMARK                            x       y       z     vdW  Elec       q    Type
REMARK                         _______ _______ _______ _____ _____    ______ ____
ROOT
ATOM      1  C   UNL     1       3.398   2.397  17.940  0.00  0.00    +0.000 C 
ATOM      2  O   UNL     1       4.441   3.011  17.146  0.00  0.00    +0.000 OA
ATOM      3  C   UNL     1       5.294   3.920  17.842  0.00  0.00    +0.000 C 
ATOM      4  C   UNL     1       4.510   5.030  18.568  0.00  0.00    +0.000 C 
ATOM      5  C   UNL     1       3.189   4.618  19.131  0.00  0.00    +0.000 A 
ATOM      6  C   UNL     1       2.612   3.397  18.769  0.00  0.00    +0.000 A 
ATOM      7  C   UNL     1       1.318   3.081  19.233  0.00  0.00    +0.000 A 
ATOM      8  C   UNL     1       0.605   3.969  20.045  0.00  0.00    +0.000 A 
ATOM      9  C   UNL     1       1.189   5.179  20.388  0.00  0.00    +0.000 A 
ATOM     10  C   UNL     1       2.463   5.503  19.930  0.00  0.00    +0.000 A 
ENDROOT
BRANCH   3  11
ATOM     11  C   UNL     1       6.358   4.582  16.893  0.00  0.00    +0.000 C 
ATOM     12  C   UNL     1       5.862   5.854  16.174  0.00  0.00    +0.000 C 
ATOM     13  C   UNL     1       6.076   7.168  16.927  0.00  0.00    +0.000 C 
ATOM     14  C   UNL     1       7.490   7.306  17.489  0.00  0.00    +0.000 C 
ATOM     15  C   UNL     1       7.845   6.105  18.342  0.00  0.00    +0.000 C 
ATOM     16  C   UNL     1       7.755   4.837  17.508  0.00  0.00    +0.000 C 
ENDBRANCH   3  11
BRANCH   9  17
ATOM     17  O   UNL     1       0.547   6.106  21.165  0.00  0.00    +0.000 OA
ATOM     18  H   UNL     1       0.645   5.839  22.092  0.00  0.00    +0.000 HD
ENDBRANCH   9  17
BRANCH  10  19
ATOM     19  O   UNL     1       2.997   6.722  20.250  0.00  0.00    +0.000 OA
ATOM     20  H   UNL     1       3.962   6.570  20.271  0.00  0.00    +0.000 HD
ENDBRANCH  10  19
BRANCH   1  21
ATOM     21  C   UNL     1       3.886   1.248  18.877  0.00  0.00    +0.000 C 
BRANCH  21  22
ATOM     22  N   UNL     1       4.892   1.647  19.864  0.00  0.00    +0.000 NA
ATOM     23  H   UNL     1       4.886   0.985  20.639  0.00  0.00    +0.000 HD
ATOM     24  H   UNL     1       4.629   2.555  20.245  0.00  0.00    +0.000 HD
ENDBRANCH  21  22
ENDBRANCH   1  21
TORSDOF 5
ENDMDL
