MODEL 1
REMARK VINA RESULT:      -9.5      0.000      0.000
REMARK  Name = 
REMARK  4 active torsions:
REMARK  status: ('A' for Active; 'I' for Inactive)
REMARK    1  A    between atoms: C_1  and  C_2
REMARK    2  A    between atoms: C_6  and  C_7
REMARK    3  A    between atoms: C_11  and  C_12
REMARK    4  A    between atoms: C_14  and  C_15
REMARK                            x       y       z     vdW  Elec       q    Type
REMARK                         _______ _______ _______ _____ _____    ______ ____
ROOT
ATOM      1  C   UNL     1       4.232   4.577  18.655  0.00  0.00    +0.000 C 
ATOM      2  O   UNL     1       4.923   4.094  19.550  0.00  0.00    +0.000 OA
ATOM      3  N   UNL     1       4.754   4.873  17.411  0.00  0.00    +0.000 N 
ATOM      4  C   UNL     1       6.127   4.593  17.001  0.00  0.00    +0.000 C 
ATOM      5  C   UNL     1       6.242   6.033  16.485  0.00  0.00    +0.000 C 
ATOM      6  C   UNL     1       4.743   6.201  16.804  0.00  0.00    +0.000 C 
ENDROOT
BRANCH   1  12
ATOM      7  C   UNL     1       1.532   2.609  21.771  0.00  0.00    +0.000 C 
ATOM      8  C   UNL     1       2.119   2.944  20.402  0.00  0.00    +0.000 C 
ATOM      9  C   UNL     1       1.308   2.283  19.282  0.00  0.00    +0.000 C 
ATOM     10  C   UNL     1       1.845   2.653  17.902  0.00  0.00    +0.000 C 
ATOM     11  C   UNL     1       1.917   4.168  17.707  0.00  0.00    +0.000 C 
ATOM     12  C   UNL     1       2.730   4.864  18.808  0.00  0.00    +0.000 C 
ATOM     13  C   UNL     1       2.200   4.467  20.198  0.00  0.00    +0.000 C 
ENDBRANCH   1  12
BRANCH   5  14
ATOM     14  C   UNL     1       7.136   6.916  17.339  0.00  0.00    +0.000 A 
ATOM     15  N   UNL     1       7.313   8.198  17.111  0.00  0.00    +0.000 NA
ATOM     16  C   UNL     1       8.182   8.571  18.116  0.00  0.00    +0.000 A 
ATOM     17  N   UNL     1       8.540   7.559  18.922  0.00  0.00    +0.000 NA
ATOM     18  O   UNL     1       7.841   6.468  18.419  0.00  0.00    +0.000 OA
BRANCH  16  19
ATOM     19  C   UNL     1       8.627   9.948  18.295  0.00  0.00    +0.000 A 
ATOM     20  C   UNL     1       8.106  10.985  17.503  0.00  0.00    +0.000 A 
ATOM     21  C   UNL     1       8.562  12.297  17.654  0.00  0.00    +0.000 A 
ATOM     22  C   UNL     1       9.545  12.587  18.598  0.00  0.00    +0.000 A 
ATOM     23  C   UNL     1      10.062  11.566  19.392  0.00  0.00    +0.000 A 
ATOM     24 CL   UNL     1      11.281  11.925  20.554  0.00  0.00    +0.000 Cl
ATOM     25  C   UNL     1       9.609  10.254  19.249  0.00  0.00    +0.000 A 
ENDBRANCH  16  19
ENDBRANCH   5  14
TORSDOF 3
ENDMDL
MODEL 2
REMARK VINA RESULT:      -9.2      1.025      1.323
REMARK  Name = 
REMARK  4 active torsions:
REMARK  status: ('A' for Active; 'I' for Inactive)
REMARK    1  A    between atoms: C_1  and  C_2
REMARK    2  A    between atoms: C_6  and  C_7
REMARK    3  A    between atoms: C_11  and  C_12
REMARK    4  A    between atoms: C_14  and  C_15
REMARK                            x       y       z     vdW  Elec       q    Type
REMARK                         _______ _______ _______ _____ _____    ______ ____
ROOT
ATOM      1  C   UNL     1       4.341   4.665  18.237  0.00  0.00    +0.000 C 
ATOM      2  O   UNL     1       5.097   3.952  18.893  0.00  0.00    +0.000 OA
ATOM      3  N   UNL     1       4.761   5.310  17.089  0.00  0.00    +0.000 N 
ATOM      4  C   UNL     1       6.089   5.169  16.500  0.00  0.00    +0.000 C 
ATOM      5  C   UNL     1       6.185   6.697  16.409  0.00  0.00    +0.000 C 
ATOM      6  C   UNL     1       4.722   6.755  16.890  0.00  0.00    +0.000 C 
ENDROOT
BRANCH   1  12
ATOM      7  C   UNL     1       2.227   2.716  21.787  0.00  0.00    +0.000 C 
ATOM      8  C   UNL     1       2.593   3.014  20.335  0.00  0.00    +0.000 C 
ATOM      9  C   UNL     1       1.668   2.262  19.372  0.00  0.00    +0.000 C 
ATOM     10  C   UNL     1       1.982   2.593  17.914  0.00  0.00    +0.000 C 
ATOM     11  C   UNL     1       1.941   4.098  17.652  0.00  0.00    +0.000 C 
ATOM     12  C   UNL     1       2.863   4.885  18.595  0.00  0.00    +0.000 C 
ATOM     13  C   UNL     1       2.559   4.528  20.061  0.00  0.00    +0.000 C 
ENDBRANCH   1  12
BRANCH   5  14
ATOM     14  C   UNL     1       7.163   7.305  17.400  0.00  0.00    +0.000 A 
ATOM     15  N   UNL     1       7.550   8.560  17.353  0.00  0.00    +0.000 NA
ATOM     16  C   UNL     1       8.416   8.655  18.423  0.00  0.00    +0.000 A 
ATOM     17  N   UNL     1       8.571   7.503  19.094  0.00  0.00    +0.000 NA
ATOM     18  O   UNL     1       7.735   6.614  18.428  0.00  0.00    +0.000 OA
BRANCH  16  19
ATOM     19  C   UNL     1       9.063   9.906  18.799  0.00  0.00    +0.000 A 
ATOM     20  C   UNL     1       9.212  10.265  20.150  0.00  0.00    +0.000 A 
ATOM     21  C   UNL     1       9.802  11.482  20.504  0.00  0.00    +0.000 A 
ATOM     22  C   UNL     1      10.246  12.353  19.513  0.00  0.00    +0.000 A 
ATOM     23  C   UNL     1      10.109  12.002  18.172  0.00  0.00    +0.000 A 
ATOM     24 CL   UNL     1      10.654  13.083  16.948  0.00  0.00    +0.000 Cl
ATOM     25  C   UNL     1       9.525  10.787  17.811  0.00  0.00    +0.000 A 
ENDBRANCH  16  19
ENDBRANCH   5  14
TORSDOF 3
ENDMDL
MODEL 3
REMARK VINA RESULT:      -9.0      1.528      2.037
REMARK  Name = 
REMARK  4 active torsions:
REMARK  status: ('A' for Active; 'I' for Inactive)
REMARK    1  A    between atoms: C_1  and  C_2
REMARK    2  A    between atoms: C_6  and  C_7
REMARK    3  A    between atoms: C_11  and  C_12
REMARK    4  A    between atoms: C_14  and  C_15
REMARK                            x       y       z     vdW  Elec       q    Type
REMARK                         _______ _______ _______ _____ _____    ______ ____
ROOT
ATOM      1  C   UNL     1       4.382   5.119  18.649  0.00  0.00    +0.000 C 
ATOM      2  O   UNL     1       4.022   5.879  19.546  0.00  0.00    +0.000 OA
ATOM      3  N   UNL     1       5.704   4.754  18.489  0.00  0.00    +0.000 N 
ATOM      4  C   UNL     1       6.788   5.159  19.381  0.00  0.00    +0.000 C 
ATOM      5  C   UNL     1       7.609   5.577  18.155  0.00  0.00    +0.000 C 
ATOM      6  C   UNL     1       6.487   4.985  17.279  0.00  0.00    +0.000 C 
ENDROOT
BRANCH   1  12
ATOM      7  C   UNL     1       0.345   3.296  19.771  0.00  0.00    +0.000 C 
ATOM      8  C   UNL     1       1.800   3.364  19.311  0.00  0.00    +0.000 C 
ATOM      9  C   UNL     1       2.297   1.986  18.861  0.00  0.00    +0.000 C 
ATOM     10  C   UNL     1       3.733   2.045  18.343  0.00  0.00    +0.000 C 
ATOM     11  C   UNL     1       3.892   3.078  17.228  0.00  0.00    +0.000 C 
ATOM     12  C   UNL     1       3.411   4.475  17.646  0.00  0.00    +0.000 C 
ATOM     13  C   UNL     1       1.973   4.405  18.191  0.00  0.00    +0.000 C 
ENDBRANCH   1  12
BRANCH   5  14
ATOM     14  C   UNL     1       7.753   7.082  18.004  0.00  0.00    +0.000 A 
ATOM     15  N   UNL     1       8.569   7.805  18.738  0.00  0.00    +0.000 NA
ATOM     16  C   UNL     1       8.365   9.082  18.256  0.00  0.00    +0.000 A 
ATOM     17  N   UNL     1       7.450   9.148  17.276  0.00  0.00    +0.000 NA
ATOM     18  O   UNL     1       7.054   7.827  17.099  0.00  0.00    +0.000 OA
BRANCH  16  19
ATOM     19  C   UNL     1       9.111  10.233  18.748  0.00  0.00    +0.000 A 
ATOM     20  C   UNL     1       9.331  10.417  20.124  0.00  0.00    +0.000 A 
ATOM     21  C   UNL     1      10.017  11.541  20.593  0.00  0.00    +0.000 A 
ATOM     22  C   UNL     1      10.489  12.493  19.693  0.00  0.00    +0.000 A 
ATOM     23  C   UNL     1      10.282  12.315  18.327  0.00  0.00    +0.000 A 
ATOM     24 CL   UNL     1      10.861  13.495  17.216  0.00  0.00    +0.000 Cl
ATOM     25  C   UNL     1       9.602  11.194  17.851  0.00  0.00    +0.000 A 
ENDBRANCH  16  19
ENDBRANCH   5  14
TORSDOF 3
ENDMDL
MODEL 4
REMARK VINA RESULT:      -8.9      0.893      1.640
REMARK  Name = 
REMARK  4 active torsions:
REMARK  status: ('A' for Active; 'I' for Inactive)
REMARK    1  A    between atoms: C_1  and  C_2
REMARK    2  A    between atoms: C_6  and  C_7
REMARK    3  A    between atoms: C_11  and  C_12
REMARK    4  A    between atoms: C_14  and  C_15
REMARK                            x       y       z     vdW  Elec       q    Type
REMARK                         _______ _______ _______ _____ _____    ______ ____
ROOT
ATOM      1  C   UNL     1       4.451   4.046  18.043  0.00  0.00    +0.000 C 
ATOM      2  O   UNL     1       5.032   3.611  19.035  0.00  0.00    +0.000 OA
ATOM      3  N   UNL     1       5.133   4.391  16.892  0.00  0.00    +0.000 N 
ATOM      4  C   UNL     1       6.570   4.221  16.700  0.00  0.00    +0.000 C 
ATOM      5  C   UNL     1       6.651   5.669  16.201  0.00  0.00    +0.000 C 
ATOM      6  C   UNL     1       5.113   5.718  16.285  0.00  0.00    +0.000 C 
ENDROOT
BRANCH   1  12
ATOM      7  C   UNL     1       2.123   7.445  20.019  0.00  0.00    +0.000 C 
ATOM      8  C   UNL     1       2.633   6.028  19.759  0.00  0.00    +0.000 C 
ATOM      9  C   UNL     1       1.912   5.015  20.654  0.00  0.00    +0.000 C 
ATOM     10  C   UNL     1       2.366   3.585  20.368  0.00  0.00    +0.000 C 
ATOM     11  C   UNL     1       2.208   3.224  18.891  0.00  0.00    +0.000 C 
ATOM     12  C   UNL     1       2.926   4.215  17.963  0.00  0.00    +0.000 C 
ATOM     13  C   UNL     1       2.482   5.656  18.274  0.00  0.00    +0.000 C 
ENDBRANCH   1  12
BRANCH   5  14
ATOM     14  C   UNL     1       7.332   6.612  17.179  0.00  0.00    +0.000 A 
ATOM     15  N   UNL     1       7.514   7.891  16.939  0.00  0.00    +0.000 NA
ATOM     16  C   UNL     1       8.155   8.329  18.080  0.00  0.00    +0.000 A 
ATOM     17  N   UNL     1       8.376   7.358  18.980  0.00  0.00    +0.000 NA
ATOM     18  O   UNL     1       7.822   6.227  18.393  0.00  0.00    +0.000 OA
BRANCH  16  19
ATOM     19  C   UNL     1       8.516   9.726  18.288  0.00  0.00    +0.000 A 
ATOM     20  C   UNL     1       8.028  10.733  17.438  0.00  0.00    +0.000 A 
ATOM     21  C   UNL     1       8.405  12.066  17.620  0.00  0.00    +0.000 A 
ATOM     22  C   UNL     1       9.274  12.407  18.653  0.00  0.00    +0.000 A 
ATOM     23  C   UNL     1       9.757  11.417  19.505  0.00  0.00    +0.000 A 
ATOM     24 CL   UNL     1      10.837  11.839  20.778  0.00  0.00    +0.000 Cl
ATOM     25  C   UNL     1       9.382  10.084  19.331  0.00  0.00    +0.000 A 
ENDBRANCH  16  19
ENDBRANCH   5  14
TORSDOF 3
ENDMDL
MODEL 5
REMARK VINA RESULT:      -8.8      1.355      2.036
REMARK  Name = 
REMARK  4 active torsions:
REMARK  status: ('A' for Active; 'I' for Inactive)
REMARK    1  A    between atoms: C_1  and  C_2
REMARK    2  A    between atoms: C_6  and  C_7
REMARK    3  A    between atoms: C_11  and  C_12
REMARK    4  A    between atoms: C_14  and  C_15
REMARK                            x       y       z     vdW  Elec       q    Type
REMARK                         _______ _______ _______ _____ _____    ______ ____
ROOT
ATOM      1  C   UNL     1       4.095   4.414  17.901  0.00  0.00    +0.000 C 
ATOM      2  O   UNL     1       4.561   3.927  18.929  0.00  0.00    +0.000 OA
ATOM      3  N   UNL     1       4.877   4.654  16.788  0.00  0.00    +0.000 N 
ATOM      4  C   UNL     1       6.290   4.305  16.679  0.00  0.00    +0.000 C 
ATOM      5  C   UNL     1       6.578   5.724  16.173  0.00  0.00    +0.000 C 
ATOM      6  C   UNL     1       5.055   5.964  16.168  0.00  0.00    +0.000 C 
ENDROOT
BRANCH   1  12
ATOM      7  C   UNL     1       1.770   7.184  20.694  0.00  0.00    +0.000 C 
ATOM      8  C   UNL     1       2.208   5.891  20.009  0.00  0.00    +0.000 C 
ATOM      9  C   UNL     1       1.306   4.722  20.418  0.00  0.00    +0.000 C 
ATOM     10  C   UNL     1       1.693   3.431  19.699  0.00  0.00    +0.000 C 
ATOM     11  C   UNL     1       1.707   3.609  18.180  0.00  0.00    +0.000 C 
ATOM     12  C   UNL     1       2.609   4.769  17.732  0.00  0.00    +0.000 C 
ATOM     13  C   UNL     1       2.230   6.061  18.480  0.00  0.00    +0.000 C 
ENDBRANCH   1  12
BRANCH   5  14
ATOM     14  C   UNL     1       7.316   6.590  17.179  0.00  0.00    +0.000 A 
ATOM     15  N   UNL     1       7.526   7.876  17.006  0.00  0.00    +0.000 NA
ATOM     16  C   UNL     1       8.215   8.231  18.148  0.00  0.00    +0.000 A 
ATOM     17  N   UNL     1       8.435   7.205  18.985  0.00  0.00    +0.000 NA
ATOM     18  O   UNL     1       7.831   6.124  18.353  0.00  0.00    +0.000 OA
BRANCH  16  19
ATOM     19  C   UNL     1       8.622   9.604  18.422  0.00  0.00    +0.000 A 
ATOM     20  C   UNL     1       9.518   9.897  19.464  0.00  0.00    +0.000 A 
ATOM     21  C   UNL     1       9.878  11.218  19.745  0.00  0.00    +0.000 A 
ATOM     22  C   UNL     1       9.347  12.259  18.987  0.00  0.00    +0.000 A 
ATOM     23  C   UNL     1       8.464  11.977  17.948  0.00  0.00    +0.000 A 
ATOM     24 CL   UNL     1       7.803  13.265  17.017  0.00  0.00    +0.000 Cl
ATOM     25  C   UNL     1       8.103  10.660  17.659  0.00  0.00    +0.000 A 
ENDBRANCH  16  19
ENDBRANCH   5  14
TORSDOF 3
ENDMDL
MODEL 6
REMARK VINA RESULT:      -8.7      1.449      1.827
REMARK  Name = 
REMARK  4 active torsions:
REMARK  status: ('A' for Active; 'I' for Inactive)
REMARK    1  A    between atoms: C_1  and  C_2
REMARK    2  A    between atoms: C_6  and  C_7
REMARK    3  A    between atoms: C_11  and  C_12
REMARK    4  A    between atoms: C_14  and  C_15
REMARK                            x       y       z     vdW  Elec       q    Type
REMARK                         _______ _______ _______ _____ _____    ______ ____
ROOT
ATOM      1  C   UNL     1       4.421   5.135  18.702  0.00  0.00    +0.000 C 
ATOM      2  O   UNL     1       4.058   5.897  19.597  0.00  0.00    +0.000 OA
ATOM      3  N   UNL     1       5.747   4.781  18.539  0.00  0.00    +0.000 N 
ATOM      4  C   UNL     1       6.830   5.201  19.423  0.00  0.00    +0.000 C 
ATOM      5  C   UNL     1       7.641   5.620  18.191  0.00  0.00    +0.000 C 
ATOM      6  C   UNL     1       6.521   5.013  17.324  0.00  0.00    +0.000 C 
ENDROOT
BRANCH   1  12
ATOM      7  C   UNL     1       0.354   3.388  19.834  0.00  0.00    +0.000 C 
ATOM      8  C   UNL     1       1.814   3.427  19.386  0.00  0.00    +0.000 C 
ATOM      9  C   UNL     1       2.298   2.033  18.976  0.00  0.00    +0.000 C 
ATOM     10  C   UNL     1       3.739   2.062  18.470  0.00  0.00    +0.000 C 
ATOM     11  C   UNL     1       3.920   3.063  17.330  0.00  0.00    +0.000 C 
ATOM     12  C   UNL     1       3.452   4.476  17.708  0.00  0.00    +0.000 C 
ATOM     13  C   UNL     1       2.008   4.436  18.241  0.00  0.00    +0.000 C 
ENDBRANCH   1  12
BRANCH   5  14
ATOM     14  C   UNL     1       7.771   7.125  18.031  0.00  0.00    +0.000 A 
ATOM     15  N   UNL     1       8.620   7.853  18.722  0.00  0.00    +0.000 NA
ATOM     16  C   UNL     1       8.386   9.128  18.249  0.00  0.00    +0.000 A 
ATOM     17  N   UNL     1       7.422   9.189  17.318  0.00  0.00    +0.000 NA
ATOM     18  O   UNL     1       7.023   7.866  17.163  0.00  0.00    +0.000 OA
BRANCH  16  19
ATOM     19  C   UNL     1       9.152  10.284  18.701  0.00  0.00    +0.000 A 
ATOM     20  C   UNL     1      10.056  10.933  17.843  0.00  0.00    +0.000 A 
ATOM     21  C   UNL     1      10.813  12.018  18.293  0.00  0.00    +0.000 A 
ATOM     22  C   UNL     1      10.674  12.466  19.604  0.00  0.00    +0.000 A 
ATOM     23  C   UNL     1       9.775  11.833  20.459  0.00  0.00    +0.000 A 
ATOM     24 CL   UNL     1       9.610  12.384  22.082  0.00  0.00    +0.000 Cl
ATOM     25  C   UNL     1       9.014  10.751  20.017  0.00  0.00    +0.000 A 
ENDBRANCH  16  19
ENDBRANCH   5  14
TORSDOF 3
ENDMDL
MODEL 7
REMARK VINA RESULT:      -8.3      1.365      1.779
REMARK  Name = 
REMARK  4 active torsions:
REMARK  status: ('A' for Active; 'I' for Inactive)
REMARK    1  A    between atoms: C_1  and  C_2
REMARK    2  A    between atoms: C_6  and  C_7
REMARK    3  A    between atoms: C_11  and  C_12
REMARK    4  A    between atoms: C_14  and  C_15
REMARK                            x       y       z     vdW  Elec       q    Type
REMARK                         _______ _______ _______ _____ _____    ______ ____
ROOT
ATOM      1  C   UNL     1       4.492   5.024  18.682  0.00  0.00    +0.000 C 
ATOM      2  O   UNL     1       3.985   5.848  19.441  0.00  0.00    +0.000 OA
ATOM      3  N   UNL     1       5.852   4.782  18.672  0.00  0.00    +0.000 N 
ATOM      4  C   UNL     1       6.810   5.406  19.580  0.00  0.00    +0.000 C 
ATOM      5  C   UNL     1       7.692   5.752  18.375  0.00  0.00    +0.000 C 
ATOM      6  C   UNL     1       6.713   4.941  17.504  0.00  0.00    +0.000 C 
ENDROOT
BRANCH   1  12
ATOM      7  C   UNL     1       0.364   3.289  19.591  0.00  0.00    +0.000 C 
ATOM      8  C   UNL     1       1.867   3.326  19.325  0.00  0.00    +0.000 C 
ATOM      9  C   UNL     1       2.440   1.908  19.222  0.00  0.00    +0.000 C 
ATOM     10  C   UNL     1       3.932   1.925  18.899  0.00  0.00    +0.000 C 
ATOM     11  C   UNL     1       4.231   2.730  17.635  0.00  0.00    +0.000 C 
ATOM     12  C   UNL     1       3.678   4.161  17.705  0.00  0.00    +0.000 C 
ATOM     13  C   UNL     1       2.179   4.139  18.056  0.00  0.00    +0.000 C 
ENDBRANCH   1  12
BRANCH   5  14
ATOM     14  C   UNL     1       7.707   7.233  18.036  0.00  0.00    +0.000 A 
ATOM     15  N   UNL     1       8.548   8.087  18.574  0.00  0.00    +0.000 NA
ATOM     16  C   UNL     1       8.196   9.281  17.979  0.00  0.00    +0.000 A 
ATOM     17  N   UNL     1       7.169   9.173  17.122  0.00  0.00    +0.000 NA
ATOM     18  O   UNL     1       6.853   7.820  17.149  0.00  0.00    +0.000 OA
BRANCH  16  19
ATOM     19  C   UNL     1       8.908  10.527  18.240  0.00  0.00    +0.000 A 
ATOM     20  C   UNL     1       8.404  11.757  17.784  0.00  0.00    +0.000 A 
ATOM     21  C   UNL     1       9.109  12.943  18.005  0.00  0.00    +0.000 A 
ATOM     22  C   UNL     1      10.324  12.912  18.684  0.00  0.00    +0.000 A 
ATOM     23  C   UNL     1      10.828  11.699  19.146  0.00  0.00    +0.000 A 
ATOM     24 CL   UNL     1      12.333  11.662  19.980  0.00  0.00    +0.000 Cl
ATOM     25  C   UNL     1      10.128  10.511  18.932  0.00  0.00    +0.000 A 
ENDBRANCH  16  19
ENDBRANCH   5  14
TORSDOF 3
ENDMDL
MODEL 8
REMARK VINA RESULT:      -8.2      1.170      1.731
REMARK  Name = 
REMARK  4 active torsions:
REMARK  status: ('A' for Active; 'I' for Inactive)
REMARK    1  A    between atoms: C_1  and  C_2
REMARK    2  A    between atoms: C_6  and  C_7
REMARK    3  A    between atoms: C_11  and  C_12
REMARK    4  A    between atoms: C_14  and  C_15
REMARK                            x       y       z     vdW  Elec       q    Type
REMARK                         _______ _______ _______ _____ _____    ______ ____
ROOT
ATOM      1  C   UNL     1       4.343   5.290  18.394  0.00  0.00    +0.000 C 
ATOM      2  O   UNL     1       4.693   5.054  19.549  0.00  0.00    +0.000 OA
ATOM      3  N   UNL     1       5.235   5.251  17.340  0.00  0.00    +0.000 N 
ATOM      4  C   UNL     1       6.639   4.870  17.459  0.00  0.00    +0.000 C 
ATOM      5  C   UNL     1       7.022   6.125  16.666  0.00  0.00    +0.000 C 
ATOM      6  C   UNL     1       5.516   6.375  16.452  0.00  0.00    +0.000 C 
ENDROOT
BRANCH   1  12
ATOM      7  C   UNL     1       1.455   7.743  20.947  0.00  0.00    +0.000 C 
ATOM      8  C   UNL     1       2.061   6.526  20.252  0.00  0.00    +0.000 C 
ATOM      9  C   UNL     1       1.156   5.300  20.407  0.00  0.00    +0.000 C 
ATOM     10  C   UNL     1       1.717   4.087  19.669  0.00  0.00    +0.000 C 
ATOM     11  C   UNL     1       1.981   4.391  18.194  0.00  0.00    +0.000 C 
ATOM     12  C   UNL     1       2.893   5.612  17.999  0.00  0.00    +0.000 C 
ATOM     13  C   UNL     1       2.335   6.824  18.767  0.00  0.00    +0.000 C 
ENDBRANCH   1  12
BRANCH   5  14
ATOM     14  C   UNL     1       7.691   7.197  17.510  0.00  0.00    +0.000 A 
ATOM     15  N   UNL     1       7.830   8.443  17.115  0.00  0.00    +0.000 NA
ATOM     16  C   UNL     1       8.476   9.033  18.182  0.00  0.00    +0.000 A 
ATOM     17  N   UNL     1       8.741   8.184  19.187  0.00  0.00    +0.000 NA
ATOM     18  O   UNL     1       8.212   6.975  18.751  0.00  0.00    +0.000 OA
BRANCH  16  19
ATOM     19  C   UNL     1       8.799  10.454  18.214  0.00  0.00    +0.000 A 
ATOM     20  C   UNL     1       7.994  11.393  17.546  0.00  0.00    +0.000 A 
ATOM     21  C   UNL     1       8.328  12.750  17.551  0.00  0.00    +0.000 A 
ATOM     22  C   UNL     1       9.469  13.183  18.222  0.00  0.00    +0.000 A 
ATOM     23  C   UNL     1      10.268  12.260  18.893  0.00  0.00    +0.000 A 
ATOM     24 CL   UNL     1      11.681  12.797  19.716  0.00  0.00    +0.000 Cl
ATOM     25  C   UNL     1       9.940  10.904  18.895  0.00  0.00    +0.000 A 
ENDBRANCH  16  19
ENDBRANCH   5  14
TORSDOF 3
ENDMDL
MODEL 9
REMARK VINA RESULT:      -7.8      1.378      1.551
REMARK  Name = 
REMARK  4 active torsions:
REMARK  status: ('A' for Active; 'I' for Inactive)
REMARK    1  A    between atoms: C_1  and  C_2
REMARK    2  A    between atoms: C_6  and  C_7
REMARK    3  A    between atoms: C_11  and  C_12
REMARK    4  A    between atoms: C_14  and  C_15
REMARK                            x       y       z     vdW  Elec       q    Type
REMARK                         _______ _______ _______ _____ _____    ______ ____
ROOT
ATOM      1  C   UNL     1       5.019   5.393  18.922  0.00  0.00    +0.000 C 
ATOM      2  O   UNL     1       5.718   4.967  19.840  0.00  0.00    +0.000 OA
ATOM      3  N   UNL     1       5.551   5.699  17.684  0.00  0.00    +0.000 N 
ATOM      4  C   UNL     1       6.947   5.496  17.310  0.00  0.00    +0.000 C 
ATOM      5  C   UNL     1       6.987   6.931  16.771  0.00  0.00    +0.000 C 
ATOM      6  C   UNL     1       5.474   7.013  17.054  0.00  0.00    +0.000 C 
ENDROOT
BRANCH   1  12
ATOM      7  C   UNL     1       2.267   2.816  21.503  0.00  0.00    +0.000 C 
ATOM      8  C   UNL     1       2.903   3.404  20.245  0.00  0.00    +0.000 C 
ATOM      9  C   UNL     1       2.180   2.915  18.986  0.00  0.00    +0.000 C 
ATOM     10  C   UNL     1       2.766   3.537  17.721  0.00  0.00    +0.000 C 
ATOM     11  C   UNL     1       2.775   5.064  17.791  0.00  0.00    +0.000 C 
ATOM     12  C   UNL     1       3.500   5.592  19.038  0.00  0.00    +0.000 C 
ATOM     13  C   UNL     1       2.922   4.941  20.308  0.00  0.00    +0.000 C 
ENDBRANCH   1  12
BRANCH   5  14
ATOM     14  C   UNL     1       7.807   7.880  17.629  0.00  0.00    +0.000 A 
ATOM     15  N   UNL     1       8.093   9.112  17.269  0.00  0.00    +0.000 NA
ATOM     16  C   UNL     1       8.835   9.577  18.335  0.00  0.00    +0.000 A 
ATOM     17  N   UNL     1       9.015   8.667  19.305  0.00  0.00    +0.000 NA
ATOM     18  O   UNL     1       8.327   7.550  18.847  0.00  0.00    +0.000 OA
BRANCH  16  19
ATOM     19  C   UNL     1       9.336  10.945  18.403  0.00  0.00    +0.000 A 
ATOM     20  C   UNL     1       8.672  11.921  19.165  0.00  0.00    +0.000 A 
ATOM     21  C   UNL     1       9.136  13.239  19.198  0.00  0.00    +0.000 A 
ATOM     22  C   UNL     1      10.268  13.595  18.469  0.00  0.00    +0.000 A 
ATOM     23  C   UNL     1      10.937  12.632  17.717  0.00  0.00    +0.000 A 
ATOM     24 CL   UNL     1      12.332  13.076  16.812  0.00  0.00    +0.000 Cl
ATOM     25  C   UNL     1      10.481  11.314  17.682  0.00  0.00    +0.000 A 
ENDBRANCH  16  19
ENDBRANCH   5  14
TORSDOF 3
ENDMDL
