MODEL 1
REMARK VINA RESULT:      -7.8      0.000      0.000
REMARK  Name = 
REMARK  12 active torsions:
REMARK  status: ('A' for Active; 'I' for Inactive)
REMARK    1  A    between atoms: C_1  and  O_2
REMARK    2  A    between atoms: O_2  and  C_3
REMARK    3  A    between atoms: C_8  and  C_9
REMARK    4  A    between atoms: C_10  and  C_11
REMARK    5  A    between atoms: C_11  and  C_12
REMARK    6  A    between atoms: C_12  and  N_13
REMARK    7  A    between atoms: N_13  and  C_14
REMARK    8  A    between atoms: C_14  and  C_15
REMARK    9  A    between atoms: C_15  and  C_16
REMARK   10  A    between atoms: C_17  and  C_18
REMARK   11  A    between atoms: C_22  and  C_23
REMARK   12  A    between atoms: C_22  and  C_24
REMARK                            x       y       z     vdW  Elec       q    Type
REMARK                         _______ _______ _______ _____ _____    ______ ____
ROOT
ATOM      1  C   UNL     1       2.872   6.619  18.895  0.00  0.00    +0.000 C 
ENDROOT
BRANCH   1   9
ATOM      2  C   UNL     1       6.862   6.028  16.544  0.00  0.00    +0.000 A 
ATOM      3  C   UNL     1       6.912   4.814  15.857  0.00  0.00    +0.000 A 
ATOM      4  C   UNL     1       5.848   3.907  15.919  0.00  0.00    +0.000 A 
ATOM      5  C   UNL     1       4.736   4.257  16.693  0.00  0.00    +0.000 A 
ATOM      6  N   UNL     1       3.566   3.574  16.920  0.00  0.00    +0.000 N 
ATOM      7  C   UNL     1       2.733   4.299  17.736  0.00  0.00    +0.000 A 
ATOM      8  C   UNL     1       1.384   3.789  18.096  0.00  0.00    +0.000 C 
ATOM      9  C   UNL     1       3.391   5.476  18.067  0.00  0.00    +0.000 A 
ATOM     10  C   UNL     1       4.661   5.449  17.404  0.00  0.00    +0.000 A 
ATOM     11  C   UNL     1       5.747   6.345  17.328  0.00  0.00    +0.000 A 
ATOM     12  H   UNL     1       3.347   2.672  16.519  0.00  0.00    +0.000 HD
BRANCH   2  14
ATOM     13  C   UNL     1       7.729   7.987  17.542  0.00  0.00    +0.000 C 
ATOM     14  O   UNL     1       7.859   6.967  16.559  0.00  0.00    +0.000 OA
ENDBRANCH   2  14
ENDBRANCH   1   9
BRANCH   1  15
ATOM     15  C   UNL     1       1.907   7.478  18.065  0.00  0.00    +0.000 C 
BRANCH  15  16
ATOM     16  N   UNL     1       2.502   8.734  17.588  0.00  0.00    +0.000 NA
ATOM     17  H   UNL     1       2.495   8.741  16.569  0.00  0.00    +0.000 HD
BRANCH  16  18
ATOM     18  C   UNL     1       1.742   9.907  18.071  0.00  0.00    +0.000 C 
BRANCH  18  19
ATOM     19  C   UNL     1       0.762   9.561  19.210  0.00  0.00    +0.000 C 
BRANCH  19  20
ATOM     20  C   UNL     1      -0.355  10.567  19.481  0.00  0.00    +0.000 C 
ATOM     21  C   UNL     1      -1.394  10.750  18.622  0.00  0.00    +0.000 C 
ATOM     22  C   UNL     1      -1.645   9.969  17.356  0.00  0.00    +0.000 C 
ATOM     23  C   UNL     1      -2.475  11.786  18.857  0.00  0.00    +0.000 C 
ATOM     24  C   UNL     1      -2.156  12.786  19.956  0.00  0.00    +0.000 C 
ATOM     25  C   UNL     1      -1.595  12.055  21.161  0.00  0.00    +0.000 C 
ATOM     26  C   UNL     1      -0.270  11.316  20.833  0.00  0.00    +0.000 C 
ATOM     27  C   UNL     1      -0.025  10.359  22.029  0.00  0.00    +0.000 C 
ATOM     28  C   UNL     1       0.888  12.332  20.771  0.00  0.00    +0.000 C 
ENDBRANCH  19  20
ENDBRANCH  18  19
ENDBRANCH  16  18
ENDBRANCH  15  16
ENDBRANCH   1  15
TORSDOF 7
ENDMDL
MODEL 2
REMARK VINA RESULT:      -7.6      2.310      4.057
REMARK  Name = 
REMARK  12 active torsions:
REMARK  status: ('A' for Active; 'I' for Inactive)
REMARK    1  A    between atoms: C_1  and  O_2
REMARK    2  A    between atoms: O_2  and  C_3
REMARK    3  A    between atoms: C_8  and  C_9
REMARK    4  A    between atoms: C_10  and  C_11
REMARK    5  A    between atoms: C_11  and  C_12
REMARK    6  A    between atoms: C_12  and  N_13
REMARK    7  A    between atoms: N_13  and  C_14
REMARK    8  A    between atoms: C_14  and  C_15
REMARK    9  A    between atoms: C_15  and  C_16
REMARK   10  A    between atoms: C_17  and  C_18
REMARK   11  A    between atoms: C_22  and  C_23
REMARK   12  A    between atoms: C_22  and  C_24
REMARK                            x       y       z     vdW  Elec       q    Type
REMARK                         _______ _______ _______ _____ _____    ______ ____
ROOT
ATOM      1  C   UNL     1       3.211   7.478  18.468  0.00  0.00    +0.000 C 
ENDROOT
BRANCH   1   9
ATOM      2  C   UNL     1       1.714   3.200  19.589  0.00  0.00    +0.000 A 
ATOM      3  C   UNL     1       2.275   2.203  18.790  0.00  0.00    +0.000 A 
ATOM      4  C   UNL     1       3.177   2.520  17.768  0.00  0.00    +0.000 A 
ATOM      5  C   UNL     1       3.494   3.870  17.573  0.00  0.00    +0.000 A 
ATOM      6  N   UNL     1       4.342   4.457  16.666  0.00  0.00    +0.000 N 
ATOM      7  C   UNL     1       4.366   5.819  16.839  0.00  0.00    +0.000 A 
ATOM      8  C   UNL     1       5.244   6.678  16.002  0.00  0.00    +0.000 C 
ATOM      9  C   UNL     1       3.491   6.127  17.872  0.00  0.00    +0.000 A 
ATOM     10  C   UNL     1       2.939   4.889  18.338  0.00  0.00    +0.000 A 
ATOM     11  C   UNL     1       2.031   4.544  19.360  0.00  0.00    +0.000 A 
ATOM     12  H   UNL     1       4.887   3.947  15.984  0.00  0.00    +0.000 HD
BRANCH   2  14
ATOM     13  C   UNL     1       1.358   2.528  21.826  0.00  0.00    +0.000 C 
ATOM     14  O   UNL     1       0.811   2.988  20.596  0.00  0.00    +0.000 OA
ENDBRANCH   2  14
ENDBRANCH   1   9
BRANCH   1  15
ATOM     15  C   UNL     1       1.983   8.108  17.797  0.00  0.00    +0.000 C 
BRANCH  15  16
ATOM     16  N   UNL     1       2.191   9.505  17.386  0.00  0.00    +0.000 NA
ATOM     17  H   UNL     1       1.722   9.664  16.496  0.00  0.00    +0.000 HD
BRANCH  16  18
ATOM     18  C   UNL     1       1.639  10.446  18.384  0.00  0.00    +0.000 C 
BRANCH  18  19
ATOM     19  C   UNL     1       0.249  10.026  18.904  0.00  0.00    +0.000 C 
BRANCH  19  20
ATOM     20  C   UNL     1      -0.075  10.381  20.353  0.00  0.00    +0.000 C 
ATOM     21  C   UNL     1       0.165   9.526  21.384  0.00  0.00    +0.000 C 
ATOM     22  C   UNL     1       0.833   8.177  21.278  0.00  0.00    +0.000 C 
ATOM     23  C   UNL     1      -0.205   9.851  22.817  0.00  0.00    +0.000 C 
ATOM     24  C   UNL     1      -1.113  11.059  22.972  0.00  0.00    +0.000 C 
ATOM     25  C   UNL     1      -0.612  12.188  22.092  0.00  0.00    +0.000 C 
ATOM     26  C   UNL     1      -0.626  11.809  20.586  0.00  0.00    +0.000 C 
ATOM     27  C   UNL     1       0.222  12.897  19.879  0.00  0.00    +0.000 C 
ATOM     28  C   UNL     1      -2.069  11.882  20.048  0.00  0.00    +0.000 C 
ENDBRANCH  19  20
ENDBRANCH  18  19
ENDBRANCH  16  18
ENDBRANCH  15  16
ENDBRANCH   1  15
TORSDOF 7
ENDMDL
MODEL 3
REMARK VINA RESULT:      -7.6      1.175      2.245
REMARK  Name = 
REMARK  12 active torsions:
REMARK  status: ('A' for Active; 'I' for Inactive)
REMARK    1  A    between atoms: C_1  and  O_2
REMARK    2  A    between atoms: O_2  and  C_3
REMARK    3  A    between atoms: C_8  and  C_9
REMARK    4  A    between atoms: C_10  and  C_11
REMARK    5  A    between atoms: C_11  and  C_12
REMARK    6  A    between atoms: C_12  and  N_13
REMARK    7  A    between atoms: N_13  and  C_14
REMARK    8  A    between atoms: C_14  and  C_15
REMARK    9  A    between atoms: C_15  and  C_16
REMARK   10  A    between atoms: C_17  and  C_18
REMARK   11  A    between atoms: C_22  and  C_23
REMARK   12  A    between atoms: C_22  and  C_24
REMARK                            x       y       z     vdW  Elec       q    Type
REMARK                         _______ _______ _______ _____ _____    ______ ____
ROOT
ATOM      1  C   UNL     1       2.534   6.646  18.512  0.00  0.00    +0.000 C 
ENDROOT
BRANCH   1   9
ATOM      2  C   UNL     1       6.703   5.966  16.525  0.00  0.00    +0.000 A 
ATOM      3  C   UNL     1       6.853   4.679  16.006  0.00  0.00    +0.000 A 
ATOM      4  C   UNL     1       5.826   3.734  16.115  0.00  0.00    +0.000 A 
ATOM      5  C   UNL     1       4.648   4.122  16.763  0.00  0.00    +0.000 A 
ATOM      6  N   UNL     1       3.494   3.415  16.999  0.00  0.00    +0.000 N 
ATOM      7  C   UNL     1       2.575   4.195  17.658  0.00  0.00    +0.000 A 
ATOM      8  C   UNL     1       1.227   3.667  17.992  0.00  0.00    +0.000 C 
ATOM      9  C   UNL     1       3.158   5.436  17.876  0.00  0.00    +0.000 A 
ATOM     10  C   UNL     1       4.472   5.389  17.307  0.00  0.00    +0.000 A 
ATOM     11  C   UNL     1       5.523   6.322  17.187  0.00  0.00    +0.000 A 
ATOM     12  H   UNL     1       3.342   2.459  16.705  0.00  0.00    +0.000 HD
BRANCH   2  14
ATOM     13  C   UNL     1       7.687   7.824  17.604  0.00  0.00    +0.000 C 
ATOM     14  O   UNL     1       7.656   6.948  16.484  0.00  0.00    +0.000 OA
ENDBRANCH   2  14
ENDBRANCH   1   9
BRANCH   1  15
ATOM     15  C   UNL     1       2.799   6.646  20.024  0.00  0.00    +0.000 C 
BRANCH  15  16
ATOM     16  N   UNL     1       1.587   6.843  20.832  0.00  0.00    +0.000 NA
ATOM     17  H   UNL     1       1.703   6.373  21.729  0.00  0.00    +0.000 HD
BRANCH  16  18
ATOM     18  C   UNL     1       1.336   8.279  21.083  0.00  0.00    +0.000 C 
BRANCH  18  19
ATOM     19  C   UNL     1      -0.099   8.712  20.722  0.00  0.00    +0.000 C 
BRANCH  19  20
ATOM     20  C   UNL     1      -0.321  10.202  20.472  0.00  0.00    +0.000 C 
ATOM     21  C   UNL     1      -0.637  11.069  21.471  0.00  0.00    +0.000 C 
ATOM     22  C   UNL     1      -0.739  10.731  22.938  0.00  0.00    +0.000 C 
ATOM     23  C   UNL     1      -0.913  12.538  21.220  0.00  0.00    +0.000 C 
ATOM     24  C   UNL     1      -1.093  12.901  19.755  0.00  0.00    +0.000 C 
ATOM     25  C   UNL     1      -0.015  12.227  18.928  0.00  0.00    +0.000 C 
ATOM     26  C   UNL     1      -0.090  10.678  19.017  0.00  0.00    +0.000 C 
ATOM     27  C   UNL     1       1.250  10.167  18.428  0.00  0.00    +0.000 C 
ATOM     28  C   UNL     1      -1.245  10.165  18.133  0.00  0.00    +0.000 C 
ENDBRANCH  19  20
ENDBRANCH  18  19
ENDBRANCH  16  18
ENDBRANCH  15  16
ENDBRANCH   1  15
TORSDOF 7
ENDMDL
MODEL 4
REMARK VINA RESULT:      -7.5      3.078      8.879
REMARK  Name = 
REMARK  12 active torsions:
REMARK  status: ('A' for Active; 'I' for Inactive)
REMARK    1  A    between atoms: C_1  and  O_2
REMARK    2  A    between atoms: O_2  and  C_3
REMARK    3  A    between atoms: C_8  and  C_9
REMARK    4  A    between atoms: C_10  and  C_11
REMARK    5  A    between atoms: C_11  and  C_12
REMARK    6  A    between atoms: C_12  and  N_13
REMARK    7  A    between atoms: N_13  and  C_14
REMARK    8  A    between atoms: C_14  and  C_15
REMARK    9  A    between atoms: C_15  and  C_16
REMARK   10  A    between atoms: C_17  and  C_18
REMARK   11  A    between atoms: C_22  and  C_23
REMARK   12  A    between atoms: C_22  and  C_24
REMARK                            x       y       z     vdW  Elec       q    Type
REMARK                         _______ _______ _______ _____ _____    ______ ____
ROOT
ATOM      1  C   UNL     1       0.641   9.746  19.777  0.00  0.00    +0.000 C 
ENDROOT
BRANCH   1   9
ATOM      2  C   UNL     1      -2.692  10.259  16.547  0.00  0.00    +0.000 A 
ATOM      3  C   UNL     1      -3.659  11.197  16.910  0.00  0.00    +0.000 A 
ATOM      4  C   UNL     1      -3.586  11.870  18.135  0.00  0.00    +0.000 A 
ATOM      5  C   UNL     1      -2.513  11.569  18.983  0.00  0.00    +0.000 A 
ATOM      6  N   UNL     1      -2.193  12.076  20.219  0.00  0.00    +0.000 N 
ATOM      7  C   UNL     1      -1.036  11.506  20.690  0.00  0.00    +0.000 A 
ATOM      8  C   UNL     1      -0.458  11.922  21.994  0.00  0.00    +0.000 C 
ATOM      9  C   UNL     1      -0.606  10.586  19.744  0.00  0.00    +0.000 A 
ATOM     10  C   UNL     1      -1.544  10.627  18.661  0.00  0.00    +0.000 A 
ATOM     11  C   UNL     1      -1.641   9.960  17.422  0.00  0.00    +0.000 A 
ATOM     12  H   UNL     1      -2.729  12.788  20.698  0.00  0.00    +0.000 HD
BRANCH   2  14
ATOM     13  C   UNL     1      -3.401  10.122  14.298  0.00  0.00    +0.000 C 
ATOM     14  O   UNL     1      -2.690   9.539  15.383  0.00  0.00    +0.000 OA
ENDBRANCH   2  14
ENDBRANCH   1   9
BRANCH   1  15
ATOM     15  C   UNL     1       0.535   8.684  20.880  0.00  0.00    +0.000 C 
BRANCH  15  16
ATOM     16  N   UNL     1       1.767   7.904  21.064  0.00  0.00    +0.000 NA
ATOM     17  H   UNL     1       1.687   7.349  21.915  0.00  0.00    +0.000 HD
BRANCH  16  18
ATOM     18  C   UNL     1       1.998   6.988  19.926  0.00  0.00    +0.000 C 
BRANCH  18  19
ATOM     19  C   UNL     1       2.928   5.811  20.280  0.00  0.00    +0.000 C 
BRANCH  19  20
ATOM     20  C   UNL     1       2.877   4.597  19.355  0.00  0.00    +0.000 C 
ATOM     21  C   UNL     1       3.452   4.596  18.122  0.00  0.00    +0.000 C 
ATOM     22  C   UNL     1       4.265   5.717  17.523  0.00  0.00    +0.000 C 
ATOM     23  C   UNL     1       3.357   3.415  17.177  0.00  0.00    +0.000 C 
ATOM     24  C   UNL     1       2.341   2.362  17.590  0.00  0.00    +0.000 C 
ATOM     25  C   UNL     1       2.477   2.079  19.074  0.00  0.00    +0.000 C 
ATOM     26  C   UNL     1       2.193   3.337  19.939  0.00  0.00    +0.000 C 
ATOM     27  C   UNL     1       2.706   2.985  21.359  0.00  0.00    +0.000 C 
ATOM     28  C   UNL     1       0.672   3.582  20.012  0.00  0.00    +0.000 C 
ENDBRANCH  19  20
ENDBRANCH  18  19
ENDBRANCH  16  18
ENDBRANCH  15  16
ENDBRANCH   1  15
TORSDOF 7
ENDMDL
MODEL 5
REMARK VINA RESULT:      -7.5      0.916      1.947
REMARK  Name = 
REMARK  12 active torsions:
REMARK  status: ('A' for Active; 'I' for Inactive)
REMARK    1  A    between atoms: C_1  and  O_2
REMARK    2  A    between atoms: O_2  and  C_3
REMARK    3  A    between atoms: C_8  and  C_9
REMARK    4  A    between atoms: C_10  and  C_11
REMARK    5  A    between atoms: C_11  and  C_12
REMARK    6  A    between atoms: C_12  and  N_13
REMARK    7  A    between atoms: N_13  and  C_14
REMARK    8  A    between atoms: C_14  and  C_15
REMARK    9  A    between atoms: C_15  and  C_16
REMARK   10  A    between atoms: C_17  and  C_18
REMARK   11  A    between atoms: C_22  and  C_23
REMARK   12  A    between atoms: C_22  and  C_24
REMARK                            x       y       z     vdW  Elec       q    Type
REMARK                         _______ _______ _______ _____ _____    ______ ____
ROOT
ATOM      1  C   UNL     1       2.668   7.153  18.550  0.00  0.00    +0.000 C 
ENDROOT
BRANCH   1   9
ATOM      2  C   UNL     1       6.868   6.267  16.714  0.00  0.00    +0.000 A 
ATOM      3  C   UNL     1       6.992   4.956  16.252  0.00  0.00    +0.000 A 
ATOM      4  C   UNL     1       5.934   4.048  16.369  0.00  0.00    +0.000 A 
ATOM      5  C   UNL     1       4.751   4.497  16.967  0.00  0.00    +0.000 A 
ATOM      6  N   UNL     1       3.570   3.835  17.198  0.00  0.00    +0.000 N 
ATOM      7  C   UNL     1       2.657   4.668  17.798  0.00  0.00    +0.000 A 
ATOM      8  C   UNL     1       1.285   4.194  18.113  0.00  0.00    +0.000 C 
ATOM      9  C   UNL     1       3.272   5.899  17.982  0.00  0.00    +0.000 A 
ATOM     10  C   UNL     1       4.599   5.790  17.454  0.00  0.00    +0.000 A 
ATOM     11  C   UNL     1       5.681   6.686  17.326  0.00  0.00    +0.000 A 
ATOM     12  H   UNL     1       3.397   2.872  16.939  0.00  0.00    +0.000 HD
BRANCH   2  14
ATOM     13  C   UNL     1       7.761   8.253  17.633  0.00  0.00    +0.000 C 
ATOM     14  O   UNL     1       7.851   7.218  16.660  0.00  0.00    +0.000 OA
ENDBRANCH   2  14
ENDBRANCH   1   9
BRANCH   1  15
ATOM     15  C   UNL     1       2.066   8.007  17.426  0.00  0.00    +0.000 C 
BRANCH  15  16
ATOM     16  N   UNL     1       2.060   9.447  17.723  0.00  0.00    +0.000 NA
ATOM     17  H   UNL     1       1.396   9.912  17.105  0.00  0.00    +0.000 HD
BRANCH  16  18
ATOM     18  C   UNL     1       1.660   9.706  19.123  0.00  0.00    +0.000 C 
BRANCH  18  19
ATOM     19  C   UNL     1       0.177  10.106  19.261  0.00  0.00    +0.000 C 
BRANCH  19  20
ATOM     20  C   UNL     1      -0.271  10.601  20.635  0.00  0.00    +0.000 C 
ATOM     21  C   UNL     1      -0.374   9.773  21.709  0.00  0.00    +0.000 C 
ATOM     22  C   UNL     1      -0.003   8.311  21.740  0.00  0.00    +0.000 C 
ATOM     23  C   UNL     1      -0.872  10.247  23.060  0.00  0.00    +0.000 C 
ATOM     24  C   UNL     1      -1.512  11.625  23.044  0.00  0.00    +0.000 C 
ATOM     25  C   UNL     1      -0.657  12.574  22.227  0.00  0.00    +0.000 C 
ATOM     26  C   UNL     1      -0.531  12.123  20.746  0.00  0.00    +0.000 C 
ATOM     27  C   UNL     1       0.625  12.970  20.155  0.00  0.00    +0.000 C 
ATOM     28  C   UNL     1      -1.830  12.466  19.990  0.00  0.00    +0.000 C 
ENDBRANCH  19  20
ENDBRANCH  18  19
ENDBRANCH  16  18
ENDBRANCH  15  16
ENDBRANCH   1  15
TORSDOF 7
ENDMDL
MODEL 6
REMARK VINA RESULT:      -7.5      1.500      2.513
REMARK  Name = 
REMARK  12 active torsions:
REMARK  status: ('A' for Active; 'I' for Inactive)
REMARK    1  A    between atoms: C_1  and  O_2
REMARK    2  A    between atoms: O_2  and  C_3
REMARK    3  A    between atoms: C_8  and  C_9
REMARK    4  A    between atoms: C_10  and  C_11
REMARK    5  A    between atoms: C_11  and  C_12
REMARK    6  A    between atoms: C_12  and  N_13
REMARK    7  A    between atoms: N_13  and  C_14
REMARK    8  A    between atoms: C_14  and  C_15
REMARK    9  A    between atoms: C_15  and  C_16
REMARK   10  A    between atoms: C_17  and  C_18
REMARK   11  A    between atoms: C_22  and  C_23
REMARK   12  A    between atoms: C_22  and  C_24
REMARK                            x       y       z     vdW  Elec       q    Type
REMARK                         _______ _______ _______ _____ _____    ______ ____
ROOT
ATOM      1  C   UNL     1       2.577   7.693  18.867  0.00  0.00    +0.000 C 
ENDROOT
BRANCH   1   9
ATOM      2  C   UNL     1       5.353   5.243  16.023  0.00  0.00    +0.000 A 
ATOM      3  C   UNL     1       5.275   3.867  16.242  0.00  0.00    +0.000 A 
ATOM      4  C   UNL     1       4.441   3.342  17.236  0.00  0.00    +0.000 A 
ATOM      5  C   UNL     1       3.692   4.242  18.003  0.00  0.00    +0.000 A 
ATOM      6  N   UNL     1       2.800   4.008  19.020  0.00  0.00    +0.000 N 
ATOM      7  C   UNL     1       2.276   5.189  19.485  0.00  0.00    +0.000 A 
ATOM      8  C   UNL     1       1.253   5.198  20.562  0.00  0.00    +0.000 C 
ATOM      9  C   UNL     1       2.862   6.220  18.764  0.00  0.00    +0.000 A 
ATOM     10  C   UNL     1       3.760   5.618  17.823  0.00  0.00    +0.000 A 
ATOM     11  C   UNL     1       4.609   6.123  16.817  0.00  0.00    +0.000 A 
ATOM     12  H   UNL     1       2.552   3.088  19.359  0.00  0.00    +0.000 HD
BRANCH   2  14
ATOM     13  C   UNL     1       6.924   4.971  14.279  0.00  0.00    +0.000 C 
ATOM     14  O   UNL     1       6.152   5.848  15.090  0.00  0.00    +0.000 OA
ENDBRANCH   2  14
ENDBRANCH   1   9
BRANCH   1  15
ATOM     15  C   UNL     1       2.136   8.243  17.504  0.00  0.00    +0.000 C 
BRANCH  15  16
ATOM     16  N   UNL     1       1.642   9.627  17.562  0.00  0.00    +0.000 NA
ATOM     17  H   UNL     1       0.777   9.696  17.028  0.00  0.00    +0.000 HD
BRANCH  16  18
ATOM     18  C   UNL     1       1.369  10.042  18.955  0.00  0.00    +0.000 C 
BRANCH  18  19
ATOM     19  C   UNL     1      -0.123  10.330  19.216  0.00  0.00    +0.000 C 
BRANCH  19  20
ATOM     20  C   UNL     1      -0.499  10.758  20.633  0.00  0.00    +0.000 C 
ATOM     21  C   UNL     1      -0.425   9.909  21.693  0.00  0.00    +0.000 C 
ATOM     22  C   UNL     1       0.093   8.493  21.660  0.00  0.00    +0.000 C 
ATOM     23  C   UNL     1      -0.849  10.311  23.092  0.00  0.00    +0.000 C 
ATOM     24  C   UNL     1      -1.625  11.616  23.161  0.00  0.00    +0.000 C 
ATOM     25  C   UNL     1      -0.943  12.659  22.296  0.00  0.00    +0.000 C 
ATOM     26  C   UNL     1      -0.901  12.243  20.800  0.00  0.00    +0.000 C 
ATOM     27  C   UNL     1       0.108  13.212  20.132  0.00  0.00    +0.000 C 
ATOM     28  C   UNL     1      -2.288  12.462  20.164  0.00  0.00    +0.000 C 
ENDBRANCH  19  20
ENDBRANCH  18  19
ENDBRANCH  16  18
ENDBRANCH  15  16
ENDBRANCH   1  15
TORSDOF 7
ENDMDL
MODEL 7
REMARK VINA RESULT:      -7.4      1.535      2.164
REMARK  Name = 
REMARK  12 active torsions:
REMARK  status: ('A' for Active; 'I' for Inactive)
REMARK    1  A    between atoms: C_1  and  O_2
REMARK    2  A    between atoms: O_2  and  C_3
REMARK    3  A    between atoms: C_8  and  C_9
REMARK    4  A    between atoms: C_10  and  C_11
REMARK    5  A    between atoms: C_11  and  C_12
REMARK    6  A    between atoms: C_12  and  N_13
REMARK    7  A    between atoms: N_13  and  C_14
REMARK    8  A    between atoms: C_14  and  C_15
REMARK    9  A    between atoms: C_15  and  C_16
REMARK   10  A    between atoms: C_17  and  C_18
REMARK   11  A    between atoms: C_22  and  C_23
REMARK   12  A    between atoms: C_22  and  C_24
REMARK                            x       y       z     vdW  Elec       q    Type
REMARK                         _______ _______ _______ _____ _____    ______ ____
ROOT
ATOM      1  C   UNL     1       2.834   7.688  18.916  0.00  0.00    +0.000 C 
ENDROOT
BRANCH   1   9
ATOM      2  C   UNL     1       5.378   5.195  15.898  0.00  0.00    +0.000 A 
ATOM      3  C   UNL     1       5.224   3.818  16.067  0.00  0.00    +0.000 A 
ATOM      4  C   UNL     1       4.389   3.304  17.065  0.00  0.00    +0.000 A 
ATOM      5  C   UNL     1       3.717   4.215  17.888  0.00  0.00    +0.000 A 
ATOM      6  N   UNL     1       2.841   3.993  18.923  0.00  0.00    +0.000 N 
ATOM      7  C   UNL     1       2.401   5.184  19.448  0.00  0.00    +0.000 A 
ATOM      8  C   UNL     1       1.411   5.209  20.555  0.00  0.00    +0.000 C 
ATOM      9  C   UNL     1       3.028   6.207  18.748  0.00  0.00    +0.000 A 
ATOM     10  C   UNL     1       3.861   5.591  17.759  0.00  0.00    +0.000 A 
ATOM     11  C   UNL     1       4.710   6.085  16.747  0.00  0.00    +0.000 A 
ATOM     12  H   UNL     1       2.548   3.076  19.234  0.00  0.00    +0.000 HD
BRANCH   2  14
ATOM     13  C   UNL     1       6.967   4.903  14.173  0.00  0.00    +0.000 C 
ATOM     14  O   UNL     1       6.185   5.789  14.965  0.00  0.00    +0.000 OA
ENDBRANCH   2  14
ENDBRANCH   1   9
BRANCH   1  15
ATOM     15  C   UNL     1       1.761   8.195  17.943  0.00  0.00    +0.000 C 
BRANCH  15  16
ATOM     16  N   UNL     1       1.969   9.586  17.513  0.00  0.00    +0.000 NA
ATOM     17  H   UNL     1       1.638   9.692  16.555  0.00  0.00    +0.000 HD
BRANCH  16  18
ATOM     18  C   UNL     1       1.227  10.531  18.375  0.00  0.00    +0.000 C 
BRANCH  18  19
ATOM     19  C   UNL     1      -0.037   9.909  19.002  0.00  0.00    +0.000 C 
BRANCH  19  20
ATOM     20  C   UNL     1      -0.513  10.512  20.321  0.00  0.00    +0.000 C 
ATOM     21  C   UNL     1      -1.289  11.628  20.374  0.00  0.00    +0.000 C 
ATOM     22  C   UNL     1      -1.847  12.376  19.189  0.00  0.00    +0.000 C 
ATOM     23  C   UNL     1      -1.718  12.263  21.682  0.00  0.00    +0.000 C 
ATOM     24  C   UNL     1      -0.987  11.736  22.905  0.00  0.00    +0.000 C 
ATOM     25  C   UNL     1      -0.911  10.222  22.838  0.00  0.00    +0.000 C 
ATOM     26  C   UNL     1      -0.119   9.729  21.597  0.00  0.00    +0.000 C 
ATOM     27  C   UNL     1      -0.430   8.214  21.486  0.00  0.00    +0.000 C 
ATOM     28  C   UNL     1       1.393   9.904  21.845  0.00  0.00    +0.000 C 
ENDBRANCH  19  20
ENDBRANCH  18  19
ENDBRANCH  16  18
ENDBRANCH  15  16
ENDBRANCH   1  15
TORSDOF 7
ENDMDL
MODEL 8
REMARK VINA RESULT:      -7.4      0.908      1.468
REMARK  Name = 
REMARK  12 active torsions:
REMARK  status: ('A' for Active; 'I' for Inactive)
REMARK    1  A    between atoms: C_1  and  O_2
REMARK    2  A    between atoms: O_2  and  C_3
REMARK    3  A    between atoms: C_8  and  C_9
REMARK    4  A    between atoms: C_10  and  C_11
REMARK    5  A    between atoms: C_11  and  C_12
REMARK    6  A    between atoms: C_12  and  N_13
REMARK    7  A    between atoms: N_13  and  C_14
REMARK    8  A    between atoms: C_14  and  C_15
REMARK    9  A    between atoms: C_15  and  C_16
REMARK   10  A    between atoms: C_17  and  C_18
REMARK   11  A    between atoms: C_22  and  C_23
REMARK   12  A    between atoms: C_22  and  C_24
REMARK                            x       y       z     vdW  Elec       q    Type
REMARK                         _______ _______ _______ _____ _____    ______ ____
ROOT
ATOM      1  C   UNL     1       2.670   6.845  18.656  0.00  0.00    +0.000 C 
ENDROOT
BRANCH   1   9
ATOM      2  C   UNL     1       6.792   6.153  16.576  0.00  0.00    +0.000 A 
ATOM      3  C   UNL     1       6.902   4.888  15.997  0.00  0.00    +0.000 A 
ATOM      4  C   UNL     1       5.853   3.965  16.078  0.00  0.00    +0.000 A 
ATOM      5  C   UNL     1       4.694   4.352  16.761  0.00  0.00    +0.000 A 
ATOM      6  N   UNL     1       3.526   3.664  16.982  0.00  0.00    +0.000 N 
ATOM      7  C   UNL     1       2.637   4.435  17.690  0.00  0.00    +0.000 A 
ATOM      8  C   UNL     1       1.280   3.926  18.019  0.00  0.00    +0.000 C 
ATOM      9  C   UNL     1       3.254   5.650  17.955  0.00  0.00    +0.000 A 
ATOM     10  C   UNL     1       4.559   5.596  17.365  0.00  0.00    +0.000 A 
ATOM     11  C   UNL     1       5.631   6.508  17.271  0.00  0.00    +0.000 A 
ATOM     12  H   UNL     1       3.346   2.727  16.647  0.00  0.00    +0.000 HD
BRANCH   2  14
ATOM     13  C   UNL     1       7.844   7.928  17.729  0.00  0.00    +0.000 C 
ATOM     14  O   UNL     1       7.770   7.112  16.566  0.00  0.00    +0.000 OA
ENDBRANCH   2  14
ENDBRANCH   1   9
BRANCH   1  15
ATOM     15  C   UNL     1       2.955   8.121  17.852  0.00  0.00    +0.000 C 
BRANCH  15  16
ATOM     16  N   UNL     1       1.742   8.869  17.490  0.00  0.00    +0.000 NA
ATOM     17  H   UNL     1       0.974   8.214  17.353  0.00  0.00    +0.000 HD
BRANCH  16  18
ATOM     18  C   UNL     1       1.361   9.823  18.554  0.00  0.00    +0.000 C 
BRANCH  18  19
ATOM     19  C   UNL     1      -0.098   9.651  19.022  0.00  0.00    +0.000 C 
BRANCH  19  20
ATOM     20  C   UNL     1      -0.505  10.410  20.284  0.00  0.00    +0.000 C 
ATOM     21  C   UNL     1      -1.198  11.580  20.238  0.00  0.00    +0.000 C 
ATOM     22  C   UNL     1      -1.724  12.250  18.993  0.00  0.00    +0.000 C 
ATOM     23  C   UNL     1      -1.556  12.366  21.484  0.00  0.00    +0.000 C 
ATOM     24  C   UNL     1      -0.841  11.905  22.743  0.00  0.00    +0.000 C 
ATOM     25  C   UNL     1      -0.874  10.391  22.821  0.00  0.00    +0.000 C 
ATOM     26  C   UNL     1      -0.143   9.726  21.624  0.00  0.00    +0.000 C 
ATOM     27  C   UNL     1      -0.563   8.233  21.663  0.00  0.00    +0.000 C 
ATOM     28  C   UNL     1       1.382   9.813  21.836  0.00  0.00    +0.000 C 
ENDBRANCH  19  20
ENDBRANCH  18  19
ENDBRANCH  16  18
ENDBRANCH  15  16
ENDBRANCH   1  15
TORSDOF 7
ENDMDL
MODEL 9
REMARK VINA RESULT:      -7.4      2.159      3.514
REMARK  Name = 
REMARK  12 active torsions:
REMARK  status: ('A' for Active; 'I' for Inactive)
REMARK    1  A    between atoms: C_1  and  O_2
REMARK    2  A    between atoms: O_2  and  C_3
REMARK    3  A    between atoms: C_8  and  C_9
REMARK    4  A    between atoms: C_10  and  C_11
REMARK    5  A    between atoms: C_11  and  C_12
REMARK    6  A    between atoms: C_12  and  N_13
REMARK    7  A    between atoms: N_13  and  C_14
REMARK    8  A    between atoms: C_14  and  C_15
REMARK    9  A    between atoms: C_15  and  C_16
REMARK   10  A    between atoms: C_17  and  C_18
REMARK   11  A    between atoms: C_22  and  C_23
REMARK   12  A    between atoms: C_22  and  C_24
REMARK                            x       y       z     vdW  Elec       q    Type
REMARK                         _______ _______ _______ _____ _____    ______ ____
ROOT
ATOM      1  C   UNL     1       3.112   7.192  18.643  0.00  0.00    +0.000 C 
ENDROOT
BRANCH   1   9
ATOM      2  C   UNL     1       1.972   2.758  19.560  0.00  0.00    +0.000 A 
ATOM      3  C   UNL     1       2.599   1.850  18.707  0.00  0.00    +0.000 A 
ATOM      4  C   UNL     1       3.459   2.289  17.693  0.00  0.00    +0.000 A 
ATOM      5  C   UNL     1       3.666   3.667  17.563  0.00  0.00    +0.000 A 
ATOM      6  N   UNL     1       4.452   4.364  16.679  0.00  0.00    +0.000 N 
ATOM      7  C   UNL     1       4.372   5.714  16.920  0.00  0.00    +0.000 A 
ATOM      8  C   UNL     1       5.167   6.680  16.119  0.00  0.00    +0.000 C 
ATOM      9  C   UNL     1       3.490   5.899  17.976  0.00  0.00    +0.000 A 
ATOM     10  C   UNL     1       3.043   4.600  18.384  0.00  0.00    +0.000 A 
ATOM     11  C   UNL     1       2.179   4.133  19.396  0.00  0.00    +0.000 A 
ATOM     12  H   UNL     1       5.026   3.933  15.966  0.00  0.00    +0.000 HD
BRANCH   2  14
ATOM     13  C   UNL     1       1.518   2.776  21.879  0.00  0.00    +0.000 C 
ATOM     14  O   UNL     1       1.103   2.426  20.564  0.00  0.00    +0.000 OA
ENDBRANCH   2  14
ENDBRANCH   1   9
BRANCH   1  15
ATOM     15  C   UNL     1       1.951   7.857  17.890  0.00  0.00    +0.000 C 
BRANCH  15  16
ATOM     16  N   UNL     1       2.276   9.195  17.376  0.00  0.00    +0.000 NA
ATOM     17  H   UNL     1       1.858   9.309  16.453  0.00  0.00    +0.000 HD
BRANCH  16  18
ATOM     18  C   UNL     1       1.749  10.255  18.264  0.00  0.00    +0.000 C 
BRANCH  18  19
ATOM     19  C   UNL     1       0.678   9.739  19.246  0.00  0.00    +0.000 C 
BRANCH  19  20
ATOM     20  C   UNL     1      -0.477  10.688  19.557  0.00  0.00    +0.000 C 
ATOM     21  C   UNL     1      -1.530  10.855  18.712  0.00  0.00    +0.000 C 
ATOM     22  C   UNL     1      -1.758  10.106  17.422  0.00  0.00    +0.000 C 
ATOM     23  C   UNL     1      -2.652  11.836  18.989  0.00  0.00    +0.000 C 
ATOM     24  C   UNL     1      -2.366  12.811  20.119  0.00  0.00    +0.000 C 
ATOM     25  C   UNL     1      -1.765  12.066  21.295  0.00  0.00    +0.000 C 
ATOM     26  C   UNL     1      -0.413  11.394  20.933  0.00  0.00    +0.000 C 
ATOM     27  C   UNL     1      -0.119  10.409  22.094  0.00  0.00    +0.000 C 
ATOM     28  C   UNL     1       0.701  12.459  20.897  0.00  0.00    +0.000 C 
ENDBRANCH  19  20
ENDBRANCH  18  19
ENDBRANCH  16  18
ENDBRANCH  15  16
ENDBRANCH   1  15
TORSDOF 7
ENDMDL
