MODEL 1
REMARK VINA RESULT:      -8.1      0.000      0.000
REMARK  Name = 
REMARK  7 active torsions:
REMARK  status: ('A' for Active; 'I' for Inactive)
REMARK    1  A    between atoms: C_1  and  C_2
REMARK    2  A    between atoms: N_4  and  C_5
REMARK    3  A    between atoms: C_7  and  N_8
REMARK    4  A    between atoms: C_11  and  N_12
REMARK    5  A    between atoms: N_12  and  C_13
REMARK    6  A    between atoms: C_19  and  C_20
REMARK    7  A    between atoms: C_27  and  C_28
REMARK                            x       y       z     vdW  Elec       q    Type
REMARK                         _______ _______ _______ _____ _____    ______ ____
ROOT
ATOM      1  N   UNL     1       2.876   7.779  17.784  0.00  0.00    +0.000 N 
ATOM      2  C   UNL     1       3.279   6.477  17.611  0.00  0.00    +0.000 A 
ATOM      3  C   UNL     1       4.650   6.257  17.035  0.00  0.00    +0.000 A 
ATOM      4  C   UNL     1       5.096   4.995  16.910  0.00  0.00    +0.000 A 
ATOM      5  N   UNL     1       4.205   3.949  17.262  0.00  0.00    +0.000 N 
ATOM      6  N   UNL     1       4.422   2.599  17.164  0.00  0.00    +0.000 NA
ATOM      7  C   UNL     1       3.333   2.054  17.713  0.00  0.00    +0.000 A 
ATOM      8  C   UNL     1       2.404   3.008  18.145  0.00  0.00    +0.000 A 
ATOM      9  C   UNL     1       2.942   4.221  17.793  0.00  0.00    +0.000 A 
ATOM     10  N   UNL     1       2.482   5.493  17.942  0.00  0.00    +0.000 NA
ATOM     11  H   UNL     1       3.085   8.439  17.047  0.00  0.00    +0.000 HD
ENDROOT
BRANCH   1  14
ATOM     12  C   UNL     1       0.245   9.795  19.448  0.00  0.00    +0.000 A 
ATOM     13  C   UNL     1       1.150   9.285  18.506  0.00  0.00    +0.000 A 
ATOM     14  C   UNL     1       2.040   8.252  18.809  0.00  0.00    +0.000 A 
ATOM     15  C   UNL     1       2.002   7.732  20.106  0.00  0.00    +0.000 A 
ATOM     16  F   UNL     1       2.863   6.776  20.489  0.00  0.00    +0.000 F 
ATOM     17  C   UNL     1       1.125   8.238  21.066  0.00  0.00    +0.000 A 
ATOM     18  C   UNL     1       0.233   9.288  20.773  0.00  0.00    +0.000 A 
BRANCH  12  22
ATOM     19  C   UNL     1      -2.455  12.028  18.046  0.00  0.00    +0.000 C 
ATOM     20  C   UNL     1      -1.814  10.702  18.344  0.00  0.00    +0.000 C 
ATOM     21  O   UNL     1      -2.315   9.662  17.929  0.00  0.00    +0.000 OA
ATOM     22  N   UNL     1      -0.658  10.829  19.097  0.00  0.00    +0.000 N 
ATOM     23  H   UNL     1      -0.474  11.737  19.502  0.00  0.00    +0.000 HD
ENDBRANCH  12  22
BRANCH  18  24
ATOM     24  C   UNL     1      -0.738   9.758  21.841  0.00  0.00    +0.000 C 
ATOM     25  C   UNL     1      -0.336   9.836  23.298  0.00  0.00    +0.000 C 
ATOM     26  C   UNL     1      -0.532  11.095  22.515  0.00  0.00    +0.000 C 
ENDBRANCH  18  24
ENDBRANCH   1  14
BRANCH   4  27
ATOM     27  N   UNL     1       6.381   4.625  16.521  0.00  0.00    +0.000 N 
ATOM     28  H   UNL     1       6.965   4.378  17.327  0.00  0.00    +0.000 HD
BRANCH  27  29
ATOM     29  C   UNL     1       6.668   4.016  15.227  0.00  0.00    +0.000 C 
ATOM     30  C   UNL     1       5.782   4.181  14.023  0.00  0.00    +0.000 C 
ATOM     31  C   UNL     1       7.084   4.919  14.094  0.00  0.00    +0.000 C 
ENDBRANCH  27  29
ENDBRANCH   4  27
BRANCH   8  32
ATOM     32  C   UNL     1       1.173   2.789  18.825  0.00  0.00    +0.000 C 
ATOM     33  N   UNL     1       0.145   2.638  19.341  0.00  0.00    +0.000 NA
ENDBRANCH   8  32
TORSDOF 6
ENDMDL
MODEL 2
REMARK VINA RESULT:      -8.1      1.134      1.136
REMARK  Name = 
REMARK  7 active torsions:
REMARK  status: ('A' for Active; 'I' for Inactive)
REMARK    1  A    between atoms: C_1  and  C_2
REMARK    2  A    between atoms: N_4  and  C_5
REMARK    3  A    between atoms: C_7  and  N_8
REMARK    4  A    between atoms: C_11  and  N_12
REMARK    5  A    between atoms: N_12  and  C_13
REMARK    6  A    between atoms: C_19  and  C_20
REMARK    7  A    between atoms: C_27  and  C_28
REMARK                            x       y       z     vdW  Elec       q    Type
REMARK                         _______ _______ _______ _____ _____    ______ ____
ROOT
ATOM      1  N   UNL     1       3.044   7.631  17.823  0.00  0.00    +0.000 N 
ATOM      2  C   UNL     1       3.384   6.307  17.689  0.00  0.00    +0.000 A 
ATOM      3  C   UNL     1       4.767   6.006  17.182  0.00  0.00    +0.000 A 
ATOM      4  C   UNL     1       5.151   4.720  17.097  0.00  0.00    +0.000 A 
ATOM      5  N   UNL     1       4.189   3.729  17.421  0.00  0.00    +0.000 N 
ATOM      6  N   UNL     1       4.338   2.368  17.352  0.00  0.00    +0.000 NA
ATOM      7  C   UNL     1       3.197   1.890  17.855  0.00  0.00    +0.000 A 
ATOM      8  C   UNL     1       2.301   2.899  18.228  0.00  0.00    +0.000 A 
ATOM      9  C   UNL     1       2.919   4.076  17.886  0.00  0.00    +0.000 A 
ATOM     10  N   UNL     1       2.521   5.372  17.995  0.00  0.00    +0.000 NA
ATOM     11  H   UNL     1       3.323   8.268  17.088  0.00  0.00    +0.000 HD
ENDROOT
BRANCH   1  14
ATOM     12  C   UNL     1       0.540   9.891  19.367  0.00  0.00    +0.000 A 
ATOM     13  C   UNL     1       1.454   9.310  18.477  0.00  0.00    +0.000 A 
ATOM     14  C   UNL     1       2.187   8.165  18.800  0.00  0.00    +0.000 A 
ATOM     15  C   UNL     1       1.978   7.606  20.064  0.00  0.00    +0.000 A 
ATOM     16  F   UNL     1       2.685   6.539  20.470  0.00  0.00    +0.000 F 
ATOM     17  C   UNL     1       1.090   8.180  20.974  0.00  0.00    +0.000 A 
ATOM     18  C   UNL     1       0.357   9.341  20.661  0.00  0.00    +0.000 A 
BRANCH  12  22
ATOM     19  C   UNL     1      -0.833  13.332  18.647  0.00  0.00    +0.000 C 
ATOM     20  C   UNL     1       0.260  12.346  18.949  0.00  0.00    +0.000 C 
ATOM     21  O   UNL     1       1.411  12.731  19.128  0.00  0.00    +0.000 OA
ATOM     22  N   UNL     1      -0.201  11.040  18.994  0.00  0.00    +0.000 N 
ATOM     23  H   UNL     1      -1.139  10.875  18.657  0.00  0.00    +0.000 HD
ENDBRANCH  12  22
BRANCH  18  24
ATOM     24  C   UNL     1      -0.638   9.887  21.670  0.00  0.00    +0.000 C 
ATOM     25  C   UNL     1      -0.350   9.868  23.156  0.00  0.00    +0.000 C 
ATOM     26  C   UNL     1      -0.336  11.167  22.414  0.00  0.00    +0.000 C 
ENDBRANCH  18  24
ENDBRANCH   1  14
BRANCH   4  27
ATOM     27  N   UNL     1       6.431   4.276  16.776  0.00  0.00    +0.000 N 
ATOM     28  H   UNL     1       6.883   3.815  17.572  0.00  0.00    +0.000 HD
BRANCH  27  29
ATOM     29  C   UNL     1       6.815   3.889  15.423  0.00  0.00    +0.000 C 
ATOM     30  C   UNL     1       5.924   4.079  14.226  0.00  0.00    +0.000 C 
ATOM     31  C   UNL     1       7.103   4.982  14.426  0.00  0.00    +0.000 C 
ENDBRANCH  27  29
ENDBRANCH   4  27
BRANCH   8  32
ATOM     32  C   UNL     1       1.029   2.756  18.852  0.00  0.00    +0.000 C 
ATOM     33  N   UNL     1       0.001   2.587  19.361  0.00  0.00    +0.000 NA
ENDBRANCH   8  32
TORSDOF 6
ENDMDL
MODEL 3
REMARK VINA RESULT:      -7.8      1.123      1.412
REMARK  Name = 
REMARK  7 active torsions:
REMARK  status: ('A' for Active; 'I' for Inactive)
REMARK    1  A    between atoms: C_1  and  C_2
REMARK    2  A    between atoms: N_4  and  C_5
REMARK    3  A    between atoms: C_7  and  N_8
REMARK    4  A    between atoms: C_11  and  N_12
REMARK    5  A    between atoms: N_12  and  C_13
REMARK    6  A    between atoms: C_19  and  C_20
REMARK    7  A    between atoms: C_27  and  C_28
REMARK                            x       y       z     vdW  Elec       q    Type
REMARK                         _______ _______ _______ _____ _____    ______ ____
ROOT
ATOM      1  N   UNL     1       2.483   8.318  17.681  0.00  0.00    +0.000 N 
ATOM      2  C   UNL     1       3.014   7.060  17.527  0.00  0.00    +0.000 A 
ATOM      3  C   UNL     1       4.359   6.964  16.861  0.00  0.00    +0.000 A 
ATOM      4  C   UNL     1       4.931   5.753  16.750  0.00  0.00    +0.000 A 
ATOM      5  N   UNL     1       4.186   4.634  17.204  0.00  0.00    +0.000 N 
ATOM      6  N   UNL     1       4.544   3.312  17.139  0.00  0.00    +0.000 NA
ATOM      7  C   UNL     1       3.561   2.678  17.785  0.00  0.00    +0.000 A 
ATOM      8  C   UNL     1       2.565   3.545  18.248  0.00  0.00    +0.000 A 
ATOM      9  C   UNL     1       2.941   4.792  17.814  0.00  0.00    +0.000 A 
ATOM     10  N   UNL     1       2.355   6.012  17.950  0.00  0.00    +0.000 NA
ATOM     11  H   UNL     1       2.568   8.965  16.907  0.00  0.00    +0.000 HD
ENDROOT
BRANCH   1  14
ATOM     12  C   UNL     1      -0.251  10.091  19.452  0.00  0.00    +0.000 A 
ATOM     13  C   UNL     1       0.639   9.642  18.466  0.00  0.00    +0.000 A 
ATOM     14  C   UNL     1       1.672   8.744  18.746  0.00  0.00    +0.000 A 
ATOM     15  C   UNL     1       1.794   8.298  20.065  0.00  0.00    +0.000 A 
ATOM     16  F   UNL     1       2.795   7.477  20.423  0.00  0.00    +0.000 F 
ATOM     17  C   UNL     1       0.934   8.747  21.066  0.00  0.00    +0.000 A 
ATOM     18  C   UNL     1      -0.102   9.662  20.796  0.00  0.00    +0.000 A 
BRANCH  12  22
ATOM     19  C   UNL     1      -3.251  11.933  18.091  0.00  0.00    +0.000 C 
ATOM     20  C   UNL     1      -2.415  10.711  18.350  0.00  0.00    +0.000 C 
ATOM     21  O   UNL     1      -2.745   9.623  17.890  0.00  0.00    +0.000 OA
ATOM     22  N   UNL     1      -1.300  10.986  19.126  0.00  0.00    +0.000 N 
ATOM     23  H   UNL     1      -1.263  11.896  19.566  0.00  0.00    +0.000 HD
ENDBRANCH  12  22
BRANCH  18  24
ATOM     24  C   UNL     1      -1.043  10.071  21.915  0.00  0.00    +0.000 C 
ATOM     25  C   UNL     1      -0.591  10.104  23.359  0.00  0.00    +0.000 C 
ATOM     26  C   UNL     1      -0.842  11.387  22.631  0.00  0.00    +0.000 C 
ENDBRANCH  18  24
ENDBRANCH   1  14
BRANCH   4  27
ATOM     27  N   UNL     1       6.220   5.506  16.283  0.00  0.00    +0.000 N 
ATOM     28  H   UNL     1       6.285   5.631  15.267  0.00  0.00    +0.000 HD
BRANCH  27  29
ATOM     29  C   UNL     1       7.409   5.719  17.100  0.00  0.00    +0.000 C 
ATOM     30  C   UNL     1       7.366   5.867  18.596  0.00  0.00    +0.000 C 
ATOM     31  C   UNL     1       7.872   4.594  17.988  0.00  0.00    +0.000 C 
ENDBRANCH  27  29
ENDBRANCH   4  27
BRANCH   8  32
ATOM     32  C   UNL     1       1.414   3.226  19.023  0.00  0.00    +0.000 C 
ATOM     33  N   UNL     1       0.510   2.950  19.695  0.00  0.00    +0.000 NA
ENDBRANCH   8  32
TORSDOF 6
ENDMDL
MODEL 4
REMARK VINA RESULT:      -7.6      1.183      1.197
REMARK  Name = 
REMARK  7 active torsions:
REMARK  status: ('A' for Active; 'I' for Inactive)
REMARK    1  A    between atoms: C_1  and  C_2
REMARK    2  A    between atoms: N_4  and  C_5
REMARK    3  A    between atoms: C_7  and  N_8
REMARK    4  A    between atoms: C_11  and  N_12
REMARK    5  A    between atoms: N_12  and  C_13
REMARK    6  A    between atoms: C_19  and  C_20
REMARK    7  A    between atoms: C_27  and  C_28
REMARK                            x       y       z     vdW  Elec       q    Type
REMARK                         _______ _______ _______ _____ _____    ______ ____
ROOT
ATOM      1  N   UNL     1       2.497   7.960  17.808  0.00  0.00    +0.000 N 
ATOM      2  C   UNL     1       3.188   6.792  18.023  0.00  0.00    +0.000 A 
ATOM      3  C   UNL     1       4.525   6.656  17.349  0.00  0.00    +0.000 A 
ATOM      4  C   UNL     1       5.252   5.551  17.587  0.00  0.00    +0.000 A 
ATOM      5  N   UNL     1       4.668   4.549  18.405  0.00  0.00    +0.000 N 
ATOM      6  N   UNL     1       5.197   3.328  18.734  0.00  0.00    +0.000 NA
ATOM      7  C   UNL     1       4.316   2.814  19.596  0.00  0.00    +0.000 A 
ATOM      8  C   UNL     1       3.219   3.654  19.821  0.00  0.00    +0.000 A 
ATOM      9  C   UNL     1       3.420   4.738  19.002  0.00  0.00    +0.000 A 
ATOM     10  N   UNL     1       2.680   5.858  18.785  0.00  0.00    +0.000 NA
ATOM     11  H   UNL     1       2.485   8.336  16.869  0.00  0.00    +0.000 HD
ENDROOT
BRANCH   1  14
ATOM     12  C   UNL     1      -0.263  10.091  19.072  0.00  0.00    +0.000 A 
ATOM     13  C   UNL     1       0.659   9.446  18.235  0.00  0.00    +0.000 A 
ATOM     14  C   UNL     1       1.650   8.596  18.731  0.00  0.00    +0.000 A 
ATOM     15  C   UNL     1       1.698   8.406  20.115  0.00  0.00    +0.000 A 
ATOM     16  F   UNL     1       2.657   7.648  20.672  0.00  0.00    +0.000 F 
ATOM     17  C   UNL     1       0.806   9.055  20.969  0.00  0.00    +0.000 A 
ATOM     18  C   UNL     1      -0.189   9.923  20.479  0.00  0.00    +0.000 A 
BRANCH  12  22
ATOM     19  C   UNL     1      -3.236  11.672  17.367  0.00  0.00    +0.000 C 
ATOM     20  C   UNL     1      -2.472  10.527  17.972  0.00  0.00    +0.000 C 
ATOM     21  O   UNL     1      -2.927   9.389  17.936  0.00  0.00    +0.000 OA
ATOM     22  N   UNL     1      -1.269  10.929  18.529  0.00  0.00    +0.000 N 
ATOM     23  H   UNL     1      -1.120  11.925  18.627  0.00  0.00    +0.000 HD
ENDBRANCH  12  22
BRANCH  18  24
ATOM     24  C   UNL     1      -1.168  10.556  21.451  0.00  0.00    +0.000 C 
ATOM     25  C   UNL     1      -0.859  10.665  22.928  0.00  0.00    +0.000 C 
ATOM     26  C   UNL     1      -0.855  11.895  22.077  0.00  0.00    +0.000 C 
ENDBRANCH  18  24
ENDBRANCH   1  14
BRANCH   4  27
ATOM     27  N   UNL     1       6.556   5.329  17.151  0.00  0.00    +0.000 N 
ATOM     28  H   UNL     1       7.239   5.495  17.897  0.00  0.00    +0.000 HD
BRANCH  27  29
ATOM     29  C   UNL     1       6.882   4.380  16.092  0.00  0.00    +0.000 C 
ATOM     30  C   UNL     1       5.900   3.953  15.036  0.00  0.00    +0.000 C 
ATOM     31  C   UNL     1       7.005   4.902  14.684  0.00  0.00    +0.000 C 
ENDBRANCH  27  29
ENDBRANCH   4  27
BRANCH   8  32
ATOM     32  C   UNL     1       2.131   3.457  20.718  0.00  0.00    +0.000 C 
ATOM     33  N   UNL     1       1.257   3.243  21.449  0.00  0.00    +0.000 NA
ENDBRANCH   8  32
TORSDOF 6
ENDMDL
MODEL 5
REMARK VINA RESULT:      -7.6      3.302      9.666
REMARK  Name = 
REMARK  7 active torsions:
REMARK  status: ('A' for Active; 'I' for Inactive)
REMARK    1  A    between atoms: C_1  and  C_2
REMARK    2  A    between atoms: N_4  and  C_5
REMARK    3  A    between atoms: C_7  and  N_8
REMARK    4  A    between atoms: C_11  and  N_12
REMARK    5  A    between atoms: N_12  and  C_13
REMARK    6  A    between atoms: C_19  and  C_20
REMARK    7  A    between atoms: C_27  and  C_28
REMARK                            x       y       z     vdW  Elec       q    Type
REMARK                         _______ _______ _______ _____ _____    ______ ____
ROOT
ATOM      1  N   UNL     1      -0.173   9.707  19.984  0.00  0.00    +0.000 N 
ATOM      2  C   UNL     1      -0.075  10.928  20.606  0.00  0.00    +0.000 A 
ATOM      3  C   UNL     1      -1.119  11.253  21.639  0.00  0.00    +0.000 A 
ATOM      4  C   UNL     1      -1.016  12.414  22.308  0.00  0.00    +0.000 A 
ATOM      5  N   UNL     1       0.035  13.292  21.936  0.00  0.00    +0.000 N 
ATOM      6  N   UNL     1       0.296  14.540  22.438  0.00  0.00    +0.000 NA
ATOM      7  C   UNL     1       1.436  14.899  21.841  0.00  0.00    +0.000 A 
ATOM      8  C   UNL     1       1.912  13.930  20.949  0.00  0.00    +0.000 A 
ATOM      9  C   UNL     1       0.972  12.929  20.967  0.00  0.00    +0.000 A 
ATOM     10  N   UNL     1       0.893  11.750  20.293  0.00  0.00    +0.000 NA
ATOM     11  H   UNL     1      -1.092   9.393  19.702  0.00  0.00    +0.000 HD
ENDROOT
BRANCH   1  14
ATOM     12  C   UNL     1       2.280   6.926  19.892  0.00  0.00    +0.000 A 
ATOM     13  C   UNL     1       1.250   7.795  20.281  0.00  0.00    +0.000 A 
ATOM     14  C   UNL     1       0.904   8.925  19.535  0.00  0.00    +0.000 A 
ATOM     15  C   UNL     1       1.632   9.170  18.368  0.00  0.00    +0.000 A 
ATOM     16  F   UNL     1       1.396  10.265  17.627  0.00  0.00    +0.000 F 
ATOM     17  C   UNL     1       2.675   8.332  17.972  0.00  0.00    +0.000 A 
ATOM     18  C   UNL     1       3.038   7.198  18.724  0.00  0.00    +0.000 A 
BRANCH  12  22
ATOM     19  C   UNL     1       2.391   3.651  21.762  0.00  0.00    +0.000 C 
ATOM     20  C   UNL     1       1.848   4.607  20.738  0.00  0.00    +0.000 C 
ATOM     21  O   UNL     1       0.855   4.316  20.082  0.00  0.00    +0.000 OA
ATOM     22  N   UNL     1       2.587   5.778  20.663  0.00  0.00    +0.000 N 
ATOM     23  H   UNL     1       3.473   5.791  21.148  0.00  0.00    +0.000 HD
ENDBRANCH  12  22
BRANCH  18  24
ATOM     24  C   UNL     1       4.144   6.291  18.215  0.00  0.00    +0.000 C 
ATOM     25  C   UNL     1       3.849   5.115  17.309  0.00  0.00    +0.000 C 
ATOM     26  C   UNL     1       4.537   6.322  16.755  0.00  0.00    +0.000 C 
ENDBRANCH  18  24
ENDBRANCH   1  14
BRANCH   4  27
ATOM     27  N   UNL     1      -1.816  12.806  23.379  0.00  0.00    +0.000 N 
ATOM     28  H   UNL     1      -1.649  13.784  23.639  0.00  0.00    +0.000 HD
BRANCH  27  29
ATOM     29  C   UNL     1      -3.124  12.218  23.642  0.00  0.00    +0.000 C 
ATOM     30  C   UNL     1      -4.111  12.803  24.615  0.00  0.00    +0.000 C 
ATOM     31  C   UNL     1      -4.344  12.947  23.141  0.00  0.00    +0.000 C 
ENDBRANCH  27  29
ENDBRANCH   4  27
BRANCH   8  32
ATOM     32  C   UNL     1       3.119  13.950  20.195  0.00  0.00    +0.000 C 
ATOM     33  N   UNL     1       4.090  14.014  19.563  0.00  0.00    +0.000 NA
ENDBRANCH   8  32
TORSDOF 6
ENDMDL
MODEL 6
REMARK VINA RESULT:      -7.4      1.482      1.746
REMARK  Name = 
REMARK  7 active torsions:
REMARK  status: ('A' for Active; 'I' for Inactive)
REMARK    1  A    between atoms: C_1  and  C_2
REMARK    2  A    between atoms: N_4  and  C_5
REMARK    3  A    between atoms: C_7  and  N_8
REMARK    4  A    between atoms: C_11  and  N_12
REMARK    5  A    between atoms: N_12  and  C_13
REMARK    6  A    between atoms: C_19  and  C_20
REMARK    7  A    between atoms: C_27  and  C_28
REMARK                            x       y       z     vdW  Elec       q    Type
REMARK                         _______ _______ _______ _____ _____    ______ ____
ROOT
ATOM      1  N   UNL     1       3.037   7.619  17.812  0.00  0.00    +0.000 N 
ATOM      2  C   UNL     1       3.371   6.290  17.703  0.00  0.00    +0.000 A 
ATOM      3  C   UNL     1       4.757   5.973  17.215  0.00  0.00    +0.000 A 
ATOM      4  C   UNL     1       5.133   4.684  17.153  0.00  0.00    +0.000 A 
ATOM      5  N   UNL     1       4.163   3.703  17.484  0.00  0.00    +0.000 N 
ATOM      6  N   UNL     1       4.304   2.341  17.438  0.00  0.00    +0.000 NA
ATOM      7  C   UNL     1       3.155   1.878  17.939  0.00  0.00    +0.000 A 
ATOM      8  C   UNL     1       2.262   2.898  18.287  0.00  0.00    +0.000 A 
ATOM      9  C   UNL     1       2.891   4.066  17.931  0.00  0.00    +0.000 A 
ATOM     10  N   UNL     1       2.499   5.366  18.016  0.00  0.00    +0.000 NA
ATOM     11  H   UNL     1       3.327   8.241  17.070  0.00  0.00    +0.000 HD
ENDROOT
BRANCH   1  14
ATOM     12  C   UNL     1       0.537   9.921  19.297  0.00  0.00    +0.000 A 
ATOM     13  C   UNL     1       1.456   9.320  18.425  0.00  0.00    +0.000 A 
ATOM     14  C   UNL     1       2.174   8.173  18.772  0.00  0.00    +0.000 A 
ATOM     15  C   UNL     1       1.946   7.634  20.041  0.00  0.00    +0.000 A 
ATOM     16  F   UNL     1       2.639   6.565  20.469  0.00  0.00    +0.000 F 
ATOM     17  C   UNL     1       1.054   8.227  20.934  0.00  0.00    +0.000 A 
ATOM     18  C   UNL     1       0.334   9.390  20.597  0.00  0.00    +0.000 A 
BRANCH  12  22
ATOM     19  C   UNL     1      -0.804  13.364  18.529  0.00  0.00    +0.000 C 
ATOM     20  C   UNL     1       0.277  12.376  18.864  0.00  0.00    +0.000 C 
ATOM     21  O   UNL     1       1.424  12.757  19.072  0.00  0.00    +0.000 OA
ATOM     22  N   UNL     1      -0.190  11.071  18.901  0.00  0.00    +0.000 N 
ATOM     23  H   UNL     1      -1.120  10.909  18.539  0.00  0.00    +0.000 HD
ENDBRANCH  12  22
BRANCH  18  24
ATOM     24  C   UNL     1      -0.667   9.959  21.587  0.00  0.00    +0.000 C 
ATOM     25  C   UNL     1      -0.407   9.933  23.078  0.00  0.00    +0.000 C 
ATOM     26  C   UNL     1      -0.349  11.231  22.338  0.00  0.00    +0.000 C 
ENDBRANCH  18  24
ENDBRANCH   1  14
BRANCH   4  27
ATOM     27  N   UNL     1       6.414   4.227  16.852  0.00  0.00    +0.000 N 
ATOM     28  H   UNL     1       6.434   3.711  15.966  0.00  0.00    +0.000 HD
BRANCH  27  29
ATOM     29  C   UNL     1       7.621   4.915  17.296  0.00  0.00    +0.000 C 
ATOM     30  C   UNL     1       7.600   6.228  18.030  0.00  0.00    +0.000 C 
ATOM     31  C   UNL     1       7.907   4.964  18.774  0.00  0.00    +0.000 C 
ENDBRANCH  27  29
ENDBRANCH   4  27
BRANCH   8  32
ATOM     32  C   UNL     1       0.984   2.773  18.900  0.00  0.00    +0.000 C 
ATOM     33  N   UNL     1      -0.034   2.674  19.448  0.00  0.00    +0.000 NA
ENDBRANCH   8  32
TORSDOF 6
ENDMDL
MODEL 7
REMARK VINA RESULT:      -7.4      2.422      8.971
REMARK  Name = 
REMARK  7 active torsions:
REMARK  status: ('A' for Active; 'I' for Inactive)
REMARK    1  A    between atoms: C_1  and  C_2
REMARK    2  A    between atoms: N_4  and  C_5
REMARK    3  A    between atoms: C_7  and  N_8
REMARK    4  A    between atoms: C_11  and  N_12
REMARK    5  A    between atoms: N_12  and  C_13
REMARK    6  A    between atoms: C_19  and  C_20
REMARK    7  A    between atoms: C_27  and  C_28
REMARK                            x       y       z     vdW  Elec       q    Type
REMARK                         _______ _______ _______ _____ _____    ______ ____
ROOT
ATOM      1  N   UNL     1       1.276   8.619  20.756  0.00  0.00    +0.000 N 
ATOM      2  C   UNL     1       0.370   9.617  20.491  0.00  0.00    +0.000 A 
ATOM      3  C   UNL     1       0.320  10.767  21.459  0.00  0.00    +0.000 A 
ATOM      4  C   UNL     1      -0.514  11.788  21.195  0.00  0.00    +0.000 A 
ATOM      5  N   UNL     1      -1.349  11.673  20.054  0.00  0.00    +0.000 N 
ATOM      6  N   UNL     1      -2.306  12.556  19.628  0.00  0.00    +0.000 NA
ATOM      7  C   UNL     1      -2.728  12.044  18.468  0.00  0.00    +0.000 A 
ATOM      8  C   UNL     1      -2.090  10.842  18.140  0.00  0.00    +0.000 A 
ATOM      9  C   UNL     1      -1.253  10.576  19.195  0.00  0.00    +0.000 A 
ATOM     10  N   UNL     1      -0.402   9.543  19.437  0.00  0.00    +0.000 NA
ATOM     11  H   UNL     1       1.371   8.310  21.714  0.00  0.00    +0.000 HD
ENDROOT
BRANCH   1  14
ATOM     12  C   UNL     1       2.688   5.625  19.083  0.00  0.00    +0.000 A 
ATOM     13  C   UNL     1       2.063   6.478  20.004  0.00  0.00    +0.000 A 
ATOM     14  C   UNL     1       1.961   7.855  19.796  0.00  0.00    +0.000 A 
ATOM     15  C   UNL     1       2.512   8.368  18.619  0.00  0.00    +0.000 A 
ATOM     16  F   UNL     1       2.503   9.689  18.373  0.00  0.00    +0.000 F 
ATOM     17  C   UNL     1       3.158   7.542  17.699  0.00  0.00    +0.000 A 
ATOM     18  C   UNL     1       3.277   6.154  17.906  0.00  0.00    +0.000 A 
BRANCH  12  22
ATOM     19  C   UNL     1       2.196   1.892  19.344  0.00  0.00    +0.000 C 
ATOM     20  C   UNL     1       1.940   3.254  18.762  0.00  0.00    +0.000 C 
ATOM     21  O   UNL     1       1.088   3.409  17.895  0.00  0.00    +0.000 OA
ATOM     22  N   UNL     1       2.753   4.229  19.320  0.00  0.00    +0.000 N 
ATOM     23  H   UNL     1       3.518   3.910  19.898  0.00  0.00    +0.000 HD
ENDBRANCH  12  22
BRANCH  18  24
ATOM     24  C   UNL     1       3.939   5.297  16.843  0.00  0.00    +0.000 C 
ATOM     25  C   UNL     1       5.171   5.768  16.100  0.00  0.00    +0.000 C 
ATOM     26  C   UNL     1       5.288   4.669  17.108  0.00  0.00    +0.000 C 
ENDBRANCH  18  24
ENDBRANCH   1  14
BRANCH   4  27
ATOM     27  N   UNL     1      -0.587  12.980  21.912  0.00  0.00    +0.000 N 
ATOM     28  H   UNL     1      -0.508  13.798  21.298  0.00  0.00    +0.000 HD
BRANCH  27  29
ATOM     29  C   UNL     1      -1.327  13.105  23.162  0.00  0.00    +0.000 C 
ATOM     30  C   UNL     1      -1.383  14.375  23.966  0.00  0.00    +0.000 C 
ATOM     31  C   UNL     1      -2.576  13.948  23.167  0.00  0.00    +0.000 C 
ENDBRANCH  27  29
ENDBRANCH   4  27
BRANCH   8  32
ATOM     32  C   UNL     1      -2.245  10.061  16.960  0.00  0.00    +0.000 C 
ATOM     33  N   UNL     1      -2.422   9.441  15.995  0.00  0.00    +0.000 NA
ENDBRANCH   8  32
TORSDOF 6
ENDMDL
MODEL 8
REMARK VINA RESULT:      -7.3      1.714      2.032
REMARK  Name = 
REMARK  7 active torsions:
REMARK  status: ('A' for Active; 'I' for Inactive)
REMARK    1  A    between atoms: C_1  and  C_2
REMARK    2  A    between atoms: N_4  and  C_5
REMARK    3  A    between atoms: C_7  and  N_8
REMARK    4  A    between atoms: C_11  and  N_12
REMARK    5  A    between atoms: N_12  and  C_13
REMARK    6  A    between atoms: C_19  and  C_20
REMARK    7  A    between atoms: C_27  and  C_28
REMARK                            x       y       z     vdW  Elec       q    Type
REMARK                         _______ _______ _______ _____ _____    ______ ____
ROOT
ATOM      1  N   UNL     1       2.819   7.409  17.652  0.00  0.00    +0.000 N 
ATOM      2  C   UNL     1       3.400   6.220  18.020  0.00  0.00    +0.000 A 
ATOM      3  C   UNL     1       4.764   5.925  17.460  0.00  0.00    +0.000 A 
ATOM      4  C   UNL     1       5.384   4.797  17.848  0.00  0.00    +0.000 A 
ATOM      5  N   UNL     1       4.670   3.921  18.706  0.00  0.00    +0.000 N 
ATOM      6  N   UNL     1       5.077   2.701  19.179  0.00  0.00    +0.000 NA
ATOM      7  C   UNL     1       4.103   2.335  20.017  0.00  0.00    +0.000 A 
ATOM      8  C   UNL     1       3.063   3.270  20.085  0.00  0.00    +0.000 A 
ATOM      9  C   UNL     1       3.404   4.255  19.191  0.00  0.00    +0.000 A 
ATOM     10  N   UNL     1       2.769   5.400  18.822  0.00  0.00    +0.000 NA
ATOM     11  H   UNL     1       2.899   7.695  16.685  0.00  0.00    +0.000 HD
ENDROOT
BRANCH   1  14
ATOM     12  C   UNL     1       0.159   9.846  18.517  0.00  0.00    +0.000 A 
ATOM     13  C   UNL     1       1.081   9.060  17.810  0.00  0.00    +0.000 A 
ATOM     14  C   UNL     1       1.965   8.189  18.450  0.00  0.00    +0.000 A 
ATOM     15  C   UNL     1       1.904   8.124  19.845  0.00  0.00    +0.000 A 
ATOM     16  F   UNL     1       2.758   7.352  20.536  0.00  0.00    +0.000 F 
ATOM     17  C   UNL     1       1.011   8.913  20.571  0.00  0.00    +0.000 A 
ATOM     18  C   UNL     1       0.124   9.803  19.934  0.00  0.00    +0.000 A 
BRANCH  12  22
ATOM     19  C   UNL     1      -2.660  11.503  16.631  0.00  0.00    +0.000 C 
ATOM     20  C   UNL     1      -2.047  10.421  17.476  0.00  0.00    +0.000 C 
ATOM     21  O   UNL     1      -2.697   9.425  17.777  0.00  0.00    +0.000 OA
ATOM     22  N   UNL     1      -0.737  10.702  17.830  0.00  0.00    +0.000 N 
ATOM     23  H   UNL     1      -0.405  11.639  17.646  0.00  0.00    +0.000 HD
ENDBRANCH  12  22
BRANCH  18  24
ATOM     24  C   UNL     1      -0.865  10.593  20.771  0.00  0.00    +0.000 C 
ATOM     25  C   UNL     1      -0.434  11.330  22.021  0.00  0.00    +0.000 C 
ATOM     26  C   UNL     1      -0.801  12.103  20.794  0.00  0.00    +0.000 C 
ENDBRANCH  18  24
ENDBRANCH   1  14
BRANCH   4  27
ATOM     27  N   UNL     1       6.692   4.441  17.530  0.00  0.00    +0.000 N 
ATOM     28  H   UNL     1       6.757   4.036  16.591  0.00  0.00    +0.000 HD
BRANCH  27  29
ATOM     29  C   UNL     1       7.853   5.127  18.086  0.00  0.00    +0.000 C 
ATOM     30  C   UNL     1       7.847   6.582  18.468  0.00  0.00    +0.000 C 
ATOM     31  C   UNL     1       7.811   5.533  19.537  0.00  0.00    +0.000 C 
ENDBRANCH  27  29
ENDBRANCH   4  27
BRANCH   8  32
ATOM     32  C   UNL     1       1.906   3.236  20.913  0.00  0.00    +0.000 C 
ATOM     33  N   UNL     1       0.971   3.156  21.596  0.00  0.00    +0.000 NA
ENDBRANCH   8  32
TORSDOF 6
ENDMDL
MODEL 9
REMARK VINA RESULT:      -7.3      2.094      2.323
REMARK  Name = 
REMARK  7 active torsions:
REMARK  status: ('A' for Active; 'I' for Inactive)
REMARK    1  A    between atoms: C_1  and  C_2
REMARK    2  A    between atoms: N_4  and  C_5
REMARK    3  A    between atoms: C_7  and  N_8
REMARK    4  A    between atoms: C_11  and  N_12
REMARK    5  A    between atoms: N_12  and  C_13
REMARK    6  A    between atoms: C_19  and  C_20
REMARK    7  A    between atoms: C_27  and  C_28
REMARK                            x       y       z     vdW  Elec       q    Type
REMARK                         _______ _______ _______ _____ _____    ______ ____
ROOT
ATOM      1  N   UNL     1       2.723   7.242  18.169  0.00  0.00    +0.000 N 
ATOM      2  C   UNL     1       3.345   6.052  18.459  0.00  0.00    +0.000 A 
ATOM      3  C   UNL     1       4.676   5.801  17.805  0.00  0.00    +0.000 A 
ATOM      4  C   UNL     1       5.337   4.672  18.115  0.00  0.00    +0.000 A 
ATOM      5  N   UNL     1       4.693   3.756  18.985  0.00  0.00    +0.000 N 
ATOM      6  N   UNL     1       5.149   2.528  19.390  0.00  0.00    +0.000 NA
ATOM      7  C   UNL     1       4.236   2.117  20.274  0.00  0.00    +0.000 A 
ATOM      8  C   UNL     1       3.188   3.030  20.439  0.00  0.00    +0.000 A 
ATOM      9  C   UNL     1       3.455   4.050  19.559  0.00  0.00    +0.000 A 
ATOM     10  N   UNL     1       2.780   5.195  19.270  0.00  0.00    +0.000 NA
ATOM     11  H   UNL     1       2.738   7.562  17.210  0.00  0.00    +0.000 HD
ENDROOT
BRANCH   1  14
ATOM     12  C   UNL     1       0.471   9.941  19.354  0.00  0.00    +0.000 A 
ATOM     13  C   UNL     1       1.333   9.160  18.571  0.00  0.00    +0.000 A 
ATOM     14  C   UNL     1       1.909   7.979  19.046  0.00  0.00    +0.000 A 
ATOM     15  C   UNL     1       1.597   7.594  20.352  0.00  0.00    +0.000 A 
ATOM     16  F   UNL     1       2.155   6.502  20.899  0.00  0.00    +0.000 F 
ATOM     17  C   UNL     1       0.759   8.366  21.157  0.00  0.00    +0.000 A 
ATOM     18  C   UNL     1       0.183   9.564  20.691  0.00  0.00    +0.000 A 
BRANCH  12  22
ATOM     19  C   UNL     1      -0.488  13.430  18.282  0.00  0.00    +0.000 C 
ATOM     20  C   UNL     1       0.467  12.379  18.773  0.00  0.00    +0.000 C 
ATOM     21  O   UNL     1       1.618  12.677  19.075  0.00  0.00    +0.000 OA
ATOM     22  N   UNL     1      -0.112  11.121  18.829  0.00  0.00    +0.000 N 
ATOM     23  H   UNL     1      -1.014  11.013  18.385  0.00  0.00    +0.000 HD
ENDBRANCH  12  22
BRANCH  18  24
ATOM     24  C   UNL     1      -0.766  10.333  21.592  0.00  0.00    +0.000 C 
ATOM     25  C   UNL     1      -0.588  10.355  23.095  0.00  0.00    +0.000 C 
ATOM     26  C   UNL     1      -0.295  11.585  22.295  0.00  0.00    +0.000 C 
ENDBRANCH  18  24
ENDBRANCH   1  14
BRANCH   4  27
ATOM     27  N   UNL     1       6.628   4.351  17.703  0.00  0.00    +0.000 N 
ATOM     28  H   UNL     1       6.631   3.894  16.785  0.00  0.00    +0.000 HD
BRANCH  27  29
ATOM     29  C   UNL     1       7.800   5.114  18.117  0.00  0.00    +0.000 C 
ATOM     30  C   UNL     1       7.764   6.590  18.405  0.00  0.00    +0.000 C 
ATOM     31  C   UNL     1       7.858   5.612  19.537  0.00  0.00    +0.000 C 
ENDBRANCH  27  29
ENDBRANCH   4  27
BRANCH   8  32
ATOM     32  C   UNL     1       2.086   2.948  21.337  0.00  0.00    +0.000 C 
ATOM     33  N   UNL     1       1.186   2.828  22.059  0.00  0.00    +0.000 NA
ENDBRANCH   8  32
TORSDOF 6
ENDMDL
