MODEL 1
REMARK VINA RESULT:      -7.4      0.000      0.000
REMARK  Name = 
REMARK  7 active torsions:
REMARK  status: ('A' for Active; 'I' for Inactive)
REMARK    1  A    between atoms: C_1  and  C_2
REMARK    2  A    between atoms: C_2  and  N_3
REMARK    3  A    between atoms: C_4  and  C_5
REMARK    4  A    between atoms: N_8  and  N_9
REMARK    5  A    between atoms: N_12  and  C_13
REMARK    6  A    between atoms: C_13  and  C_14
REMARK    7  A    between atoms: C_19  and  C_20
REMARK                            x       y       z     vdW  Elec       q    Type
REMARK                         _______ _______ _______ _____ _____    ______ ____
ROOT
ATOM      1  N   UNL     1       3.696   5.423  17.760  0.00  0.00    +0.000 N 
ATOM      2  C   UNL     1       3.991   6.807  17.567  0.00  0.00    +0.000 C 
ATOM      3  C   UNL     1       5.269   7.337  16.953  0.00  0.00    +0.000 C 
ATOM      4  O   UNL     1       3.205   7.709  17.888  0.00  0.00    +0.000 OA
ATOM      5  C   UNL     1       4.484   4.221  17.470  0.00  0.00    +0.000 C 
ATOM      6  N   UNL     1       4.288   2.949  17.628  0.00  0.00    +0.000 NA
ATOM      7  N   UNL     1       5.704   4.474  16.837  0.00  0.00    +0.000 N 
ATOM      8  C   UNL     1       6.891   4.588  17.604  0.00  0.00    +0.000 C 
ATOM      9  C   UNL     1       6.806   5.209  18.981  0.00  0.00    +0.000 C 
ATOM     10  O   UNL     1       7.994   4.239  17.177  0.00  0.00    +0.000 OA
ENDROOT
BRANCH   6  11
ATOM     11  N   UNL     1       3.217   2.340  18.125  0.00  0.00    +0.000 N 
ATOM     12  O   UNL     1       2.254   2.097  17.392  0.00  0.00    +0.000 OA
ATOM     13  O   UNL     1       3.283   1.943  19.298  0.00  0.00    +0.000 OA
ENDBRANCH   6  11
BRANCH   1  15
ATOM     14  C   UNL     1       1.877   5.111  19.694  0.00  0.00    +0.000 C 
ATOM     15  C   UNL     1       2.321   5.153  18.232  0.00  0.00    +0.000 C 
ENDBRANCH   1  15
BRANCH   7  16
ATOM     16  C   UNL     1       5.959   3.719  15.593  0.00  0.00    +0.000 C 
BRANCH  16  17
ATOM     17  C   UNL     1       5.913   4.458  14.242  0.00  0.00    +0.000 C 
ATOM     18  C   UNL     1       5.461   3.515  13.138  0.00  0.00    +0.000 C 
ATOM     19  C   UNL     1       6.531   3.568  12.074  0.00  0.00    +0.000 C 
ATOM     20  O   UNL     1       7.504   4.535  12.450  0.00  0.00    +0.000 OA
ATOM     21  C   UNL     1       7.229   5.031  13.755  0.00  0.00    +0.000 C 
ENDBRANCH  16  17
ENDBRANCH   7  16
TORSDOF 4
ENDMDL
MODEL 2
REMARK VINA RESULT:      -5.8      2.427      5.831
REMARK  Name = 
REMARK  7 active torsions:
REMARK  status: ('A' for Active; 'I' for Inactive)
REMARK    1  A    between atoms: C_1  and  C_2
REMARK    2  A    between atoms: C_2  and  N_3
REMARK    3  A    between atoms: C_4  and  C_5
REMARK    4  A    between atoms: N_8  and  N_9
REMARK    5  A    between atoms: N_12  and  C_13
REMARK    6  A    between atoms: C_13  and  C_14
REMARK    7  A    between atoms: C_19  and  C_20
REMARK                            x       y       z     vdW  Elec       q    Type
REMARK                         _______ _______ _______ _____ _____    ______ ____
ROOT
ATOM      1  N   UNL     1       5.682   4.359  17.420  0.00  0.00    +0.000 N 
ATOM      2  C   UNL     1       4.748   3.743  16.532  0.00  0.00    +0.000 C 
ATOM      3  C   UNL     1       3.293   3.484  16.858  0.00  0.00    +0.000 C 
ATOM      4  O   UNL     1       5.057   3.366  15.394  0.00  0.00    +0.000 OA
ATOM      5  C   UNL     1       5.525   4.853  18.791  0.00  0.00    +0.000 C 
ATOM      6  N   UNL     1       6.321   5.405  19.653  0.00  0.00    +0.000 NA
ATOM      7  N   UNL     1       4.221   4.763  19.287  0.00  0.00    +0.000 N 
ATOM      8  C   UNL     1       3.833   3.643  20.066  0.00  0.00    +0.000 C 
ATOM      9  C   UNL     1       4.428   2.292  19.737  0.00  0.00    +0.000 C 
ATOM     10  O   UNL     1       3.000   3.721  20.972  0.00  0.00    +0.000 OA
ENDROOT
BRANCH   6  11
ATOM     11  N   UNL     1       7.604   5.713  19.503  0.00  0.00    +0.000 N 
ATOM     12  O   UNL     1       7.924   6.706  18.844  0.00  0.00    +0.000 OA
ATOM     13  O   UNL     1       8.428   5.034  20.134  0.00  0.00    +0.000 OA
ENDBRANCH   6  11
BRANCH   1  15
ATOM     14  C   UNL     1       7.252   5.572  15.628  0.00  0.00    +0.000 C 
ATOM     15  C   UNL     1       7.002   4.643  16.816  0.00  0.00    +0.000 C 
ENDBRANCH   1  15
BRANCH   7  16
ATOM     16  C   UNL     1       3.651   6.007  19.845  0.00  0.00    +0.000 C 
BRANCH  16  17
ATOM     17  C   UNL     1       2.410   6.631  19.179  0.00  0.00    +0.000 C 
ATOM     18  C   UNL     1       2.762   7.169  17.801  0.00  0.00    +0.000 C 
ATOM     19  C   UNL     1       2.345   8.620  17.796  0.00  0.00    +0.000 C 
ATOM     20  O   UNL     1       1.702   8.917  19.029  0.00  0.00    +0.000 OA
ATOM     21  C   UNL     1       1.785   7.802  19.910  0.00  0.00    +0.000 C 
ENDBRANCH  16  17
ENDBRANCH   7  16
TORSDOF 4
ENDMDL
MODEL 3
REMARK VINA RESULT:      -5.8      2.555      5.962
REMARK  Name = 
REMARK  7 active torsions:
REMARK  status: ('A' for Active; 'I' for Inactive)
REMARK    1  A    between atoms: C_1  and  C_2
REMARK    2  A    between atoms: C_2  and  N_3
REMARK    3  A    between atoms: C_4  and  C_5
REMARK    4  A    between atoms: N_8  and  N_9
REMARK    5  A    between atoms: N_12  and  C_13
REMARK    6  A    between atoms: C_13  and  C_14
REMARK    7  A    between atoms: C_19  and  C_20
REMARK                            x       y       z     vdW  Elec       q    Type
REMARK                         _______ _______ _______ _____ _____    ______ ____
ROOT
ATOM      1  N   UNL     1       3.913   4.151  17.514  0.00  0.00    +0.000 N 
ATOM      2  C   UNL     1       2.683   3.565  17.083  0.00  0.00    +0.000 C 
ATOM      3  C   UNL     1       1.377   3.652  17.843  0.00  0.00    +0.000 C 
ATOM      4  O   UNL     1       2.581   2.928  16.027  0.00  0.00    +0.000 OA
ATOM      5  C   UNL     1       4.244   4.916  18.719  0.00  0.00    +0.000 C 
ATOM      6  N   UNL     1       5.328   5.462  19.177  0.00  0.00    +0.000 NA
ATOM      7  N   UNL     1       3.154   5.169  19.556  0.00  0.00    +0.000 N 
ATOM      8  C   UNL     1       2.887   4.310  20.652  0.00  0.00    +0.000 C 
ATOM      9  C   UNL     1       3.180   2.834  20.504  0.00  0.00    +0.000 C 
ATOM     10  O   UNL     1       2.387   4.713  21.706  0.00  0.00    +0.000 OA
ENDROOT
BRANCH   6  11
ATOM     11  N   UNL     1       6.532   5.489  18.617  0.00  0.00    +0.000 N 
ATOM     12  O   UNL     1       6.920   6.511  18.044  0.00  0.00    +0.000 OA
ATOM     13  O   UNL     1       7.263   4.502  18.793  0.00  0.00    +0.000 OA
ENDBRANCH   6  11
BRANCH   1  15
ATOM     14  C   UNL     1       5.225   5.018  15.351  0.00  0.00    +0.000 C 
ATOM     15  C   UNL     1       5.009   4.063  16.526  0.00  0.00    +0.000 C 
ENDBRANCH   1  15
BRANCH   7  16
ATOM     16  C   UNL     1       2.941   6.580  19.937  0.00  0.00    +0.000 C 
BRANCH  16  17
ATOM     17  C   UNL     1       1.810   7.379  19.263  0.00  0.00    +0.000 C 
ATOM     18  C   UNL     1       2.267   7.910  17.913  0.00  0.00    +0.000 C 
ATOM     19  C   UNL     1       2.039   9.402  17.948  0.00  0.00    +0.000 C 
ATOM     20  O   UNL     1       1.405   9.742  19.174  0.00  0.00    +0.000 OA
ATOM     21  C   UNL     1       1.319   8.598  20.019  0.00  0.00    +0.000 C 
ENDBRANCH  16  17
ENDBRANCH   7  16
TORSDOF 4
ENDMDL
MODEL 4
REMARK VINA RESULT:      -5.8      2.391      5.700
REMARK  Name = 
REMARK  7 active torsions:
REMARK  status: ('A' for Active; 'I' for Inactive)
REMARK    1  A    between atoms: C_1  and  C_2
REMARK    2  A    between atoms: C_2  and  N_3
REMARK    3  A    between atoms: C_4  and  C_5
REMARK    4  A    between atoms: N_8  and  N_9
REMARK    5  A    between atoms: N_12  and  C_13
REMARK    6  A    between atoms: C_13  and  C_14
REMARK    7  A    between atoms: C_19  and  C_20
REMARK                            x       y       z     vdW  Elec       q    Type
REMARK                         _______ _______ _______ _____ _____    ______ ____
ROOT
ATOM      1  N   UNL     1       4.861   6.002  18.068  0.00  0.00    +0.000 N 
ATOM      2  C   UNL     1       3.576   6.574  17.822  0.00  0.00    +0.000 C 
ATOM      3  C   UNL     1       2.267   5.819  17.911  0.00  0.00    +0.000 C 
ATOM      4  O   UNL     1       3.422   7.763  17.514  0.00  0.00    +0.000 OA
ATOM      5  C   UNL     1       5.255   4.634  18.421  0.00  0.00    +0.000 C 
ATOM      6  N   UNL     1       6.389   4.046  18.644  0.00  0.00    +0.000 NA
ATOM      7  N   UNL     1       4.181   3.760  18.613  0.00  0.00    +0.000 N 
ATOM      8  C   UNL     1       3.738   2.936  17.547  0.00  0.00    +0.000 C 
ATOM      9  C   UNL     1       3.806   3.478  16.136  0.00  0.00    +0.000 C 
ATOM     10  O   UNL     1       3.261   1.813  17.730  0.00  0.00    +0.000 OA
ENDROOT
BRANCH   6  11
ATOM     11  N   UNL     1       7.606   4.579  18.627  0.00  0.00    +0.000 N 
ATOM     12  O   UNL     1       8.033   5.165  19.625  0.00  0.00    +0.000 OA
ATOM     13  O   UNL     1       8.305   4.362  17.626  0.00  0.00    +0.000 OA
ENDBRANCH   6  11
BRANCH   1  15
ATOM     14  C   UNL     1       6.846   7.333  16.868  0.00  0.00    +0.000 C 
ATOM     15  C   UNL     1       5.973   6.977  18.072  0.00  0.00    +0.000 C 
ENDBRANCH   1  15
BRANCH   7  16
ATOM     16  C   UNL     1       4.172   3.013  19.887  0.00  0.00    +0.000 C 
BRANCH  16  17
ATOM     17  C   UNL     1       3.001   3.211  20.868  0.00  0.00    +0.000 C 
ATOM     18  C   UNL     1       1.801   2.383  20.435  0.00  0.00    +0.000 C 
ATOM     19  C   UNL     1       0.645   3.347  20.314  0.00  0.00    +0.000 C 
ATOM     20  O   UNL     1       1.076   4.635  20.733  0.00  0.00    +0.000 OA
ATOM     21  C   UNL     1       2.476   4.627  20.994  0.00  0.00    +0.000 C 
ENDBRANCH  16  17
ENDBRANCH   7  16
TORSDOF 4
ENDMDL
MODEL 5
REMARK VINA RESULT:      -5.3      8.783     10.063
REMARK  Name = 
REMARK  7 active torsions:
REMARK  status: ('A' for Active; 'I' for Inactive)
REMARK    1  A    between atoms: C_1  and  C_2
REMARK    2  A    between atoms: C_2  and  N_3
REMARK    3  A    between atoms: C_4  and  C_5
REMARK    4  A    between atoms: N_8  and  N_9
REMARK    5  A    between atoms: N_12  and  C_13
REMARK    6  A    between atoms: C_13  and  C_14
REMARK    7  A    between atoms: C_19  and  C_20
REMARK                            x       y       z     vdW  Elec       q    Type
REMARK                         _______ _______ _______ _____ _____    ______ ____
ROOT
ATOM      1  N   UNL     1      -0.640  12.632  21.700  0.00  0.00    +0.000 N 
ATOM      2  C   UNL     1      -0.983  13.960  21.305  0.00  0.00    +0.000 C 
ATOM      3  C   UNL     1      -0.663  14.566  19.955  0.00  0.00    +0.000 C 
ATOM      4  O   UNL     1      -1.590  14.743  22.049  0.00  0.00    +0.000 OA
ATOM      5  C   UNL     1       0.080  11.571  20.989  0.00  0.00    +0.000 C 
ATOM      6  N   UNL     1       0.435  10.360  21.286  0.00  0.00    +0.000 NA
ATOM      7  N   UNL     1       0.431  11.898  19.676  0.00  0.00    +0.000 N 
ATOM      8  C   UNL     1       1.720  12.418  19.395  0.00  0.00    +0.000 C 
ATOM      9  C   UNL     1       2.376  13.320  20.418  0.00  0.00    +0.000 C 
ATOM     10  O   UNL     1       2.309  12.198  18.333  0.00  0.00    +0.000 OA
ENDROOT
BRANCH   6  11
ATOM     11  N   UNL     1       0.206   9.691  22.410  0.00  0.00    +0.000 N 
ATOM     12  O   UNL     1      -0.763   8.929  22.485  0.00  0.00    +0.000 OA
ATOM     13  O   UNL     1       1.055   9.785  23.309  0.00  0.00    +0.000 OA
ENDBRANCH   6  11
BRANCH   1  15
ATOM     14  C   UNL     1      -2.669  11.908  23.284  0.00  0.00    +0.000 C 
ATOM     15  C   UNL     1      -1.198  12.220  23.006  0.00  0.00    +0.000 C 
ENDBRANCH   1  15
BRANCH   7  16
ATOM     16  C   UNL     1       0.022  10.933  18.635  0.00  0.00    +0.000 C 
BRANCH  16  17
ATOM     17  C   UNL     1      -1.468  10.565  18.494  0.00  0.00    +0.000 C 
ATOM     18  C   UNL     1      -1.706   9.806  17.199  0.00  0.00    +0.000 C 
ATOM     19  C   UNL     1      -2.782  10.563  16.458  0.00  0.00    +0.000 C 
ATOM     20  O   UNL     1      -3.233  11.637  17.274  0.00  0.00    +0.000 OA
ATOM     21  C   UNL     1      -2.437  11.730  18.451  0.00  0.00    +0.000 C 
ENDBRANCH  16  17
ENDBRANCH   7  16
TORSDOF 4
ENDMDL
MODEL 6
REMARK VINA RESULT:      -5.2      9.764     12.251
REMARK  Name = 
REMARK  7 active torsions:
REMARK  status: ('A' for Active; 'I' for Inactive)
REMARK    1  A    between atoms: C_1  and  C_2
REMARK    2  A    between atoms: C_2  and  N_3
REMARK    3  A    between atoms: C_4  and  C_5
REMARK    4  A    between atoms: N_8  and  N_9
REMARK    5  A    between atoms: N_12  and  C_13
REMARK    6  A    between atoms: C_13  and  C_14
REMARK    7  A    between atoms: C_19  and  C_20
REMARK                            x       y       z     vdW  Elec       q    Type
REMARK                         _______ _______ _______ _____ _____    ______ ____
ROOT
ATOM      1  N   UNL     1       9.600  15.720  19.831  0.00  0.00    +0.000 N 
ATOM      2  C   UNL     1       8.902  15.226  20.974  0.00  0.00    +0.000 C 
ATOM      3  C   UNL     1       8.092  13.947  21.002  0.00  0.00    +0.000 C 
ATOM      4  O   UNL     1       8.905  15.813  22.064  0.00  0.00    +0.000 OA
ATOM      5  C   UNL     1       9.707  15.194  18.466  0.00  0.00    +0.000 C 
ATOM      6  N   UNL     1      10.305  15.590  17.386  0.00  0.00    +0.000 NA
ATOM      7  N   UNL     1       9.068  13.966  18.274  0.00  0.00    +0.000 N 
ATOM      8  C   UNL     1       7.745  13.927  17.763  0.00  0.00    +0.000 C 
ATOM      9  C   UNL     1       6.786  15.030  18.152  0.00  0.00    +0.000 C 
ATOM     10  O   UNL     1       7.335  13.007  17.050  0.00  0.00    +0.000 OA
ENDROOT
BRANCH   6  11
ATOM     11  N   UNL     1      11.063  16.668  17.217  0.00  0.00    +0.000 N 
ATOM     12  O   UNL     1      12.292  16.555  17.185  0.00  0.00    +0.000 OA
ATOM     13  O   UNL     1      10.483  17.740  16.989  0.00  0.00    +0.000 OA
ENDBRANCH   6  11
BRANCH   1  15
ATOM     14  C   UNL     1      11.851  16.873  20.697  0.00  0.00    +0.000 C 
ATOM     15  C   UNL     1      10.446  16.904  20.096  0.00  0.00    +0.000 C 
ENDBRANCH   1  15
BRANCH   7  16
ATOM     16  C   UNL     1       9.889  12.894  17.674  0.00  0.00    +0.000 C 
BRANCH  16  17
ATOM     17  C   UNL     1      10.497  11.812  18.587  0.00  0.00    +0.000 C 
ATOM     18  C   UNL     1       9.419  10.850  19.059  0.00  0.00    +0.000 C 
ATOM     19  C   UNL     1       9.490  10.844  20.568  0.00  0.00    +0.000 C 
ATOM     20  O   UNL     1      10.584  11.655  20.979  0.00  0.00    +0.000 OA
ATOM     21  C   UNL     1      11.161  12.312  19.855  0.00  0.00    +0.000 C 
ENDBRANCH  16  17
ENDBRANCH   7  16
TORSDOF 4
ENDMDL
MODEL 7
REMARK VINA RESULT:      -5.2      2.539      5.558
REMARK  Name = 
REMARK  7 active torsions:
REMARK  status: ('A' for Active; 'I' for Inactive)
REMARK    1  A    between atoms: C_1  and  C_2
REMARK    2  A    between atoms: C_2  and  N_3
REMARK    3  A    between atoms: C_4  and  C_5
REMARK    4  A    between atoms: N_8  and  N_9
REMARK    5  A    between atoms: N_12  and  C_13
REMARK    6  A    between atoms: C_13  and  C_14
REMARK    7  A    between atoms: C_19  and  C_20
REMARK                            x       y       z     vdW  Elec       q    Type
REMARK                         _______ _______ _______ _____ _____    ______ ____
ROOT
ATOM      1  N   UNL     1       5.690   5.017  17.888  0.00  0.00    +0.000 N 
ATOM      2  C   UNL     1       5.647   5.123  19.312  0.00  0.00    +0.000 C 
ATOM      3  C   UNL     1       4.412   4.888  20.155  0.00  0.00    +0.000 C 
ATOM      4  O   UNL     1       6.640   5.417  19.991  0.00  0.00    +0.000 OA
ATOM      5  C   UNL     1       4.640   4.703  16.914  0.00  0.00    +0.000 C 
ATOM      6  N   UNL     1       4.604   4.603  15.622  0.00  0.00    +0.000 NA
ATOM      7  N   UNL     1       3.403   4.391  17.485  0.00  0.00    +0.000 N 
ATOM      8  C   UNL     1       2.416   5.398  17.633  0.00  0.00    +0.000 C 
ATOM      9  C   UNL     1       2.862   6.810  17.941  0.00  0.00    +0.000 C 
ATOM     10  O   UNL     1       1.207   5.160  17.561  0.00  0.00    +0.000 OA
ENDROOT
BRANCH   6  11
ATOM     11  N   UNL     1       5.602   4.757  14.759  0.00  0.00    +0.000 N 
ATOM     12  O   UNL     1       6.163   3.764  14.287  0.00  0.00    +0.000 OA
ATOM     13  O   UNL     1       5.854   5.911  14.382  0.00  0.00    +0.000 OA
ENDBRANCH   6  11
BRANCH   1  15
ATOM     14  C   UNL     1       7.792   6.451  17.066  0.00  0.00    +0.000 C 
ATOM     15  C   UNL     1       7.045   5.140  17.308  0.00  0.00    +0.000 C 
ENDBRANCH   1  15
BRANCH   7  16
ATOM     16  C   UNL     1       2.789   3.121  17.048  0.00  0.00    +0.000 C 
BRANCH  16  17
ATOM     17  C   UNL     1       2.540   2.010  18.086  0.00  0.00    +0.000 C 
ATOM     18  C   UNL     1       1.253   2.278  18.850  0.00  0.00    +0.000 C 
ATOM     19  C   UNL     1       1.623   2.277  20.314  0.00  0.00    +0.000 C 
ATOM     20  O   UNL     1       2.999   1.939  20.439  0.00  0.00    +0.000 OA
ATOM     21  C   UNL     1       3.604   1.849  19.153  0.00  0.00    +0.000 C 
ENDBRANCH  16  17
ENDBRANCH   7  16
TORSDOF 4
ENDMDL
MODEL 8
REMARK VINA RESULT:      -5.2      1.841      3.945
REMARK  Name = 
REMARK  7 active torsions:
REMARK  status: ('A' for Active; 'I' for Inactive)
REMARK    1  A    between atoms: C_1  and  C_2
REMARK    2  A    between atoms: C_2  and  N_3
REMARK    3  A    between atoms: C_4  and  C_5
REMARK    4  A    between atoms: N_8  and  N_9
REMARK    5  A    between atoms: N_12  and  C_13
REMARK    6  A    between atoms: C_13  and  C_14
REMARK    7  A    between atoms: C_19  and  C_20
REMARK                            x       y       z     vdW  Elec       q    Type
REMARK                         _______ _______ _______ _____ _____    ______ ____
ROOT
ATOM      1  N   UNL     1       4.086   3.977  18.490  0.00  0.00    +0.000 N 
ATOM      2  C   UNL     1       2.765   3.544  18.163  0.00  0.00    +0.000 C 
ATOM      3  C   UNL     1       1.742   4.383  17.426  0.00  0.00    +0.000 C 
ATOM      4  O   UNL     1       2.338   2.420  18.458  0.00  0.00    +0.000 OA
ATOM      5  C   UNL     1       4.768   5.252  18.250  0.00  0.00    +0.000 C 
ATOM      6  N   UNL     1       5.948   5.715  18.526  0.00  0.00    +0.000 NA
ATOM      7  N   UNL     1       4.016   6.177  17.520  0.00  0.00    +0.000 N 
ATOM      8  C   UNL     1       3.254   7.163  18.197  0.00  0.00    +0.000 C 
ATOM      9  C   UNL     1       2.614   6.803  19.520  0.00  0.00    +0.000 C 
ATOM     10  O   UNL     1       3.057   8.288  17.729  0.00  0.00    +0.000 OA
ENDROOT
BRANCH   6  11
ATOM     11  N   UNL     1       6.949   5.095  19.140  0.00  0.00    +0.000 N 
ATOM     12  O   UNL     1       7.744   4.415  18.485  0.00  0.00    +0.000 OA
ATOM     13  O   UNL     1       7.099   5.321  20.350  0.00  0.00    +0.000 OA
ENDBRANCH   6  11
BRANCH   1  15
ATOM     14  C   UNL     1       4.704   2.215  20.403  0.00  0.00    +0.000 C 
ATOM     15  C   UNL     1       4.947   2.924  19.071  0.00  0.00    +0.000 C 
ENDBRANCH   1  15
BRANCH   7  16
ATOM     16  C   UNL     1       4.673   6.753  16.330  0.00  0.00    +0.000 C 
BRANCH  16  17
ATOM     17  C   UNL     1       5.212   5.810  15.237  0.00  0.00    +0.000 C 
ATOM     18  C   UNL     1       4.696   4.397  15.455  0.00  0.00    +0.000 C 
ATOM     19  C   UNL     1       5.916   3.508  15.518  0.00  0.00    +0.000 C 
ATOM     20  O   UNL     1       7.072   4.296  15.260  0.00  0.00    +0.000 OA
ATOM     21  C   UNL     1       6.720   5.673  15.167  0.00  0.00    +0.000 C 
ENDBRANCH  16  17
ENDBRANCH   7  16
TORSDOF 4
ENDMDL
MODEL 9
REMARK VINA RESULT:      -5.1      2.339      5.165
REMARK  Name = 
REMARK  7 active torsions:
REMARK  status: ('A' for Active; 'I' for Inactive)
REMARK    1  A    between atoms: C_1  and  C_2
REMARK    2  A    between atoms: C_2  and  N_3
REMARK    3  A    between atoms: C_4  and  C_5
REMARK    4  A    between atoms: N_8  and  N_9
REMARK    5  A    between atoms: N_12  and  C_13
REMARK    6  A    between atoms: C_13  and  C_14
REMARK    7  A    between atoms: C_19  and  C_20
REMARK                            x       y       z     vdW  Elec       q    Type
REMARK                         _______ _______ _______ _____ _____    ______ ____
ROOT
ATOM      1  N   UNL     1       4.942   4.851  18.895  0.00  0.00    +0.000 N 
ATOM      2  C   UNL     1       6.276   5.251  19.212  0.00  0.00    +0.000 C 
ATOM      3  C   UNL     1       7.014   6.392  18.547  0.00  0.00    +0.000 C 
ATOM      4  O   UNL     1       6.953   4.686  20.082  0.00  0.00    +0.000 OA
ATOM      5  C   UNL     1       3.992   5.368  17.905  0.00  0.00    +0.000 C 
ATOM      6  N   UNL     1       2.784   5.052  17.556  0.00  0.00    +0.000 NA
ATOM      7  N   UNL     1       4.452   6.483  17.197  0.00  0.00    +0.000 N 
ATOM      8  C   UNL     1       5.072   6.315  15.933  0.00  0.00    +0.000 C 
ATOM      9  C   UNL     1       5.921   5.085  15.701  0.00  0.00    +0.000 C 
ATOM     10  O   UNL     1       4.981   7.152  15.031  0.00  0.00    +0.000 OA
ENDROOT
BRANCH   6  11
ATOM     11  N   UNL     1       2.009   4.099  18.061  0.00  0.00    +0.000 N 
ATOM     12  O   UNL     1       1.349   4.320  19.080  0.00  0.00    +0.000 OA
ATOM     13  O   UNL     1       1.902   3.049  17.409  0.00  0.00    +0.000 OA
ENDBRANCH   6  11
BRANCH   1  15
ATOM     14  C   UNL     1       4.520   2.304  19.587  0.00  0.00    +0.000 C 
ATOM     15  C   UNL     1       4.386   3.813  19.789  0.00  0.00    +0.000 C 
ENDBRANCH   1  15
BRANCH   7  16
ATOM     16  C   UNL     1       3.557   7.658  17.185  0.00  0.00    +0.000 C 
BRANCH  16  17
ATOM     17  C   UNL     1       2.251   7.617  18.001  0.00  0.00    +0.000 C 
ATOM     18  C   UNL     1       1.386   8.825  17.678  0.00  0.00    +0.000 C 
ATOM     19  C   UNL     1       1.096   9.502  18.997  0.00  0.00    +0.000 C 
ATOM     20  O   UNL     1       1.652   8.719  20.046  0.00  0.00    +0.000 OA
ATOM     21  C   UNL     1       2.411   7.641  19.509  0.00  0.00    +0.000 C 
ENDBRANCH  16  17
ENDBRANCH   7  16
TORSDOF 4
ENDMDL
