MODEL 1
REMARK VINA RESULT:      -7.5      0.000      0.000
REMARK  Name = 
REMARK  8 active torsions:
REMARK  status: ('A' for Active; 'I' for Inactive)
REMARK    1  A    between atoms: C_2  and  C_3
REMARK    2  A    between atoms: C_3  and  S_4
REMARK    3  A    between atoms: S_4  and  C_5
REMARK    4  A    between atoms: C_8  and  C_9
REMARK    5  A    between atoms: C_14  and  N_15
REMARK    6  A    between atoms: C_16  and  C_18
REMARK    7  A    between atoms: C_18  and  C_19
REMARK    8  A    between atoms: C_20  and  O_21
REMARK                            x       y       z     vdW  Elec       q    Type
REMARK                         _______ _______ _______ _____ _____    ______ ____
ROOT
ATOM      1  C   UNL     1       2.959   5.078  18.915  0.00  0.00    +0.000 A 
ATOM      2  N   UNL     1       3.311   6.166  18.198  0.00  0.00    +0.000 NA
ATOM      3  N   UNL     1       4.112   6.025  17.087  0.00  0.00    +0.000 NA
ATOM      4  C   UNL     1       4.545   4.799  16.728  0.00  0.00    +0.000 A 
ATOM      5  C   UNL     1       4.157   3.728  17.534  0.00  0.00    +0.000 A 
ATOM      6  N   UNL     1       3.357   3.839  18.611  0.00  0.00    +0.000 NA
ENDROOT
BRANCH   4   7
ATOM      7  C   UNL     1       5.414   4.716  15.526  0.00  0.00    +0.000 A 
ATOM      8  C   UNL     1       4.953   3.999  14.390  0.00  0.00    +0.000 A 
ATOM      9  C   UNL     1       5.753   3.782  13.268  0.00  0.00    +0.000 A 
ATOM     10  C   UNL     1       7.039   4.296  13.238  0.00  0.00    +0.000 A 
ATOM     11  C   UNL     1       7.498   5.063  14.306  0.00  0.00    +0.000 A 
ATOM     12  C   UNL     1       6.701   5.318  15.438  0.00  0.00    +0.000 A 
BRANCH  12  13
ATOM     13  N   UNL     1       7.185   6.161  16.482  0.00  0.00    +0.000 N 
ATOM     14  C   UNL     1       7.641   5.742  17.726  0.00  0.00    +0.000 C 
ATOM     15  O   UNL     1       7.715   4.581  18.115  0.00  0.00    +0.000 OA
ATOM     16  H   UNL     1       7.402   7.119  16.218  0.00  0.00    +0.000 HD
BRANCH  14  17
ATOM     17  C   UNL     1       8.076   6.892  18.618  0.00  0.00    +0.000 C 
ATOM     18  C   UNL     1       8.037   8.219  17.867  0.00  0.00    +0.000 C 
ENDBRANCH  14  17
ENDBRANCH  12  13
ENDBRANCH   4   7
BRANCH   5  19
ATOM     19  O   UNL     1       4.589   2.444  17.353  0.00  0.00    +0.000 OA
ATOM     20  H   UNL     1       5.550   2.421  17.480  0.00  0.00    +0.000 HD
ENDBRANCH   5  19
BRANCH   1  21
ATOM     21  S   UNL     1       1.945   5.317  20.351  0.00  0.00    +0.000 S 
BRANCH  21  22
ATOM     22  C   UNL     1       0.860   3.867  20.180  0.00  0.00    +0.000 C 
BRANCH  22  24
ATOM     23  C   UNL     1       2.407   2.690  21.783  0.00  0.00    +0.000 C 
ATOM     24  C   UNL     1       1.188   2.869  21.254  0.00  0.00    +0.000 C 
ENDBRANCH  22  24
ENDBRANCH  21  22
ENDBRANCH   1  21
TORSDOF 7
ENDMDL
MODEL 2
REMARK VINA RESULT:      -7.2      2.926      6.692
REMARK  Name = 
REMARK  8 active torsions:
REMARK  status: ('A' for Active; 'I' for Inactive)
REMARK    1  A    between atoms: C_2  and  C_3
REMARK    2  A    between atoms: C_3  and  S_4
REMARK    3  A    between atoms: S_4  and  C_5
REMARK    4  A    between atoms: C_8  and  C_9
REMARK    5  A    between atoms: C_14  and  N_15
REMARK    6  A    between atoms: C_16  and  C_18
REMARK    7  A    between atoms: C_18  and  C_19
REMARK    8  A    between atoms: C_20  and  O_21
REMARK                            x       y       z     vdW  Elec       q    Type
REMARK                         _______ _______ _______ _____ _____    ______ ____
ROOT
ATOM      1  C   UNL     1       5.271   4.743  16.445  0.00  0.00    +0.000 A 
ATOM      2  N   UNL     1       5.613   6.000  16.801  0.00  0.00    +0.000 NA
ATOM      3  N   UNL     1       4.733   6.769  17.528  0.00  0.00    +0.000 NA
ATOM      4  C   UNL     1       3.532   6.263  17.874  0.00  0.00    +0.000 A 
ATOM      5  C   UNL     1       3.244   4.965  17.449  0.00  0.00    +0.000 A 
ATOM      6  N   UNL     1       4.097   4.187  16.757  0.00  0.00    +0.000 NA
ENDROOT
BRANCH   4   7
ATOM      7  C   UNL     1       2.626   7.148  18.649  0.00  0.00    +0.000 A 
ATOM      8  C   UNL     1       2.124   8.328  18.039  0.00  0.00    +0.000 A 
ATOM      9  C   UNL     1       1.360   9.264  18.736  0.00  0.00    +0.000 A 
ATOM     10  C   UNL     1       1.053   9.038  20.067  0.00  0.00    +0.000 A 
ATOM     11  C   UNL     1       1.471   7.858  20.678  0.00  0.00    +0.000 A 
ATOM     12  C   UNL     1       2.221   6.886  19.989  0.00  0.00    +0.000 A 
BRANCH  12  13
ATOM     13  N   UNL     1       2.574   5.663  20.632  0.00  0.00    +0.000 N 
ATOM     14  C   UNL     1       1.754   4.552  20.785  0.00  0.00    +0.000 C 
ATOM     15  O   UNL     1       0.602   4.443  20.375  0.00  0.00    +0.000 OA
ATOM     16  H   UNL     1       3.567   5.522  20.810  0.00  0.00    +0.000 HD
BRANCH  14  17
ATOM     17  C   UNL     1       2.426   3.412  21.530  0.00  0.00    +0.000 C 
ATOM     18  C   UNL     1       3.318   2.596  20.601  0.00  0.00    +0.000 C 
ENDBRANCH  14  17
ENDBRANCH  12  13
ENDBRANCH   4   7
BRANCH   5  19
ATOM     19  O   UNL     1       2.038   4.351  17.642  0.00  0.00    +0.000 OA
ATOM     20  H   UNL     1       2.169   3.391  17.582  0.00  0.00    +0.000 HD
ENDBRANCH   5  19
BRANCH   1  21
ATOM     21  S   UNL     1       6.431   3.801  15.489  0.00  0.00    +0.000 S 
BRANCH  21  22
ATOM     22  C   UNL     1       6.102   4.520  13.850  0.00  0.00    +0.000 C 
BRANCH  22  24
ATOM     23  C   UNL     1       5.115   3.254  11.909  0.00  0.00    +0.000 C 
ATOM     24  C   UNL     1       6.082   3.426  12.821  0.00  0.00    +0.000 C 
ENDBRANCH  22  24
ENDBRANCH  21  22
ENDBRANCH   1  21
TORSDOF 7
ENDMDL
MODEL 3
REMARK VINA RESULT:      -7.0      2.660      6.506
REMARK  Name = 
REMARK  8 active torsions:
REMARK  status: ('A' for Active; 'I' for Inactive)
REMARK    1  A    between atoms: C_2  and  C_3
REMARK    2  A    between atoms: C_3  and  S_4
REMARK    3  A    between atoms: S_4  and  C_5
REMARK    4  A    between atoms: C_8  and  C_9
REMARK    5  A    between atoms: C_14  and  N_15
REMARK    6  A    between atoms: C_16  and  C_18
REMARK    7  A    between atoms: C_18  and  C_19
REMARK    8  A    between atoms: C_20  and  O_21
REMARK                            x       y       z     vdW  Elec       q    Type
REMARK                         _______ _______ _______ _____ _____    ______ ____
ROOT
ATOM      1  C   UNL     1       6.111   4.376  16.141  0.00  0.00    +0.000 A 
ATOM      2  N   UNL     1       4.850   3.899  16.060  0.00  0.00    +0.000 NA
ATOM      3  N   UNL     1       4.097   3.756  17.203  0.00  0.00    +0.000 NA
ATOM      4  C   UNL     1       4.626   4.089  18.398  0.00  0.00    +0.000 A 
ATOM      5  C   UNL     1       5.942   4.553  18.401  0.00  0.00    +0.000 A 
ATOM      6  N   UNL     1       6.690   4.721  17.295  0.00  0.00    +0.000 NA
ENDROOT
BRANCH   4   7
ATOM      7  C   UNL     1       3.764   3.902  19.592  0.00  0.00    +0.000 A 
ATOM      8  C   UNL     1       3.718   2.628  20.218  0.00  0.00    +0.000 A 
ATOM      9  C   UNL     1       2.852   2.344  21.274  0.00  0.00    +0.000 A 
ATOM     10  C   UNL     1       2.014   3.337  21.754  0.00  0.00    +0.000 A 
ATOM     11  C   UNL     1       2.082   4.617  21.209  0.00  0.00    +0.000 A 
ATOM     12  C   UNL     1       2.967   4.936  20.160  0.00  0.00    +0.000 A 
BRANCH  12  13
ATOM     13  N   UNL     1       3.051   6.273  19.674  0.00  0.00    +0.000 N 
ATOM     14  C   UNL     1       2.460   6.761  18.514  0.00  0.00    +0.000 C 
ATOM     15  O   UNL     1       1.759   6.121  17.737  0.00  0.00    +0.000 OA
ATOM     16  H   UNL     1       3.399   6.967  20.332  0.00  0.00    +0.000 HD
BRANCH  14  17
ATOM     17  C   UNL     1       2.753   8.231  18.269  0.00  0.00    +0.000 C 
ATOM     18  C   UNL     1       1.514   8.965  17.768  0.00  0.00    +0.000 C 
ENDBRANCH  14  17
ENDBRANCH  12  13
ENDBRANCH   4   7
BRANCH   5  19
ATOM     19  O   UNL     1       6.645   4.841  19.537  0.00  0.00    +0.000 OA
ATOM     20  H   UNL     1       7.339   5.482  19.316  0.00  0.00    +0.000 HD
ENDBRANCH   5  19
BRANCH   1  21
ATOM     21  S   UNL     1       7.048   4.519  14.642  0.00  0.00    +0.000 S 
BRANCH  21  22
ATOM     22  C   UNL     1       5.739   4.114  13.445  0.00  0.00    +0.000 C 
BRANCH  22  24
ATOM     23  C   UNL     1       5.571   2.448  11.563  0.00  0.00    +0.000 C 
ATOM     24  C   UNL     1       6.301   3.229  12.371  0.00  0.00    +0.000 C 
ENDBRANCH  22  24
ENDBRANCH  21  22
ENDBRANCH   1  21
TORSDOF 7
ENDMDL
MODEL 4
REMARK VINA RESULT:      -6.9      3.446      5.446
REMARK  Name = 
REMARK  8 active torsions:
REMARK  status: ('A' for Active; 'I' for Inactive)
REMARK    1  A    between atoms: C_2  and  C_3
REMARK    2  A    between atoms: C_3  and  S_4
REMARK    3  A    between atoms: S_4  and  C_5
REMARK    4  A    between atoms: C_8  and  C_9
REMARK    5  A    between atoms: C_14  and  N_15
REMARK    6  A    between atoms: C_16  and  C_18
REMARK    7  A    between atoms: C_18  and  C_19
REMARK    8  A    between atoms: C_20  and  O_21
REMARK                            x       y       z     vdW  Elec       q    Type
REMARK                         _______ _______ _______ _____ _____    ______ ____
ROOT
ATOM      1  C   UNL     1       1.448   8.625  19.525  0.00  0.00    +0.000 A 
ATOM      2  N   UNL     1       1.672   8.823  18.208  0.00  0.00    +0.000 NA
ATOM      3  N   UNL     1       2.496   7.964  17.517  0.00  0.00    +0.000 NA
ATOM      4  C   UNL     1       3.080   6.934  18.163  0.00  0.00    +0.000 A 
ATOM      5  C   UNL     1       2.817   6.811  19.528  0.00  0.00    +0.000 A 
ATOM      6  N   UNL     1       1.998   7.625  20.220  0.00  0.00    +0.000 NA
ENDROOT
BRANCH   4   7
ATOM      7  C   UNL     1       3.965   6.050  17.363  0.00  0.00    +0.000 A 
ATOM      8  C   UNL     1       4.965   6.636  16.542  0.00  0.00    +0.000 A 
ATOM      9  C   UNL     1       5.760   5.882  15.678  0.00  0.00    +0.000 A 
ATOM     10  C   UNL     1       5.593   4.508  15.624  0.00  0.00    +0.000 A 
ATOM     11  C   UNL     1       4.669   3.893  16.465  0.00  0.00    +0.000 A 
ATOM     12  C   UNL     1       3.873   4.629  17.364  0.00  0.00    +0.000 A 
BRANCH  12  13
ATOM     13  N   UNL     1       2.985   3.956  18.253  0.00  0.00    +0.000 N 
ATOM     14  C   UNL     1       1.620   3.777  18.065  0.00  0.00    +0.000 C 
ATOM     15  O   UNL     1       0.968   4.155  17.097  0.00  0.00    +0.000 OA
ATOM     16  H   UNL     1       3.422   3.390  18.978  0.00  0.00    +0.000 HD
BRANCH  14  17
ATOM     17  C   UNL     1       0.955   3.028  19.208  0.00  0.00    +0.000 C 
ATOM     18  C   UNL     1       0.810   3.915  20.439  0.00  0.00    +0.000 C 
ENDBRANCH  14  17
ENDBRANCH  12  13
ENDBRANCH   4   7
BRANCH   5  19
ATOM     19  O   UNL     1       3.405   5.878  20.336  0.00  0.00    +0.000 OA
ATOM     20  H   UNL     1       4.325   6.141  20.491  0.00  0.00    +0.000 HD
ENDBRANCH   5  19
BRANCH   1  21
ATOM     21  S   UNL     1       0.396   9.774  20.375  0.00  0.00    +0.000 S 
BRANCH  21  22
ATOM     22  C   UNL     1      -0.050  10.845  18.974  0.00  0.00    +0.000 C 
BRANCH  22  24
ATOM     23  C   UNL     1      -1.787   9.993  17.360  0.00  0.00    +0.000 C 
ATOM     24  C   UNL     1      -1.454  10.537  18.538  0.00  0.00    +0.000 C 
ENDBRANCH  22  24
ENDBRANCH  21  22
ENDBRANCH   1  21
TORSDOF 7
ENDMDL
MODEL 5
REMARK VINA RESULT:      -6.9      3.655      4.730
REMARK  Name = 
REMARK  8 active torsions:
REMARK  status: ('A' for Active; 'I' for Inactive)
REMARK    1  A    between atoms: C_2  and  C_3
REMARK    2  A    between atoms: C_3  and  S_4
REMARK    3  A    between atoms: S_4  and  C_5
REMARK    4  A    between atoms: C_8  and  C_9
REMARK    5  A    between atoms: C_14  and  N_15
REMARK    6  A    between atoms: C_16  and  C_18
REMARK    7  A    between atoms: C_18  and  C_19
REMARK    8  A    between atoms: C_20  and  O_21
REMARK                            x       y       z     vdW  Elec       q    Type
REMARK                         _______ _______ _______ _____ _____    ______ ____
ROOT
ATOM      1  C   UNL     1       1.561   9.188  19.282  0.00  0.00    +0.000 A 
ATOM      2  N   UNL     1       1.926   8.942  18.005  0.00  0.00    +0.000 NA
ATOM      3  N   UNL     1       2.348   7.683  17.644  0.00  0.00    +0.000 NA
ATOM      4  C   UNL     1       2.400   6.704  18.570  0.00  0.00    +0.000 A 
ATOM      5  C   UNL     1       2.030   7.044  19.872  0.00  0.00    +0.000 A 
ATOM      6  N   UNL     1       1.593   8.262  20.244  0.00  0.00    +0.000 NA
ENDROOT
BRANCH   4   7
ATOM      7  C   UNL     1       2.873   5.372  18.118  0.00  0.00    +0.000 A 
ATOM      8  C   UNL     1       1.919   4.351  17.863  0.00  0.00    +0.000 A 
ATOM      9  C   UNL     1       2.289   3.044  17.544  0.00  0.00    +0.000 A 
ATOM     10  C   UNL     1       3.632   2.720  17.447  0.00  0.00    +0.000 A 
ATOM     11  C   UNL     1       4.593   3.713  17.623  0.00  0.00    +0.000 A 
ATOM     12  C   UNL     1       4.244   5.045  17.921  0.00  0.00    +0.000 A 
BRANCH  12  13
ATOM     13  N   UNL     1       5.256   6.044  18.030  0.00  0.00    +0.000 N 
ATOM     14  C   UNL     1       5.819   6.756  16.978  0.00  0.00    +0.000 C 
ATOM     15  O   UNL     1       5.523   6.649  15.793  0.00  0.00    +0.000 OA
ATOM     16  H   UNL     1       5.429   6.404  18.966  0.00  0.00    +0.000 HD
BRANCH  14  17
ATOM     17  C   UNL     1       6.884   7.741  17.429  0.00  0.00    +0.000 C 
ATOM     18  C   UNL     1       7.940   7.056  18.291  0.00  0.00    +0.000 C 
ENDBRANCH  14  17
ENDBRANCH  12  13
ENDBRANCH   4   7
BRANCH   5  19
ATOM     19  O   UNL     1       2.118   6.190  20.936  0.00  0.00    +0.000 OA
ATOM     20  H   UNL     1       2.183   5.282  20.598  0.00  0.00    +0.000 HD
ENDBRANCH   5  19
BRANCH   1  21
ATOM     21  S   UNL     1       1.048  10.833  19.701  0.00  0.00    +0.000 S 
BRANCH  21  22
ATOM     22  C   UNL     1      -0.480  10.435  20.605  0.00  0.00    +0.000 C 
BRANCH  22  24
ATOM     23  C   UNL     1      -0.508   9.924  23.072  0.00  0.00    +0.000 C 
ATOM     24  C   UNL     1      -0.303  10.775  22.057  0.00  0.00    +0.000 C 
ENDBRANCH  22  24
ENDBRANCH  21  22
ENDBRANCH   1  21
TORSDOF 7
ENDMDL
MODEL 6
REMARK VINA RESULT:      -6.9      3.393      5.245
REMARK  Name = 
REMARK  8 active torsions:
REMARK  status: ('A' for Active; 'I' for Inactive)
REMARK    1  A    between atoms: C_2  and  C_3
REMARK    2  A    between atoms: C_3  and  S_4
REMARK    3  A    between atoms: S_4  and  C_5
REMARK    4  A    between atoms: C_8  and  C_9
REMARK    5  A    between atoms: C_14  and  N_15
REMARK    6  A    between atoms: C_16  and  C_18
REMARK    7  A    between atoms: C_18  and  C_19
REMARK    8  A    between atoms: C_20  and  O_21
REMARK                            x       y       z     vdW  Elec       q    Type
REMARK                         _______ _______ _______ _____ _____    ______ ____
ROOT
ATOM      1  C   UNL     1       1.378   8.681  19.667  0.00  0.00    +0.000 A 
ATOM      2  N   UNL     1       1.767   8.970  18.407  0.00  0.00    +0.000 NA
ATOM      3  N   UNL     1       2.606   8.111  17.735  0.00  0.00    +0.000 NA
ATOM      4  C   UNL     1       3.041   6.989  18.343  0.00  0.00    +0.000 A 
ATOM      5  C   UNL     1       2.613   6.773  19.654  0.00  0.00    +0.000 A 
ATOM      6  N   UNL     1       1.776   7.587  20.323  0.00  0.00    +0.000 NA
ENDROOT
BRANCH   4   7
ATOM      7  C   UNL     1       3.952   6.110  17.567  0.00  0.00    +0.000 A 
ATOM      8  C   UNL     1       5.180   6.639  17.089  0.00  0.00    +0.000 A 
ATOM      9  C   UNL     1       6.036   5.913  16.261  0.00  0.00    +0.000 A 
ATOM     10  C   UNL     1       5.698   4.619  15.900  0.00  0.00    +0.000 A 
ATOM     11  C   UNL     1       4.535   4.045  16.407  0.00  0.00    +0.000 A 
ATOM     12  C   UNL     1       3.669   4.748  17.265  0.00  0.00    +0.000 A 
BRANCH  12  13
ATOM     13  N   UNL     1       2.521   4.103  17.813  0.00  0.00    +0.000 N 
ATOM     14  C   UNL     1       2.453   2.784  18.247  0.00  0.00    +0.000 C 
ATOM     15  O   UNL     1       3.375   1.974  18.242  0.00  0.00    +0.000 OA
ATOM     16  H   UNL     1       1.757   4.713  18.095  0.00  0.00    +0.000 HD
BRANCH  14  17
ATOM     17  C   UNL     1       1.079   2.398  18.766  0.00  0.00    +0.000 C 
ATOM     18  C   UNL     1       0.762   3.115  20.075  0.00  0.00    +0.000 C 
ENDBRANCH  14  17
ENDBRANCH  12  13
ENDBRANCH   4   7
BRANCH   5  19
ATOM     19  O   UNL     1       3.040   5.733  20.432  0.00  0.00    +0.000 OA
ATOM     20  H   UNL     1       2.801   4.901  19.993  0.00  0.00    +0.000 HD
ENDBRANCH   5  19
BRANCH   1  21
ATOM     21  S   UNL     1       0.315   9.832  20.498  0.00  0.00    +0.000 S 
BRANCH  21  22
ATOM     22  C   UNL     1       0.008   8.889  22.024  0.00  0.00    +0.000 C 
BRANCH  22  24
ATOM     23  C   UNL     1      -0.989  11.043  22.868  0.00  0.00    +0.000 C 
ATOM     24  C   UNL     1      -0.493   9.819  23.092  0.00  0.00    +0.000 C 
ENDBRANCH  22  24
ENDBRANCH  21  22
ENDBRANCH   1  21
TORSDOF 7
ENDMDL
MODEL 7
REMARK VINA RESULT:      -6.9      1.628      2.015
REMARK  Name = 
REMARK  8 active torsions:
REMARK  status: ('A' for Active; 'I' for Inactive)
REMARK    1  A    between atoms: C_2  and  C_3
REMARK    2  A    between atoms: C_3  and  S_4
REMARK    3  A    between atoms: S_4  and  C_5
REMARK    4  A    between atoms: C_8  and  C_9
REMARK    5  A    between atoms: C_14  and  N_15
REMARK    6  A    between atoms: C_16  and  C_18
REMARK    7  A    between atoms: C_18  and  C_19
REMARK    8  A    between atoms: C_20  and  O_21
REMARK                            x       y       z     vdW  Elec       q    Type
REMARK                         _______ _______ _______ _____ _____    ______ ____
ROOT
ATOM      1  C   UNL     1       2.927   5.496  19.048  0.00  0.00    +0.000 A 
ATOM      2  N   UNL     1       3.302   6.523  18.255  0.00  0.00    +0.000 NA
ATOM      3  N   UNL     1       4.089   6.284  17.152  0.00  0.00    +0.000 NA
ATOM      4  C   UNL     1       4.487   5.026  16.874  0.00  0.00    +0.000 A 
ATOM      5  C   UNL     1       4.078   4.023  17.754  0.00  0.00    +0.000 A 
ATOM      6  N   UNL     1       3.290   4.229  18.826  0.00  0.00    +0.000 NA
ENDROOT
BRANCH   4   7
ATOM      7  C   UNL     1       5.343   4.838  15.676  0.00  0.00    +0.000 A 
ATOM      8  C   UNL     1       4.834   4.102  14.573  0.00  0.00    +0.000 A 
ATOM      9  C   UNL     1       5.614   3.788  13.459  0.00  0.00    +0.000 A 
ATOM     10  C   UNL     1       6.929   4.221  13.404  0.00  0.00    +0.000 A 
ATOM     11  C   UNL     1       7.439   5.002  14.438  0.00  0.00    +0.000 A 
ATOM     12  C   UNL     1       6.665   5.355  15.560  0.00  0.00    +0.000 A 
BRANCH  12  13
ATOM     13  N   UNL     1       7.205   6.210  16.565  0.00  0.00    +0.000 N 
ATOM     14  C   UNL     1       7.642   5.817  17.824  0.00  0.00    +0.000 C 
ATOM     15  O   UNL     1       7.648   4.671  18.262  0.00  0.00    +0.000 OA
ATOM     16  H   UNL     1       7.478   7.141  16.259  0.00  0.00    +0.000 HD
BRANCH  14  17
ATOM     17  C   UNL     1       8.151   6.975  18.665  0.00  0.00    +0.000 C 
ATOM     18  C   UNL     1       8.064   8.292  17.901  0.00  0.00    +0.000 C 
ENDBRANCH  14  17
ENDBRANCH  12  13
ENDBRANCH   4   7
BRANCH   5  19
ATOM     19  O   UNL     1       4.475   2.718  17.660  0.00  0.00    +0.000 OA
ATOM     20  H   UNL     1       4.160   2.243  18.445  0.00  0.00    +0.000 HD
ENDBRANCH   5  19
BRANCH   1  21
ATOM     21  S   UNL     1       1.931   5.859  20.470  0.00  0.00    +0.000 S 
BRANCH  21  22
ATOM     22  C   UNL     1       1.759   7.657  20.248  0.00  0.00    +0.000 C 
BRANCH  22  24
ATOM     23  C   UNL     1      -0.114   8.781  21.503  0.00  0.00    +0.000 C 
ATOM     24  C   UNL     1       1.116   8.250  21.469  0.00  0.00    +0.000 C 
ENDBRANCH  22  24
ENDBRANCH  21  22
ENDBRANCH   1  21
TORSDOF 7
ENDMDL
MODEL 8
REMARK VINA RESULT:      -6.8      3.388      5.218
REMARK  Name = 
REMARK  8 active torsions:
REMARK  status: ('A' for Active; 'I' for Inactive)
REMARK    1  A    between atoms: C_2  and  C_3
REMARK    2  A    between atoms: C_3  and  S_4
REMARK    3  A    between atoms: S_4  and  C_5
REMARK    4  A    between atoms: C_8  and  C_9
REMARK    5  A    between atoms: C_14  and  N_15
REMARK    6  A    between atoms: C_16  and  C_18
REMARK    7  A    between atoms: C_18  and  C_19
REMARK    8  A    between atoms: C_20  and  O_21
REMARK                            x       y       z     vdW  Elec       q    Type
REMARK                         _______ _______ _______ _____ _____    ______ ____
ROOT
ATOM      1  C   UNL     1       1.541   9.019  18.935  0.00  0.00    +0.000 A 
ATOM      2  N   UNL     1       1.900   9.020  17.634  0.00  0.00    +0.000 NA
ATOM      3  N   UNL     1       2.710   8.020  17.145  0.00  0.00    +0.000 NA
ATOM      4  C   UNL     1       3.144   7.048  17.973  0.00  0.00    +0.000 A 
ATOM      5  C   UNL     1       2.748   7.129  19.309  0.00  0.00    +0.000 A 
ATOM      6  N   UNL     1       1.940   8.085  19.804  0.00  0.00    +0.000 NA
ENDROOT
BRANCH   4   7
ATOM      7  C   UNL     1       4.021   6.004  17.386  0.00  0.00    +0.000 A 
ATOM      8  C   UNL     1       5.103   6.399  16.556  0.00  0.00    +0.000 A 
ATOM      9  C   UNL     1       5.903   5.477  15.879  0.00  0.00    +0.000 A 
ATOM     10  C   UNL     1       5.657   4.122  16.030  0.00  0.00    +0.000 A 
ATOM     11  C   UNL     1       4.647   3.698  16.890  0.00  0.00    +0.000 A 
ATOM     12  C   UNL     1       3.844   4.608  17.604  0.00  0.00    +0.000 A 
BRANCH  12  13
ATOM     13  N   UNL     1       2.864   4.132  18.523  0.00  0.00    +0.000 N 
ATOM     14  C   UNL     1       1.520   3.913  18.246  0.00  0.00    +0.000 C 
ATOM     15  O   UNL     1       0.970   4.079  17.161  0.00  0.00    +0.000 OA
ATOM     16  H   UNL     1       3.220   3.731  19.388  0.00  0.00    +0.000 HD
BRANCH  14  17
ATOM     17  C   UNL     1       0.736   3.416  19.448  0.00  0.00    +0.000 C 
ATOM     18  C   UNL     1       1.650   3.196  20.649  0.00  0.00    +0.000 C 
ENDBRANCH  14  17
ENDBRANCH  12  13
ENDBRANCH   4   7
BRANCH   5  19
ATOM     19  O   UNL     1       3.180   6.275  20.285  0.00  0.00    +0.000 OA
ATOM     20  H   UNL     1       3.382   5.418  19.876  0.00  0.00    +0.000 HD
ENDBRANCH   5  19
BRANCH   1  21
ATOM     21  S   UNL     1       0.517  10.343  19.520  0.00  0.00    +0.000 S 
BRANCH  21  22
ATOM     22  C   UNL     1      -0.328   9.475  20.878  0.00  0.00    +0.000 C 
BRANCH  22  24
ATOM     23  C   UNL     1      -0.247   9.579  23.393  0.00  0.00    +0.000 C 
ATOM     24  C   UNL     1       0.193   9.980  22.193  0.00  0.00    +0.000 C 
ENDBRANCH  22  24
ENDBRANCH  21  22
ENDBRANCH   1  21
TORSDOF 7
ENDMDL
MODEL 9
REMARK VINA RESULT:      -6.8      3.767      5.032
REMARK  Name = 
REMARK  8 active torsions:
REMARK  status: ('A' for Active; 'I' for Inactive)
REMARK    1  A    between atoms: C_2  and  C_3
REMARK    2  A    between atoms: C_3  and  S_4
REMARK    3  A    between atoms: S_4  and  C_5
REMARK    4  A    between atoms: C_8  and  C_9
REMARK    5  A    between atoms: C_14  and  N_15
REMARK    6  A    between atoms: C_16  and  C_18
REMARK    7  A    between atoms: C_18  and  C_19
REMARK    8  A    between atoms: C_20  and  O_21
REMARK                            x       y       z     vdW  Elec       q    Type
REMARK                         _______ _______ _______ _____ _____    ______ ____
ROOT
ATOM      1  C   UNL     1       1.625   9.483  19.006  0.00  0.00    +0.000 A 
ATOM      2  N   UNL     1       2.025   9.166  17.756  0.00  0.00    +0.000 NA
ATOM      3  N   UNL     1       2.413   7.877  17.467  0.00  0.00    +0.000 NA
ATOM      4  C   UNL     1       2.397   6.941  18.438  0.00  0.00    +0.000 A 
ATOM      5  C   UNL     1       1.994   7.353  19.709  0.00  0.00    +0.000 A 
ATOM      6  N   UNL     1       1.589   8.601  20.009  0.00  0.00    +0.000 NA
ENDROOT
BRANCH   4   7
ATOM      7  C   UNL     1       2.837   5.573  18.063  0.00  0.00    +0.000 A 
ATOM      8  C   UNL     1       1.856   4.574  17.829  0.00  0.00    +0.000 A 
ATOM      9  C   UNL     1       2.189   3.241  17.583  0.00  0.00    +0.000 A 
ATOM     10  C   UNL     1       3.523   2.870  17.542  0.00  0.00    +0.000 A 
ATOM     11  C   UNL     1       4.512   3.837  17.700  0.00  0.00    +0.000 A 
ATOM     12  C   UNL     1       4.201   5.192  17.924  0.00  0.00    +0.000 A 
BRANCH  12  13
ATOM     13  N   UNL     1       5.242   6.162  18.016  0.00  0.00    +0.000 N 
ATOM     14  C   UNL     1       5.897   6.764  16.949  0.00  0.00    +0.000 C 
ATOM     15  O   UNL     1       5.669   6.569  15.759  0.00  0.00    +0.000 OA
ATOM     16  H   UNL     1       5.372   6.592  18.930  0.00  0.00    +0.000 HD
BRANCH  14  17
ATOM     17  C   UNL     1       6.970   7.746  17.385  0.00  0.00    +0.000 C 
ATOM     18  C   UNL     1       7.969   7.087  18.331  0.00  0.00    +0.000 C 
ENDBRANCH  14  17
ENDBRANCH  12  13
ENDBRANCH   4   7
BRANCH   5  19
ATOM     19  O   UNL     1       2.013   6.547  20.812  0.00  0.00    +0.000 OA
ATOM     20  H   UNL     1       2.498   5.736  20.593  0.00  0.00    +0.000 HD
ENDBRANCH   5  19
BRANCH   1  21
ATOM     21  S   UNL     1       1.157  11.163  19.332  0.00  0.00    +0.000 S 
BRANCH  21  22
ATOM     22  C   UNL     1      -0.259  11.292  18.197  0.00  0.00    +0.000 C 
BRANCH  22  24
ATOM     23  C   UNL     1      -2.439  10.065  17.907  0.00  0.00    +0.000 C 
ATOM     24  C   UNL     1      -1.275  10.243  18.546  0.00  0.00    +0.000 C 
ENDBRANCH  22  24
ENDBRANCH  21  22
ENDBRANCH   1  21
TORSDOF 7
ENDMDL
