MODEL 1
REMARK VINA RESULT:      -8.2      0.000      0.000
REMARK  Name = 
REMARK  3 active torsions:
REMARK  status: ('A' for Active; 'I' for Inactive)
REMARK    1  A    between atoms: C_4  and  C_5
REMARK    2  A    between atoms: C_9  and  C_10
REMARK    3  A    between atoms: C_16  and  C_17
REMARK                            x       y       z     vdW  Elec       q    Type
REMARK                         _______ _______ _______ _____ _____    ______ ____
ROOT
ATOM      1  C   UNL     1       2.392   6.402  19.520  0.00  0.00    +0.000 A 
ATOM      2  C   UNL     1       2.585   6.919  18.161  0.00  0.00    +0.000 A 
ATOM      3  C   UNL     1       2.222   8.168  17.813  0.00  0.00    +0.000 A 
ATOM      4  C   UNL     1       1.672   9.032  18.793  0.00  0.00    +0.000 A 
ATOM      5  N   UNL     1       1.250  10.275  18.744  0.00  0.00    +0.000 NA
ATOM      6  N   UNL     1       0.836  10.625  20.007  0.00  0.00    +0.000 NA
ATOM      7  C   UNL     1       1.012   9.589  20.805  0.00  0.00    +0.000 A 
ATOM      8  N   UNL     1       1.530   8.538  20.082  0.00  0.00    +0.000 N 
ATOM      9  C   UNL     1       1.878   7.237  20.447  0.00  0.00    +0.000 A 
ENDROOT
BRANCH   1  14
ATOM     10  C   UNL     1       3.786   4.229  19.581  0.00  0.00    +0.000 A 
ATOM     11  N   UNL     1       3.640   3.001  20.194  0.00  0.00    +0.000 NA
ATOM     12  C   UNL     1       2.553   3.142  20.908  0.00  0.00    +0.000 A 
ATOM     13  O   UNL     1       1.940   4.346  20.795  0.00  0.00    +0.000 OA
ATOM     14  C   UNL     1       2.723   5.073  19.916  0.00  0.00    +0.000 A 
BRANCH  10  18
ATOM     15  C   UNL     1       7.094   5.000  16.996  0.00  0.00    +0.000 A 
ATOM     16  C   UNL     1       5.975   4.317  16.526  0.00  0.00    +0.000 A 
ATOM     17  C   UNL     1       4.891   4.078  17.377  0.00  0.00    +0.000 A 
ATOM     18  C   UNL     1       4.913   4.521  18.707  0.00  0.00    +0.000 A 
ATOM     19  C   UNL     1       6.053   5.193  19.166  0.00  0.00    +0.000 A 
ATOM     20  C   UNL     1       7.134   5.438  18.316  0.00  0.00    +0.000 A 
ENDBRANCH  10  18
ENDBRANCH   1  14
BRANCH   7  21
ATOM     21  C   UNL     1       0.675   9.605  22.291  0.00  0.00    +0.000 C 
ATOM     22  C   UNL     1      -0.495  10.454  22.747  0.00  0.00    +0.000 C 
ATOM     23  C   UNL     1      -0.635   8.972  22.721  0.00  0.00    +0.000 C 
ENDBRANCH   7  21
TORSDOF 3
ENDMDL
MODEL 2
REMARK VINA RESULT:      -8.2      0.063      1.006
REMARK  Name = 
REMARK  3 active torsions:
REMARK  status: ('A' for Active; 'I' for Inactive)
REMARK    1  A    between atoms: C_4  and  C_5
REMARK    2  A    between atoms: C_9  and  C_10
REMARK    3  A    between atoms: C_16  and  C_17
REMARK                            x       y       z     vdW  Elec       q    Type
REMARK                         _______ _______ _______ _____ _____    ______ ____
ROOT
ATOM      1  C   UNL     1       2.380   6.379  19.543  0.00  0.00    +0.000 A 
ATOM      2  C   UNL     1       2.571   6.871  18.175  0.00  0.00    +0.000 A 
ATOM      3  C   UNL     1       2.214   8.116  17.807  0.00  0.00    +0.000 A 
ATOM      4  C   UNL     1       1.672   9.000  18.775  0.00  0.00    +0.000 A 
ATOM      5  N   UNL     1       1.257  10.245  18.706  0.00  0.00    +0.000 NA
ATOM      6  N   UNL     1       0.849  10.618  19.965  0.00  0.00    +0.000 NA
ATOM      7  C   UNL     1       1.021   9.594  20.779  0.00  0.00    +0.000 A 
ATOM      8  N   UNL     1       1.532   8.528  20.073  0.00  0.00    +0.000 N 
ATOM      9  C   UNL     1       1.874   7.232  20.458  0.00  0.00    +0.000 A 
ENDROOT
BRANCH   1  14
ATOM     10  C   UNL     1       3.751   4.192  19.620  0.00  0.00    +0.000 A 
ATOM     11  N   UNL     1       3.605   2.979  20.263  0.00  0.00    +0.000 NA
ATOM     12  C   UNL     1       2.535   3.147  20.998  0.00  0.00    +0.000 A 
ATOM     13  O   UNL     1       1.934   4.355  20.872  0.00  0.00    +0.000 OA
ATOM     14  C   UNL     1       2.705   5.055  19.960  0.00  0.00    +0.000 A 
BRANCH  10  18
ATOM     15  C   UNL     1       7.002   5.040  16.987  0.00  0.00    +0.000 A 
ATOM     16  C   UNL     1       7.032   5.475  18.310  0.00  0.00    +0.000 A 
ATOM     17  C   UNL     1       5.967   5.184  19.169  0.00  0.00    +0.000 A 
ATOM     18  C   UNL     1       4.861   4.452  18.715  0.00  0.00    +0.000 A 
ATOM     19  C   UNL     1       4.841   4.034  17.378  0.00  0.00    +0.000 A 
ATOM     20  C   UNL     1       5.906   4.319  16.520  0.00  0.00    +0.000 A 
ENDBRANCH  10  18
ENDBRANCH   1  14
BRANCH   7  21
ATOM     21  C   UNL     1       0.690   9.637  22.266  0.00  0.00    +0.000 C 
ATOM     22  C   UNL     1      -0.488  10.482  22.709  0.00  0.00    +0.000 C 
ATOM     23  C   UNL     1      -0.611   8.998  22.713  0.00  0.00    +0.000 C 
ENDBRANCH   7  21
TORSDOF 3
ENDMDL
MODEL 3
REMARK VINA RESULT:      -8.1      3.169      7.281
REMARK  Name = 
REMARK  3 active torsions:
REMARK  status: ('A' for Active; 'I' for Inactive)
REMARK    1  A    between atoms: C_4  and  C_5
REMARK    2  A    between atoms: C_9  and  C_10
REMARK    3  A    between atoms: C_16  and  C_17
REMARK                            x       y       z     vdW  Elec       q    Type
REMARK                         _______ _______ _______ _____ _____    ______ ____
ROOT
ATOM      1  C   UNL     1       4.942   4.366  17.600  0.00  0.00    +0.000 A 
ATOM      2  C   UNL     1       6.020   5.263  18.028  0.00  0.00    +0.000 A 
ATOM      3  C   UNL     1       6.976   5.688  17.180  0.00  0.00    +0.000 A 
ATOM      4  C   UNL     1       6.925   5.292  15.820  0.00  0.00    +0.000 A 
ATOM      5  N   UNL     1       7.697   5.556  14.789  0.00  0.00    +0.000 NA
ATOM      6  N   UNL     1       7.160   4.924  13.693  0.00  0.00    +0.000 NA
ATOM      7  C   UNL     1       6.071   4.284  14.074  0.00  0.00    +0.000 A 
ATOM      8  N   UNL     1       5.878   4.472  15.425  0.00  0.00    +0.000 N 
ATOM      9  C   UNL     1       4.898   4.005  16.301  0.00  0.00    +0.000 A 
ENDROOT
BRANCH   1  14
ATOM     10  C   UNL     1       2.899   4.483  19.175  0.00  0.00    +0.000 A 
ATOM     11  N   UNL     1       2.213   3.563  19.942  0.00  0.00    +0.000 NA
ATOM     12  C   UNL     1       2.800   2.428  19.659  0.00  0.00    +0.000 A 
ATOM     13  O   UNL     1       3.843   2.518  18.798  0.00  0.00    +0.000 OA
ATOM     14  C   UNL     1       3.938   3.861  18.477  0.00  0.00    +0.000 A 
BRANCH  10  18
ATOM     15  C   UNL     1       1.764   8.597  19.177  0.00  0.00    +0.000 A 
ATOM     16  C   UNL     1       1.722   7.853  20.353  0.00  0.00    +0.000 A 
ATOM     17  C   UNL     1       2.105   6.508  20.346  0.00  0.00    +0.000 A 
ATOM     18  C   UNL     1       2.538   5.893  19.162  0.00  0.00    +0.000 A 
ATOM     19  C   UNL     1       2.559   6.654  17.986  0.00  0.00    +0.000 A 
ATOM     20  C   UNL     1       2.182   7.998  17.993  0.00  0.00    +0.000 A 
ENDBRANCH  10  18
ENDBRANCH   1  14
BRANCH   7  21
ATOM     21  C   UNL     1       5.196   3.474  13.126  0.00  0.00    +0.000 C 
ATOM     22  C   UNL     1       5.150   3.891  11.668  0.00  0.00    +0.000 C 
ATOM     23  C   UNL     1       5.891   2.658  12.053  0.00  0.00    +0.000 C 
ENDBRANCH   7  21
TORSDOF 3
ENDMDL
MODEL 4
REMARK VINA RESULT:      -8.1      3.133      7.238
REMARK  Name = 
REMARK  3 active torsions:
REMARK  status: ('A' for Active; 'I' for Inactive)
REMARK    1  A    between atoms: C_4  and  C_5
REMARK    2  A    between atoms: C_9  and  C_10
REMARK    3  A    between atoms: C_16  and  C_17
REMARK                            x       y       z     vdW  Elec       q    Type
REMARK                         _______ _______ _______ _____ _____    ______ ____
ROOT
ATOM      1  C   UNL     1       4.684   4.023  17.598  0.00  0.00    +0.000 A 
ATOM      2  C   UNL     1       5.720   4.754  18.335  0.00  0.00    +0.000 A 
ATOM      3  C   UNL     1       6.803   5.268  17.725  0.00  0.00    +0.000 A 
ATOM      4  C   UNL     1       6.938   5.139  16.319  0.00  0.00    +0.000 A 
ATOM      5  N   UNL     1       7.861   5.541  15.475  0.00  0.00    +0.000 NA
ATOM      6  N   UNL     1       7.467   5.161  14.214  0.00  0.00    +0.000 NA
ATOM      7  C   UNL     1       6.312   4.531  14.311  0.00  0.00    +0.000 A 
ATOM      8  N   UNL     1       5.931   4.475  15.633  0.00  0.00    +0.000 N 
ATOM      9  C   UNL     1       4.817   3.915  16.259  0.00  0.00    +0.000 A 
ENDROOT
BRANCH   1  14
ATOM     10  C   UNL     1       2.477   3.968  18.938  0.00  0.00    +0.000 A 
ATOM     11  N   UNL     1       1.634   2.966  19.376  0.00  0.00    +0.000 NA
ATOM     12  C   UNL     1       2.165   1.878  18.878  0.00  0.00    +0.000 A 
ATOM     13  O   UNL     1       3.310   2.065  18.177  0.00  0.00    +0.000 OA
ATOM     14  C   UNL     1       3.544   3.428  18.214  0.00  0.00    +0.000 A 
BRANCH  10  18
ATOM     15  C   UNL     1       1.823   8.096  19.803  0.00  0.00    +0.000 A 
ATOM     16  C   UNL     1       2.250   7.698  18.538  0.00  0.00    +0.000 A 
ATOM     17  C   UNL     1       2.452   6.343  18.260  0.00  0.00    +0.000 A 
ATOM     18  C   UNL     1       2.227   5.369  19.243  0.00  0.00    +0.000 A 
ATOM     19  C   UNL     1       1.812   5.788  20.514  0.00  0.00    +0.000 A 
ATOM     20  C   UNL     1       1.604   7.141  20.792  0.00  0.00    +0.000 A 
ENDBRANCH  10  18
ENDBRANCH   1  14
BRANCH   7  21
ATOM     21  C   UNL     1       5.556   3.971  13.112  0.00  0.00    +0.000 C 
ATOM     22  C   UNL     1       6.273   3.922  11.777  0.00  0.00    +0.000 C 
ATOM     23  C   UNL     1       6.041   2.658  12.528  0.00  0.00    +0.000 C 
ENDBRANCH   7  21
TORSDOF 3
ENDMDL
MODEL 5
REMARK VINA RESULT:      -7.8      1.203      1.537
REMARK  Name = 
REMARK  3 active torsions:
REMARK  status: ('A' for Active; 'I' for Inactive)
REMARK    1  A    between atoms: C_4  and  C_5
REMARK    2  A    between atoms: C_9  and  C_10
REMARK    3  A    between atoms: C_16  and  C_17
REMARK                            x       y       z     vdW  Elec       q    Type
REMARK                         _______ _______ _______ _____ _____    ______ ____
ROOT
ATOM      1  C   UNL     1       2.380   7.045  18.817  0.00  0.00    +0.000 A 
ATOM      2  C   UNL     1       2.499   7.906  17.637  0.00  0.00    +0.000 A 
ATOM      3  C   UNL     1       2.088   9.188  17.643  0.00  0.00    +0.000 A 
ATOM      4  C   UNL     1       1.557   9.743  18.835  0.00  0.00    +0.000 A 
ATOM      5  N   UNL     1       1.099  10.939  19.130  0.00  0.00    +0.000 NA
ATOM      6  N   UNL     1       0.731  10.930  20.454  0.00  0.00    +0.000 NA
ATOM      7  C   UNL     1       0.969   9.728  20.944  0.00  0.00    +0.000 A 
ATOM      8  N   UNL     1       1.485   8.923  19.952  0.00  0.00    +0.000 N 
ATOM      9  C   UNL     1       1.884   7.586  19.949  0.00  0.00    +0.000 A 
ENDROOT
BRANCH   1  14
ATOM     10  C   UNL     1       3.998   5.038  18.660  0.00  0.00    +0.000 A 
ATOM     11  N   UNL     1       3.850   3.667  18.724  0.00  0.00    +0.000 NA
ATOM     12  C   UNL     1       2.578   3.507  18.985  0.00  0.00    +0.000 A 
ATOM     13  O   UNL     1       1.857   4.652  19.063  0.00  0.00    +0.000 OA
ATOM     14  C   UNL     1       2.765   5.672  18.837  0.00  0.00    +0.000 A 
BRANCH  10  18
ATOM     15  C   UNL     1       7.795   6.886  18.043  0.00  0.00    +0.000 A 
ATOM     16  C   UNL     1       7.614   5.974  19.079  0.00  0.00    +0.000 A 
ATOM     17  C   UNL     1       6.370   5.365  19.268  0.00  0.00    +0.000 A 
ATOM     18  C   UNL     1       5.292   5.660  18.421  0.00  0.00    +0.000 A 
ATOM     19  C   UNL     1       5.489   6.591  17.392  0.00  0.00    +0.000 A 
ATOM     20  C   UNL     1       6.733   7.195  17.198  0.00  0.00    +0.000 A 
ENDBRANCH  10  18
ENDBRANCH   1  14
BRANCH   7  21
ATOM     21  C   UNL     1       0.696   9.340  22.392  0.00  0.00    +0.000 C 
ATOM     22  C   UNL     1      -0.401  10.080  23.133  0.00  0.00    +0.000 C 
ATOM     23  C   UNL     1      -0.630   8.673  22.703  0.00  0.00    +0.000 C 
ENDBRANCH   7  21
TORSDOF 3
ENDMDL
MODEL 6
REMARK VINA RESULT:      -7.5      2.873      4.864
REMARK  Name = 
REMARK  3 active torsions:
REMARK  status: ('A' for Active; 'I' for Inactive)
REMARK    1  A    between atoms: C_4  and  C_5
REMARK    2  A    between atoms: C_9  and  C_10
REMARK    3  A    between atoms: C_16  and  C_17
REMARK                            x       y       z     vdW  Elec       q    Type
REMARK                         _______ _______ _______ _____ _____    ______ ____
ROOT
ATOM      1  C   UNL     1       4.279   4.093  16.833  0.00  0.00    +0.000 A 
ATOM      2  C   UNL     1       3.653   2.792  17.089  0.00  0.00    +0.000 A 
ATOM      3  C   UNL     1       2.756   2.612  18.077  0.00  0.00    +0.000 A 
ATOM      4  C   UNL     1       2.368   3.718  18.875  0.00  0.00    +0.000 A 
ATOM      5  N   UNL     1       1.526   3.837  19.876  0.00  0.00    +0.000 NA
ATOM      6  N   UNL     1       1.522   5.156  20.263  0.00  0.00    +0.000 NA
ATOM      7  C   UNL     1       2.364   5.818  19.492  0.00  0.00    +0.000 A 
ATOM      8  N   UNL     1       2.944   4.949  18.595  0.00  0.00    +0.000 N 
ATOM      9  C   UNL     1       3.894   5.141  17.592  0.00  0.00    +0.000 A 
ENDROOT
BRANCH   1  14
ATOM     10  C   UNL     1       6.469   5.021  15.827  0.00  0.00    +0.000 A 
ATOM     11  N   UNL     1       7.055   4.981  14.578  0.00  0.00    +0.000 NA
ATOM     12  C   UNL     1       6.243   4.226  13.882  0.00  0.00    +0.000 A 
ATOM     13  O   UNL     1       5.146   3.792  14.549  0.00  0.00    +0.000 OA
ATOM     14  C   UNL     1       5.264   4.313  15.826  0.00  0.00    +0.000 A 
BRANCH  10  18
ATOM     15  C   UNL     1       8.313   7.162  19.026  0.00  0.00    +0.000 A 
ATOM     16  C   UNL     1       7.875   7.833  17.888  0.00  0.00    +0.000 A 
ATOM     17  C   UNL     1       7.262   7.126  16.848  0.00  0.00    +0.000 A 
ATOM     18  C   UNL     1       7.079   5.739  16.938  0.00  0.00    +0.000 A 
ATOM     19  C   UNL     1       7.539   5.077  18.084  0.00  0.00    +0.000 A 
ATOM     20  C   UNL     1       8.145   5.784  19.125  0.00  0.00    +0.000 A 
ENDBRANCH  10  18
ENDBRANCH   1  14
BRANCH   7  21
ATOM     21  C   UNL     1       2.620   7.315  19.617  0.00  0.00    +0.000 C 
ATOM     22  C   UNL     1       2.153   8.214  18.489  0.00  0.00    +0.000 C 
ATOM     23  C   UNL     1       1.416   8.222  19.782  0.00  0.00    +0.000 C 
ENDBRANCH   7  21
TORSDOF 3
ENDMDL
MODEL 7
REMARK VINA RESULT:      -7.5      2.861      4.854
REMARK  Name = 
REMARK  3 active torsions:
REMARK  status: ('A' for Active; 'I' for Inactive)
REMARK    1  A    between atoms: C_4  and  C_5
REMARK    2  A    between atoms: C_9  and  C_10
REMARK    3  A    between atoms: C_16  and  C_17
REMARK                            x       y       z     vdW  Elec       q    Type
REMARK                         _______ _______ _______ _____ _____    ______ ____
ROOT
ATOM      1  C   UNL     1       4.303   4.083  16.861  0.00  0.00    +0.000 A 
ATOM      2  C   UNL     1       3.694   2.786  17.174  0.00  0.00    +0.000 A 
ATOM      3  C   UNL     1       2.806   2.637  18.175  0.00  0.00    +0.000 A 
ATOM      4  C   UNL     1       2.410   3.770  18.930  0.00  0.00    +0.000 A 
ATOM      5  N   UNL     1       1.574   3.921  19.932  0.00  0.00    +0.000 NA
ATOM      6  N   UNL     1       1.558   5.254  20.265  0.00  0.00    +0.000 NA
ATOM      7  C   UNL     1       2.386   5.893  19.461  0.00  0.00    +0.000 A 
ATOM      8  N   UNL     1       2.970   4.995  18.596  0.00  0.00    +0.000 N 
ATOM      9  C   UNL     1       3.911   5.156  17.579  0.00  0.00    +0.000 A 
ENDROOT
BRANCH   1  14
ATOM     10  C   UNL     1       6.492   4.966  15.813  0.00  0.00    +0.000 A 
ATOM     11  N   UNL     1       7.063   4.896  14.558  0.00  0.00    +0.000 NA
ATOM     12  C   UNL     1       6.233   4.139  13.886  0.00  0.00    +0.000 A 
ATOM     13  O   UNL     1       5.140   3.730  14.573  0.00  0.00    +0.000 OA
ATOM     14  C   UNL     1       5.279   4.273  15.838  0.00  0.00    +0.000 A 
BRANCH  10  18
ATOM     15  C   UNL     1       8.289   7.065  19.066  0.00  0.00    +0.000 A 
ATOM     16  C   UNL     1       8.159   5.679  19.106  0.00  0.00    +0.000 A 
ATOM     17  C   UNL     1       7.578   4.998  18.031  0.00  0.00    +0.000 A 
ATOM     18  C   UNL     1       7.123   5.696  16.903  0.00  0.00    +0.000 A 
ATOM     19  C   UNL     1       7.249   7.091  16.887  0.00  0.00    +0.000 A 
ATOM     20  C   UNL     1       7.834   7.772  17.957  0.00  0.00    +0.000 A 
ENDBRANCH  10  18
ENDBRANCH   1  14
BRANCH   7  21
ATOM     21  C   UNL     1       2.626   7.397  19.523  0.00  0.00    +0.000 C 
ATOM     22  C   UNL     1       2.140   8.244  18.363  0.00  0.00    +0.000 C 
ATOM     23  C   UNL     1       1.412   8.296  19.661  0.00  0.00    +0.000 C 
ENDBRANCH   7  21
TORSDOF 3
ENDMDL
MODEL 8
REMARK VINA RESULT:      -7.4      2.406      4.329
REMARK  Name = 
REMARK  3 active torsions:
REMARK  status: ('A' for Active; 'I' for Inactive)
REMARK    1  A    between atoms: C_4  and  C_5
REMARK    2  A    between atoms: C_9  and  C_10
REMARK    3  A    between atoms: C_16  and  C_17
REMARK                            x       y       z     vdW  Elec       q    Type
REMARK                         _______ _______ _______ _____ _____    ______ ____
ROOT
ATOM      1  C   UNL     1       1.856   8.080  19.531  0.00  0.00    +0.000 A 
ATOM      2  C   UNL     1       1.830   7.946  20.992  0.00  0.00    +0.000 A 
ATOM      3  C   UNL     1       1.057   8.730  21.768  0.00  0.00    +0.000 A 
ATOM      4  C   UNL     1       0.210   9.692  21.161  0.00  0.00    +0.000 A 
ATOM      5  N   UNL     1      -0.639  10.564  21.656  0.00  0.00    +0.000 NA
ATOM      6  N   UNL     1      -1.213  11.232  20.600  0.00  0.00    +0.000 NA
ATOM      7  C   UNL     1      -0.703  10.757  19.480  0.00  0.00    +0.000 A 
ATOM      8  N   UNL     1       0.222   9.780  19.776  0.00  0.00    +0.000 N 
ATOM      9  C   UNL     1       1.037   8.991  18.964  0.00  0.00    +0.000 A 
ENDROOT
BRANCH   1  14
ATOM     10  C   UNL     1       2.913   5.922  18.587  0.00  0.00    +0.000 A 
ATOM     11  N   UNL     1       3.862   5.649  17.622  0.00  0.00    +0.000 NA
ATOM     12  C   UNL     1       4.145   6.828  17.129  0.00  0.00    +0.000 A 
ATOM     13  O   UNL     1       3.495   7.866  17.708  0.00  0.00    +0.000 OA
ATOM     14  C   UNL     1       2.691   7.298  18.680  0.00  0.00    +0.000 A 
BRANCH  10  18
ATOM     15  C   UNL     1       1.163   2.796  20.907  0.00  0.00    +0.000 A 
ATOM     16  C   UNL     1       2.065   3.685  21.487  0.00  0.00    +0.000 A 
ATOM     17  C   UNL     1       2.626   4.712  20.722  0.00  0.00    +0.000 A 
ATOM     18  C   UNL     1       2.289   4.864  19.370  0.00  0.00    +0.000 A 
ATOM     19  C   UNL     1       1.391   3.952  18.800  0.00  0.00    +0.000 A 
ATOM     20  C   UNL     1       0.826   2.929  19.564  0.00  0.00    +0.000 A 
ENDBRANCH  10  18
ENDBRANCH   1  14
BRANCH   7  21
ATOM     21  C   UNL     1      -1.108  11.249  18.096  0.00  0.00    +0.000 C 
ATOM     22  C   UNL     1      -1.887  10.303  17.204  0.00  0.00    +0.000 C 
ATOM     23  C   UNL     1      -2.586  11.459  17.830  0.00  0.00    +0.000 C 
ENDBRANCH   7  21
TORSDOF 3
ENDMDL
MODEL 9
REMARK VINA RESULT:      -7.4      2.758      7.197
REMARK  Name = 
REMARK  3 active torsions:
REMARK  status: ('A' for Active; 'I' for Inactive)
REMARK    1  A    between atoms: C_4  and  C_5
REMARK    2  A    between atoms: C_9  and  C_10
REMARK    3  A    between atoms: C_16  and  C_17
REMARK                            x       y       z     vdW  Elec       q    Type
REMARK                         _______ _______ _______ _____ _____    ______ ____
ROOT
ATOM      1  C   UNL     1       4.644   6.184  18.177  0.00  0.00    +0.000 A 
ATOM      2  C   UNL     1       5.601   5.826  19.228  0.00  0.00    +0.000 A 
ATOM      3  C   UNL     1       6.745   5.169  18.959  0.00  0.00    +0.000 A 
ATOM      4  C   UNL     1       7.061   4.842  17.616  0.00  0.00    +0.000 A 
ATOM      5  N   UNL     1       8.087   4.229  17.070  0.00  0.00    +0.000 NA
ATOM      6  N   UNL     1       7.884   4.208  15.710  0.00  0.00    +0.000 NA
ATOM      7  C   UNL     1       6.737   4.806  15.451  0.00  0.00    +0.000 A 
ATOM      8  N   UNL     1       6.160   5.220  16.631  0.00  0.00    +0.000 N 
ATOM      9  C   UNL     1       4.960   5.878  16.901  0.00  0.00    +0.000 A 
ENDROOT
BRANCH   1  14
ATOM     10  C   UNL     1       2.219   6.417  19.036  0.00  0.00    +0.000 A 
ATOM     11  N   UNL     1       1.269   7.418  18.998  0.00  0.00    +0.000 NA
ATOM     12  C   UNL     1       1.898   8.416  18.431  0.00  0.00    +0.000 A 
ATOM     13  O   UNL     1       3.173   8.154  18.053  0.00  0.00    +0.000 OA
ATOM     14  C   UNL     1       3.403   6.842  18.427  0.00  0.00    +0.000 A 
BRANCH  10  18
ATOM     15  C   UNL     1       1.489   2.607  20.817  0.00  0.00    +0.000 A 
ATOM     16  C   UNL     1       2.041   3.643  21.566  0.00  0.00    +0.000 A 
ATOM     17  C   UNL     1       2.268   4.891  20.978  0.00  0.00    +0.000 A 
ATOM     18  C   UNL     1       1.942   5.118  19.633  0.00  0.00    +0.000 A 
ATOM     19  C   UNL     1       1.401   4.061  18.890  0.00  0.00    +0.000 A 
ATOM     20  C   UNL     1       1.169   2.815  19.478  0.00  0.00    +0.000 A 
ENDBRANCH  10  18
ENDBRANCH   1  14
BRANCH   7  21
ATOM     21  C   UNL     1       6.181   4.984  14.044  0.00  0.00    +0.000 C 
ATOM     22  C   UNL     1       6.773   4.142  12.931  0.00  0.00    +0.000 C 
ATOM     23  C   UNL     1       5.410   3.826  13.441  0.00  0.00    +0.000 C 
ENDBRANCH   7  21
TORSDOF 3
ENDMDL
