MODEL 1
REMARK VINA RESULT:      -6.4      0.000      0.000
REMARK  Name = 
REMARK  16 active torsions:
REMARK  status: ('A' for Active; 'I' for Inactive)
REMARK    1  A    between atoms: C_2  and  C_3
REMARK    2  A    between atoms: C_4  and  C_5
REMARK    3  A    between atoms: C_5  and  C_6
REMARK    4  A    between atoms: C_6  and  C_7
REMARK    5  A    between atoms: C_7  and  C_8
REMARK    6  A    between atoms: C_8  and  C_9
REMARK    7  A    between atoms: C_9  and  C_10
REMARK    8  A    between atoms: C_10  and  C_11
REMARK    9  A    between atoms: C_12  and  C_13
REMARK   10  A    between atoms: C_14  and  C_15
REMARK   11  A    between atoms: C_15  and  C_16
REMARK   12  A    between atoms: C_16  and  C_17
REMARK   13  A    between atoms: C_17  and  C_18
REMARK   14  A    between atoms: C_19  and  C_20
REMARK   15  A    between atoms: C_21  and  C_22
REMARK   16  A    between atoms: C_22  and  O_23
REMARK                            x       y       z     vdW  Elec       q    Type
REMARK                         _______ _______ _______ _____ _____    ______ ____
ROOT
ATOM      1  C   UNL     1       7.271   6.749  17.546  0.00  0.00    +0.000 C 
ATOM      2  C   UNL     1       7.756   7.844  17.697  0.00  0.00    +0.000 C 
ENDROOT
BRANCH   2   3
ATOM      3  C   UNL     1       8.328   9.191  18.050  0.00  0.00    +0.000 C 
ATOM      4  C   UNL     1       8.827  10.252  18.307  0.00  0.00    +0.000 C 
BRANCH   4   5
ATOM      5  C   UNL     1       9.498  11.519  18.617  0.00  0.00    +0.000 C 
BRANCH   5   6
ATOM      6  C   UNL     1      10.975  11.292  18.937  0.00  0.00    +0.000 C 
BRANCH   6   7
ATOM      7  C   UNL     1      11.404  12.218  20.073  0.00  0.00    +0.000 C 
BRANCH   7   8
ATOM      8  C   UNL     1      11.034  13.646  19.821  0.00  0.00    +0.000 C 
ATOM      9  C   UNL     1      10.167  14.310  20.595  0.00  0.00    +0.000 C 
BRANCH   9  10
ATOM     10  C   UNL     1       9.506  13.603  21.767  0.00  0.00    +0.000 C 
ATOM     11  C   UNL     1       8.939  12.997  22.772  0.00  0.00    +0.000 C 
BRANCH  11  12
ATOM     12  C   UNL     1       8.279  12.289  23.944  0.00  0.00    +0.000 C 
BRANCH  12  13
ATOM     13  O   UNL     1       8.321  10.973  23.469  0.00  0.00    +0.000 OA
ATOM     14  H   UNL     1       9.265  10.772  23.313  0.00  0.00    +0.000 HD
ENDBRANCH  12  13
ENDBRANCH  11  12
ENDBRANCH   9  10
ENDBRANCH   7   8
ENDBRANCH   6   7
ENDBRANCH   5   6
ENDBRANCH   4   5
ENDBRANCH   2   3
BRANCH   1  15
ATOM     15  C   UNL     1       6.649   5.415  17.508  0.00  0.00    +0.000 C 
BRANCH  15  16
ATOM     16  C   UNL     1       5.153   5.555  17.334  0.00  0.00    +0.000 C 
BRANCH  16  17
ATOM     17  C   UNL     1       4.386   5.426  18.615  0.00  0.00    +0.000 C 
BRANCH  17  18
ATOM     18  C   UNL     1       3.066   6.205  18.564  0.00  0.00    +0.000 C 
BRANCH  18  19
ATOM     19  C   UNL     1       2.372   6.126  19.919  0.00  0.00    +0.000 C 
BRANCH  19  20
ATOM     20  C   UNL     1       2.362   4.683  20.421  0.00  0.00    +0.000 C 
BRANCH  20  22
ATOM     21  C   UNL     1       0.953   2.915  19.402  0.00  0.00    +0.000 C 
ATOM     22  C   UNL     1       1.054   4.013  20.160  0.00  0.00    +0.000 C 
BRANCH  21  24
ATOM     23  C   UNL     1       3.251   1.809  18.190  0.00  0.00    +0.000 C 
ATOM     24  C   UNL     1       2.190   2.320  18.749  0.00  0.00    +0.000 C 
ENDBRANCH  21  24
ENDBRANCH  20  22
ENDBRANCH  19  20
ENDBRANCH  18  19
ENDBRANCH  17  18
ENDBRANCH  16  17
ENDBRANCH  15  16
ENDBRANCH   1  15
TORSDOF 16
ENDMDL
MODEL 2
REMARK VINA RESULT:      -6.2      2.104      2.971
REMARK  Name = 
REMARK  16 active torsions:
REMARK  status: ('A' for Active; 'I' for Inactive)
REMARK    1  A    between atoms: C_2  and  C_3
REMARK    2  A    between atoms: C_4  and  C_5
REMARK    3  A    between atoms: C_5  and  C_6
REMARK    4  A    between atoms: C_6  and  C_7
REMARK    5  A    between atoms: C_7  and  C_8
REMARK    6  A    between atoms: C_8  and  C_9
REMARK    7  A    between atoms: C_9  and  C_10
REMARK    8  A    between atoms: C_10  and  C_11
REMARK    9  A    between atoms: C_12  and  C_13
REMARK   10  A    between atoms: C_14  and  C_15
REMARK   11  A    between atoms: C_15  and  C_16
REMARK   12  A    between atoms: C_16  and  C_17
REMARK   13  A    between atoms: C_17  and  C_18
REMARK   14  A    between atoms: C_19  and  C_20
REMARK   15  A    between atoms: C_21  and  C_22
REMARK   16  A    between atoms: C_22  and  O_23
REMARK                            x       y       z     vdW  Elec       q    Type
REMARK                         _______ _______ _______ _____ _____    ______ ____
ROOT
ATOM      1  C   UNL     1       7.823   8.285  17.793  0.00  0.00    +0.000 C 
ATOM      2  C   UNL     1       8.509   9.136  18.306  0.00  0.00    +0.000 C 
ENDROOT
BRANCH   2   3
ATOM      3  C   UNL     1       9.287  10.158  19.091  0.00  0.00    +0.000 C 
ATOM      4  C   UNL     1       9.945  10.971  19.681  0.00  0.00    +0.000 C 
BRANCH   4   5
ATOM      5  C   UNL     1      10.803  11.934  20.376  0.00  0.00    +0.000 C 
BRANCH   5   6
ATOM      6  C   UNL     1      12.040  12.268  19.542  0.00  0.00    +0.000 C 
BRANCH   6   7
ATOM      7  C   UNL     1      11.739  12.044  18.062  0.00  0.00    +0.000 C 
BRANCH   7   8
ATOM      8  C   UNL     1      12.180  13.189  17.206  0.00  0.00    +0.000 C 
ATOM      9  C   UNL     1      11.442  14.296  17.052  0.00  0.00    +0.000 C 
BRANCH   9  10
ATOM     10  C   UNL     1      10.094  14.407  17.746  0.00  0.00    +0.000 C 
ATOM     11  C   UNL     1       8.938  14.502  18.341  0.00  0.00    +0.000 C 
BRANCH  11  12
ATOM     12  C   UNL     1       7.590  14.614  19.034  0.00  0.00    +0.000 C 
BRANCH  12  13
ATOM     13  O   UNL     1       7.943  14.133  20.300  0.00  0.00    +0.000 OA
ATOM     14  H   UNL     1       8.906  13.964  20.266  0.00  0.00    +0.000 HD
ENDBRANCH  12  13
ENDBRANCH  11  12
ENDBRANCH   9  10
ENDBRANCH   7   8
ENDBRANCH   6   7
ENDBRANCH   5   6
ENDBRANCH   4   5
ENDBRANCH   2   3
BRANCH   1  15
ATOM     15  C   UNL     1       6.919   7.232  17.300  0.00  0.00    +0.000 C 
BRANCH  15  16
ATOM     16  C   UNL     1       7.140   5.960  18.089  0.00  0.00    +0.000 C 
BRANCH  16  17
ATOM     17  C   UNL     1       5.869   5.249  18.446  0.00  0.00    +0.000 C 
BRANCH  17  18
ATOM     18  C   UNL     1       5.294   4.486  17.247  0.00  0.00    +0.000 C 
BRANCH  18  19
ATOM     19  C   UNL     1       3.790   4.313  17.424  0.00  0.00    +0.000 C 
BRANCH  19  20
ATOM     20  C   UNL     1       3.498   3.049  18.231  0.00  0.00    +0.000 C 
BRANCH  20  22
ATOM     21  C   UNL     1       1.208   2.265  18.774  0.00  0.00    +0.000 C 
ATOM     22  C   UNL     1       2.178   2.452  17.870  0.00  0.00    +0.000 C 
BRANCH  21  24
ATOM     23  C   UNL     1       1.634   2.960  21.478  0.00  0.00    +0.000 C 
ATOM     24  C   UNL     1       1.437   2.640  20.230  0.00  0.00    +0.000 C 
ENDBRANCH  21  24
ENDBRANCH  20  22
ENDBRANCH  19  20
ENDBRANCH  18  19
ENDBRANCH  17  18
ENDBRANCH  16  17
ENDBRANCH  15  16
ENDBRANCH   1  15
TORSDOF 16
ENDMDL
MODEL 3
REMARK VINA RESULT:      -6.1      2.434      3.317
REMARK  Name = 
REMARK  16 active torsions:
REMARK  status: ('A' for Active; 'I' for Inactive)
REMARK    1  A    between atoms: C_2  and  C_3
REMARK    2  A    between atoms: C_4  and  C_5
REMARK    3  A    between atoms: C_5  and  C_6
REMARK    4  A    between atoms: C_6  and  C_7
REMARK    5  A    between atoms: C_7  and  C_8
REMARK    6  A    between atoms: C_8  and  C_9
REMARK    7  A    between atoms: C_9  and  C_10
REMARK    8  A    between atoms: C_10  and  C_11
REMARK    9  A    between atoms: C_12  and  C_13
REMARK   10  A    between atoms: C_14  and  C_15
REMARK   11  A    between atoms: C_15  and  C_16
REMARK   12  A    between atoms: C_16  and  C_17
REMARK   13  A    between atoms: C_17  and  C_18
REMARK   14  A    between atoms: C_19  and  C_20
REMARK   15  A    between atoms: C_21  and  C_22
REMARK   16  A    between atoms: C_22  and  O_23
REMARK                            x       y       z     vdW  Elec       q    Type
REMARK                         _______ _______ _______ _____ _____    ______ ____
ROOT
ATOM      1  C   UNL     1       7.196   7.105  17.381  0.00  0.00    +0.000 C 
ATOM      2  C   UNL     1       7.838   8.063  17.739  0.00  0.00    +0.000 C 
ENDROOT
BRANCH   2   3
ATOM      3  C   UNL     1       8.533   9.267  18.318  0.00  0.00    +0.000 C 
ATOM      4  C   UNL     1       9.043  10.239  18.803  0.00  0.00    +0.000 C 
BRANCH   4   5
ATOM      5  C   UNL     1       9.605  11.456  19.396  0.00  0.00    +0.000 C 
BRANCH   5   6
ATOM      6  C   UNL     1      11.116  11.325  19.589  0.00  0.00    +0.000 C 
BRANCH   6   7
ATOM      7  C   UNL     1      11.816  12.568  19.043  0.00  0.00    +0.000 C 
BRANCH   7   8
ATOM      8  C   UNL     1      11.814  12.617  17.547  0.00  0.00    +0.000 C 
ATOM      9  C   UNL     1      11.196  13.586  16.862  0.00  0.00    +0.000 C 
BRANCH   9  10
ATOM     10  C   UNL     1      10.443  14.677  17.608  0.00  0.00    +0.000 C 
ATOM     11  C   UNL     1       9.799  15.612  18.247  0.00  0.00    +0.000 C 
BRANCH  11  12
ATOM     12  C   UNL     1       9.048  16.702  18.994  0.00  0.00    +0.000 C 
BRANCH  12  13
ATOM     13  O   UNL     1       8.007  16.926  18.085  0.00  0.00    +0.000 OA
ATOM     14  H   UNL     1       8.160  17.817  17.713  0.00  0.00    +0.000 HD
ENDBRANCH  12  13
ENDBRANCH  11  12
ENDBRANCH   9  10
ENDBRANCH   7   8
ENDBRANCH   6   7
ENDBRANCH   5   6
ENDBRANCH   4   5
ENDBRANCH   2   3
BRANCH   1  15
ATOM     15  C   UNL     1       6.322   5.965  17.058  0.00  0.00    +0.000 C 
BRANCH  15  16
ATOM     16  C   UNL     1       5.132   5.955  17.993  0.00  0.00    +0.000 C 
BRANCH  16  17
ATOM     17  C   UNL     1       4.577   4.585  18.241  0.00  0.00    +0.000 C 
BRANCH  17  18
ATOM     18  C   UNL     1       4.017   3.962  16.956  0.00  0.00    +0.000 C 
BRANCH  18  19
ATOM     19  C   UNL     1       2.985   2.898  17.309  0.00  0.00    +0.000 C 
BRANCH  19  20
ATOM     20  C   UNL     1       2.972   2.659  18.818  0.00  0.00    +0.000 C 
BRANCH  20  22
ATOM     21  C   UNL     1       0.845   3.096  20.015  0.00  0.00    +0.000 C 
ATOM     22  C   UNL     1       1.619   2.264  19.306  0.00  0.00    +0.000 C 
BRANCH  21  24
ATOM     23  C   UNL     1       1.772   5.680  20.675  0.00  0.00    +0.000 C 
ATOM     24  C   UNL     1       1.344   4.488  20.370  0.00  0.00    +0.000 C 
ENDBRANCH  21  24
ENDBRANCH  20  22
ENDBRANCH  19  20
ENDBRANCH  18  19
ENDBRANCH  17  18
ENDBRANCH  16  17
ENDBRANCH  15  16
ENDBRANCH   1  15
TORSDOF 16
ENDMDL
MODEL 4
REMARK VINA RESULT:      -5.9      2.186      2.874
REMARK  Name = 
REMARK  16 active torsions:
REMARK  status: ('A' for Active; 'I' for Inactive)
REMARK    1  A    between atoms: C_2  and  C_3
REMARK    2  A    between atoms: C_4  and  C_5
REMARK    3  A    between atoms: C_5  and  C_6
REMARK    4  A    between atoms: C_6  and  C_7
REMARK    5  A    between atoms: C_7  and  C_8
REMARK    6  A    between atoms: C_8  and  C_9
REMARK    7  A    between atoms: C_9  and  C_10
REMARK    8  A    between atoms: C_10  and  C_11
REMARK    9  A    between atoms: C_12  and  C_13
REMARK   10  A    between atoms: C_14  and  C_15
REMARK   11  A    between atoms: C_15  and  C_16
REMARK   12  A    between atoms: C_16  and  C_17
REMARK   13  A    between atoms: C_17  and  C_18
REMARK   14  A    between atoms: C_19  and  C_20
REMARK   15  A    between atoms: C_21  and  C_22
REMARK   16  A    between atoms: C_22  and  O_23
REMARK                            x       y       z     vdW  Elec       q    Type
REMARK                         _______ _______ _______ _____ _____    ______ ____
ROOT
ATOM      1  C   UNL     1       7.366   6.990  17.378  0.00  0.00    +0.000 C 
ATOM      2  C   UNL     1       7.872   8.054  17.641  0.00  0.00    +0.000 C 
ENDROOT
BRANCH   2   3
ATOM      3  C   UNL     1       8.520   9.323  18.127  0.00  0.00    +0.000 C 
ATOM      4  C   UNL     1       9.021  10.358  18.472  0.00  0.00    +0.000 C 
BRANCH   4   5
ATOM      5  C   UNL     1       9.637  11.640  18.828  0.00  0.00    +0.000 C 
BRANCH   5   6
ATOM      6  C   UNL     1      10.243  11.586  20.230  0.00  0.00    +0.000 C 
BRANCH   6   7
ATOM      7  C   UNL     1       9.160  11.863  21.271  0.00  0.00    +0.000 C 
BRANCH   7   8
ATOM      8  C   UNL     1       9.451  13.078  22.094  0.00  0.00    +0.000 C 
ATOM      9  C   UNL     1       9.002  14.294  21.762  0.00  0.00    +0.000 C 
BRANCH   9  10
ATOM     10  C   UNL     1       8.181  14.476  20.496  0.00  0.00    +0.000 C 
ATOM     11  C   UNL     1       7.477  14.633  19.410  0.00  0.00    +0.000 C 
BRANCH  11  12
ATOM     12  C   UNL     1       6.654  14.814  18.144  0.00  0.00    +0.000 C 
BRANCH  12  13
ATOM     13  O   UNL     1       7.693  14.955  17.216  0.00  0.00    +0.000 OA
ATOM     14  H   UNL     1       7.412  14.460  16.420  0.00  0.00    +0.000 HD
ENDBRANCH  12  13
ENDBRANCH  11  12
ENDBRANCH   9  10
ENDBRANCH   7   8
ENDBRANCH   6   7
ENDBRANCH   5   6
ENDBRANCH   4   5
ENDBRANCH   2   3
BRANCH   1  15
ATOM     15  C   UNL     1       6.762   5.659  17.202  0.00  0.00    +0.000 C 
BRANCH  15  16
ATOM     16  C   UNL     1       5.587   5.753  16.254  0.00  0.00    +0.000 C 
BRANCH  16  17
ATOM     17  C   UNL     1       4.565   4.676  16.457  0.00  0.00    +0.000 C 
BRANCH  17  18
ATOM     18  C   UNL     1       4.003   4.694  17.884  0.00  0.00    +0.000 C 
BRANCH  18  19
ATOM     19  C   UNL     1       2.579   5.237  17.868  0.00  0.00    +0.000 C 
BRANCH  19  20
ATOM     20  C   UNL     1       1.578   4.089  17.986  0.00  0.00    +0.000 C 
BRANCH  20  22
ATOM     21  C   UNL     1       2.400   1.991  19.023  0.00  0.00    +0.000 C 
ATOM     22  C   UNL     1       2.250   2.758  17.935  0.00  0.00    +0.000 C 
BRANCH  21  24
ATOM     23  C   UNL     1       1.475   2.894  21.533  0.00  0.00    +0.000 C 
ATOM     24  C   UNL     1       1.901   2.477  20.374  0.00  0.00    +0.000 C 
ENDBRANCH  21  24
ENDBRANCH  20  22
ENDBRANCH  19  20
ENDBRANCH  18  19
ENDBRANCH  17  18
ENDBRANCH  16  17
ENDBRANCH  15  16
ENDBRANCH   1  15
TORSDOF 16
ENDMDL
MODEL 5
REMARK VINA RESULT:      -5.8      1.466      2.526
REMARK  Name = 
REMARK  16 active torsions:
REMARK  status: ('A' for Active; 'I' for Inactive)
REMARK    1  A    between atoms: C_2  and  C_3
REMARK    2  A    between atoms: C_4  and  C_5
REMARK    3  A    between atoms: C_5  and  C_6
REMARK    4  A    between atoms: C_6  and  C_7
REMARK    5  A    between atoms: C_7  and  C_8
REMARK    6  A    between atoms: C_8  and  C_9
REMARK    7  A    between atoms: C_9  and  C_10
REMARK    8  A    between atoms: C_10  and  C_11
REMARK    9  A    between atoms: C_12  and  C_13
REMARK   10  A    between atoms: C_14  and  C_15
REMARK   11  A    between atoms: C_15  and  C_16
REMARK   12  A    between atoms: C_16  and  C_17
REMARK   13  A    between atoms: C_17  and  C_18
REMARK   14  A    between atoms: C_19  and  C_20
REMARK   15  A    between atoms: C_21  and  C_22
REMARK   16  A    between atoms: C_22  and  O_23
REMARK                            x       y       z     vdW  Elec       q    Type
REMARK                         _______ _______ _______ _____ _____    ______ ____
ROOT
ATOM      1  C   UNL     1       7.590   7.431  17.480  0.00  0.00    +0.000 C 
ATOM      2  C   UNL     1       8.049   8.466  17.898  0.00  0.00    +0.000 C 
ENDROOT
BRANCH   2   3
ATOM      3  C   UNL     1       8.772   9.703  18.363  0.00  0.00    +0.000 C 
ATOM      4  C   UNL     1       9.371  10.660  18.770  0.00  0.00    +0.000 C 
BRANCH   4   5
ATOM      5  C   UNL     1      10.107  11.799  19.327  0.00  0.00    +0.000 C 
BRANCH   5   6
ATOM      6  C   UNL     1      10.024  11.812  20.853  0.00  0.00    +0.000 C 
BRANCH   6   7
ATOM      7  C   UNL     1       8.865  12.701  21.299  0.00  0.00    +0.000 C 
BRANCH   7   8
ATOM      8  C   UNL     1       9.327  13.923  22.029  0.00  0.00    +0.000 C 
ATOM      9  C   UNL     1       9.005  14.161  23.306  0.00  0.00    +0.000 C 
BRANCH   9  10
ATOM     10  C   UNL     1       8.123  13.177  24.059  0.00  0.00    +0.000 C 
ATOM     11  C   UNL     1       7.367  12.334  24.704  0.00  0.00    +0.000 C 
BRANCH  11  12
ATOM     12  C   UNL     1       6.486  11.349  25.455  0.00  0.00    +0.000 C 
BRANCH  12  13
ATOM     13  O   UNL     1       5.420  11.261  24.551  0.00  0.00    +0.000 OA
ATOM     14  H   UNL     1       4.764  10.665  24.964  0.00  0.00    +0.000 HD
ENDBRANCH  12  13
ENDBRANCH  11  12
ENDBRANCH   9  10
ENDBRANCH   7   8
ENDBRANCH   6   7
ENDBRANCH   5   6
ENDBRANCH   4   5
ENDBRANCH   2   3
BRANCH   1  15
ATOM     15  C   UNL     1       7.170   6.129  16.934  0.00  0.00    +0.000 C 
BRANCH  15  16
ATOM     16  C   UNL     1       5.858   6.285  16.197  0.00  0.00    +0.000 C 
BRANCH  16  17
ATOM     17  C   UNL     1       5.433   5.049  15.463  0.00  0.00    +0.000 C 
BRANCH  17  18
ATOM     18  C   UNL     1       4.960   3.955  16.428  0.00  0.00    +0.000 C 
BRANCH  18  19
ATOM     19  C   UNL     1       3.789   4.472  17.255  0.00  0.00    +0.000 C 
BRANCH  19  20
ATOM     20  C   UNL     1       2.620   3.490  17.182  0.00  0.00    +0.000 C 
BRANCH  20  22
ATOM     21  C   UNL     1       2.527   1.911  19.092  0.00  0.00    +0.000 C 
ATOM     22  C   UNL     1       2.940   2.196  17.851  0.00  0.00    +0.000 C 
BRANCH  21  24
ATOM     23  C   UNL     1       1.035   3.806  20.561  0.00  0.00    +0.000 C 
ATOM     24  C   UNL     1       1.723   2.932  19.883  0.00  0.00    +0.000 C 
ENDBRANCH  21  24
ENDBRANCH  20  22
ENDBRANCH  19  20
ENDBRANCH  18  19
ENDBRANCH  17  18
ENDBRANCH  16  17
ENDBRANCH  15  16
ENDBRANCH   1  15
TORSDOF 16
ENDMDL
MODEL 6
REMARK VINA RESULT:      -5.8      3.563      5.017
REMARK  Name = 
REMARK  16 active torsions:
REMARK  status: ('A' for Active; 'I' for Inactive)
REMARK    1  A    between atoms: C_2  and  C_3
REMARK    2  A    between atoms: C_4  and  C_5
REMARK    3  A    between atoms: C_5  and  C_6
REMARK    4  A    between atoms: C_6  and  C_7
REMARK    5  A    between atoms: C_7  and  C_8
REMARK    6  A    between atoms: C_8  and  C_9
REMARK    7  A    between atoms: C_9  and  C_10
REMARK    8  A    between atoms: C_10  and  C_11
REMARK    9  A    between atoms: C_12  and  C_13
REMARK   10  A    between atoms: C_14  and  C_15
REMARK   11  A    between atoms: C_15  and  C_16
REMARK   12  A    between atoms: C_16  and  C_17
REMARK   13  A    between atoms: C_17  and  C_18
REMARK   14  A    between atoms: C_19  and  C_20
REMARK   15  A    between atoms: C_21  and  C_22
REMARK   16  A    between atoms: C_22  and  O_23
REMARK                            x       y       z     vdW  Elec       q    Type
REMARK                         _______ _______ _______ _____ _____    ______ ____
ROOT
ATOM      1  C   UNL     1       7.458   8.148  17.691  0.00  0.00    +0.000 C 
ATOM      2  C   UNL     1       8.250   8.894  18.214  0.00  0.00    +0.000 C 
ENDROOT
BRANCH   2   3
ATOM      3  C   UNL     1       9.110   9.931  18.887  0.00  0.00    +0.000 C 
ATOM      4  C   UNL     1       9.829  10.751  19.387  0.00  0.00    +0.000 C 
BRANCH   4   5
ATOM      5  C   UNL     1      10.761  11.722  19.968  0.00  0.00    +0.000 C 
BRANCH   5   6
ATOM      6  C   UNL     1      12.047  11.809  19.145  0.00  0.00    +0.000 C 
BRANCH   6   7
ATOM      7  C   UNL     1      11.712  12.189  17.704  0.00  0.00    +0.000 C 
BRANCH   7   8
ATOM      8  C   UNL     1      12.332  13.488  17.294  0.00  0.00    +0.000 C 
ATOM      9  C   UNL     1      11.657  14.644  17.317  0.00  0.00    +0.000 C 
BRANCH   9  10
ATOM     10  C   UNL     1      10.201  14.660  17.752  0.00  0.00    +0.000 C 
ATOM     11  C   UNL     1       8.952  14.674  18.125  0.00  0.00    +0.000 C 
BRANCH  11  12
ATOM     12  C   UNL     1       7.495  14.692  18.560  0.00  0.00    +0.000 C 
BRANCH  12  13
ATOM     13  O   UNL     1       6.901  14.214  17.387  0.00  0.00    +0.000 OA
ATOM     14  H   UNL     1       6.577  13.315  17.594  0.00  0.00    +0.000 HD
ENDBRANCH  12  13
ENDBRANCH  11  12
ENDBRANCH   9  10
ENDBRANCH   7   8
ENDBRANCH   6   7
ENDBRANCH   5   6
ENDBRANCH   4   5
ENDBRANCH   2   3
BRANCH   1  15
ATOM     15  C   UNL     1       6.390   7.348  17.067  0.00  0.00    +0.000 C 
BRANCH  15  16
ATOM     16  C   UNL     1       5.998   6.215  17.990  0.00  0.00    +0.000 C 
BRANCH  16  17
ATOM     17  C   UNL     1       5.572   4.973  17.266  0.00  0.00    +0.000 C 
BRANCH  17  18
ATOM     18  C   UNL     1       5.381   5.232  15.766  0.00  0.00    +0.000 C 
BRANCH  18  19
ATOM     19  C   UNL     1       6.275   4.291  14.966  0.00  0.00    +0.000 C 
BRANCH  19  20
ATOM     20  C   UNL     1       5.489   3.681  13.806  0.00  0.00    +0.000 C 
BRANCH  20  22
ATOM     21  C   UNL     1       5.935   2.979  11.470  0.00  0.00    +0.000 C 
ATOM     22  C   UNL     1       6.388   3.226  12.706  0.00  0.00    +0.000 C 
BRANCH  21  24
ATOM     23  C   UNL     1       3.189   3.267  10.881  0.00  0.00    +0.000 C 
ATOM     24  C   UNL     1       4.457   3.134  11.153  0.00  0.00    +0.000 C 
ENDBRANCH  21  24
ENDBRANCH  20  22
ENDBRANCH  19  20
ENDBRANCH  18  19
ENDBRANCH  17  18
ENDBRANCH  16  17
ENDBRANCH  15  16
ENDBRANCH   1  15
TORSDOF 16
ENDMDL
MODEL 7
REMARK VINA RESULT:      -5.8      2.478      3.662
REMARK  Name = 
REMARK  16 active torsions:
REMARK  status: ('A' for Active; 'I' for Inactive)
REMARK    1  A    between atoms: C_2  and  C_3
REMARK    2  A    between atoms: C_4  and  C_5
REMARK    3  A    between atoms: C_5  and  C_6
REMARK    4  A    between atoms: C_6  and  C_7
REMARK    5  A    between atoms: C_7  and  C_8
REMARK    6  A    between atoms: C_8  and  C_9
REMARK    7  A    between atoms: C_9  and  C_10
REMARK    8  A    between atoms: C_10  and  C_11
REMARK    9  A    between atoms: C_12  and  C_13
REMARK   10  A    between atoms: C_14  and  C_15
REMARK   11  A    between atoms: C_15  and  C_16
REMARK   12  A    between atoms: C_16  and  C_17
REMARK   13  A    between atoms: C_17  and  C_18
REMARK   14  A    between atoms: C_19  and  C_20
REMARK   15  A    between atoms: C_21  and  C_22
REMARK   16  A    between atoms: C_22  and  O_23
REMARK                            x       y       z     vdW  Elec       q    Type
REMARK                         _______ _______ _______ _____ _____    ______ ____
ROOT
ATOM      1  C   UNL     1       6.790   6.879  17.153  0.00  0.00    +0.000 C 
ATOM      2  C   UNL     1       7.521   7.767  17.521  0.00  0.00    +0.000 C 
ENDROOT
BRANCH   2   3
ATOM      3  C   UNL     1       8.301   8.932  18.070  0.00  0.00    +0.000 C 
ATOM      4  C   UNL     1       8.902   9.890  18.471  0.00  0.00    +0.000 C 
BRANCH   4   5
ATOM      5  C   UNL     1       9.633  11.087  18.900  0.00  0.00    +0.000 C 
BRANCH   5   6
ATOM      6  C   UNL     1       9.160  12.322  18.133  0.00  0.00    +0.000 C 
BRANCH   6   7
ATOM      7  C   UNL     1       8.845  13.449  19.114  0.00  0.00    +0.000 C 
BRANCH   7   8
ATOM      8  C   UNL     1       9.674  13.375  20.358  0.00  0.00    +0.000 C 
ATOM      9  C   UNL     1      10.743  14.157  20.556  0.00  0.00    +0.000 C 
BRANCH   9  10
ATOM     10  C   UNL     1      11.160  15.151  19.484  0.00  0.00    +0.000 C 
ATOM     11  C   UNL     1      11.518  16.003  18.565  0.00  0.00    +0.000 C 
BRANCH  11  12
ATOM     12  C   UNL     1      11.934  16.996  17.491  0.00  0.00    +0.000 C 
BRANCH  12  13
ATOM     13  O   UNL     1      12.148  18.123  18.294  0.00  0.00    +0.000 OA
ATOM     14  H   UNL     1      12.958  17.937  18.810  0.00  0.00    +0.000 HD
ENDBRANCH  12  13
ENDBRANCH  11  12
ENDBRANCH   9  10
ENDBRANCH   7   8
ENDBRANCH   6   7
ENDBRANCH   5   6
ENDBRANCH   4   5
ENDBRANCH   2   3
BRANCH   1  15
ATOM     15  C   UNL     1       5.790   5.865  16.780  0.00  0.00    +0.000 C 
BRANCH  15  16
ATOM     16  C   UNL     1       4.825   5.655  17.927  0.00  0.00    +0.000 C 
BRANCH  16  17
ATOM     17  C   UNL     1       3.510   5.072  17.504  0.00  0.00    +0.000 C 
BRANCH  17  18
ATOM     18  C   UNL     1       3.681   3.669  16.908  0.00  0.00    +0.000 C 
BRANCH  18  19
ATOM     19  C   UNL     1       3.115   2.631  17.871  0.00  0.00    +0.000 C 
BRANCH  19  20
ATOM     20  C   UNL     1       1.673   2.982  18.234  0.00  0.00    +0.000 C 
BRANCH  20  22
ATOM     21  C   UNL     1       1.170   3.142  20.657  0.00  0.00    +0.000 C 
ATOM     22  C   UNL     1       1.274   2.399  19.548  0.00  0.00    +0.000 C 
BRANCH  21  24
ATOM     23  C   UNL     1       1.759   5.903  20.576  0.00  0.00    +0.000 C 
ATOM     24  C   UNL     1       1.488   4.629  20.613  0.00  0.00    +0.000 C 
ENDBRANCH  21  24
ENDBRANCH  20  22
ENDBRANCH  19  20
ENDBRANCH  18  19
ENDBRANCH  17  18
ENDBRANCH  16  17
ENDBRANCH  15  16
ENDBRANCH   1  15
TORSDOF 16
ENDMDL
MODEL 8
REMARK VINA RESULT:      -5.8      6.097      9.495
REMARK  Name = 
REMARK  16 active torsions:
REMARK  status: ('A' for Active; 'I' for Inactive)
REMARK    1  A    between atoms: C_2  and  C_3
REMARK    2  A    between atoms: C_4  and  C_5
REMARK    3  A    between atoms: C_5  and  C_6
REMARK    4  A    between atoms: C_6  and  C_7
REMARK    5  A    between atoms: C_7  and  C_8
REMARK    6  A    between atoms: C_8  and  C_9
REMARK    7  A    between atoms: C_9  and  C_10
REMARK    8  A    between atoms: C_10  and  C_11
REMARK    9  A    between atoms: C_12  and  C_13
REMARK   10  A    between atoms: C_14  and  C_15
REMARK   11  A    between atoms: C_15  and  C_16
REMARK   12  A    between atoms: C_16  and  C_17
REMARK   13  A    between atoms: C_17  and  C_18
REMARK   14  A    between atoms: C_19  and  C_20
REMARK   15  A    between atoms: C_21  and  C_22
REMARK   16  A    between atoms: C_22  and  O_23
REMARK                            x       y       z     vdW  Elec       q    Type
REMARK                         _______ _______ _______ _____ _____    ______ ____
ROOT
ATOM      1  C   UNL     1       2.346   7.797  18.490  0.00  0.00    +0.000 C 
ATOM      2  C   UNL     1       2.220   6.748  19.076  0.00  0.00    +0.000 C 
ENDROOT
BRANCH   2   3
ATOM      3  C   UNL     1       1.943   5.517  19.897  0.00  0.00    +0.000 C 
ATOM      4  C   UNL     1       1.765   4.545  20.579  0.00  0.00    +0.000 C 
BRANCH   4   5
ATOM      5  C   UNL     1       1.614   3.355  21.421  0.00  0.00    +0.000 C 
BRANCH   5   6
ATOM      6  C   UNL     1       2.889   2.512  21.412  0.00  0.00    +0.000 C 
BRANCH   6   7
ATOM      7  C   UNL     1       3.564   2.613  20.046  0.00  0.00    +0.000 C 
BRANCH   7   8
ATOM      8  C   UNL     1       2.836   1.845  18.988  0.00  0.00    +0.000 C 
ATOM      9  C   UNL     1       2.838   2.217  17.702  0.00  0.00    +0.000 C 
BRANCH   9  10
ATOM     10  C   UNL     1       3.586   3.472  17.280  0.00  0.00    +0.000 C 
ATOM     11  C   UNL     1       4.226   4.547  16.918  0.00  0.00    +0.000 C 
BRANCH  11  12
ATOM     12  C   UNL     1       4.974   5.802  16.497  0.00  0.00    +0.000 C 
BRANCH  12  13
ATOM     13  O   UNL     1       6.183   5.223  16.094  0.00  0.00    +0.000 OA
ATOM     14  H   UNL     1       6.477   4.664  16.841  0.00  0.00    +0.000 HD
ENDBRANCH  12  13
ENDBRANCH  11  12
ENDBRANCH   9  10
ENDBRANCH   7   8
ENDBRANCH   6   7
ENDBRANCH   5   6
ENDBRANCH   4   5
ENDBRANCH   2   3
BRANCH   1  15
ATOM     15  C   UNL     1       2.400   9.132  17.872  0.00  0.00    +0.000 C 
BRANCH  15  16
ATOM     16  C   UNL     1       1.071   9.833  18.056  0.00  0.00    +0.000 C 
BRANCH  16  17
ATOM     17  C   UNL     1       0.949  10.552  19.366  0.00  0.00    +0.000 C 
BRANCH  17  18
ATOM     18  C   UNL     1       0.755  12.060  19.166  0.00  0.00    +0.000 C 
BRANCH  18  19
ATOM     19  C   UNL     1       0.040  12.650  20.376  0.00  0.00    +0.000 C 
BRANCH  19  20
ATOM     20  C   UNL     1      -1.005  11.666  20.900  0.00  0.00    +0.000 C 
BRANCH  20  22
ATOM     21  C   UNL     1      -0.773  10.505  23.079  0.00  0.00    +0.000 C 
ATOM     22  C   UNL     1      -1.030  11.625  22.391  0.00  0.00    +0.000 C 
BRANCH  21  24
ATOM     23  C   UNL     1      -0.204   8.100  21.714  0.00  0.00    +0.000 C 
ATOM     24  C   UNL     1      -0.466   9.210  22.344  0.00  0.00    +0.000 C 
ENDBRANCH  21  24
ENDBRANCH  20  22
ENDBRANCH  19  20
ENDBRANCH  18  19
ENDBRANCH  17  18
ENDBRANCH  16  17
ENDBRANCH  15  16
ENDBRANCH   1  15
TORSDOF 16
ENDMDL
MODEL 9
REMARK VINA RESULT:      -5.8      6.322      9.198
REMARK  Name = 
REMARK  16 active torsions:
REMARK  status: ('A' for Active; 'I' for Inactive)
REMARK    1  A    between atoms: C_2  and  C_3
REMARK    2  A    between atoms: C_4  and  C_5
REMARK    3  A    between atoms: C_5  and  C_6
REMARK    4  A    between atoms: C_6  and  C_7
REMARK    5  A    between atoms: C_7  and  C_8
REMARK    6  A    between atoms: C_8  and  C_9
REMARK    7  A    between atoms: C_9  and  C_10
REMARK    8  A    between atoms: C_10  and  C_11
REMARK    9  A    between atoms: C_12  and  C_13
REMARK   10  A    between atoms: C_14  and  C_15
REMARK   11  A    between atoms: C_15  and  C_16
REMARK   12  A    between atoms: C_16  and  C_17
REMARK   13  A    between atoms: C_17  and  C_18
REMARK   14  A    between atoms: C_19  and  C_20
REMARK   15  A    between atoms: C_21  and  C_22
REMARK   16  A    between atoms: C_22  and  O_23
REMARK                            x       y       z     vdW  Elec       q    Type
REMARK                         _______ _______ _______ _____ _____    ______ ____
ROOT
ATOM      1  C   UNL     1       4.166   7.196  17.300  0.00  0.00    +0.000 C 
ATOM      2  C   UNL     1       3.171   7.864  17.446  0.00  0.00    +0.000 C 
ENDROOT
BRANCH   2   3
ATOM      3  C   UNL     1       1.993   8.740  17.781  0.00  0.00    +0.000 C 
ATOM      4  C   UNL     1       1.031   9.399  18.070  0.00  0.00    +0.000 C 
BRANCH   4   5
ATOM      5  C   UNL     1      -0.180  10.146  18.422  0.00  0.00    +0.000 C 
BRANCH   5   6
ATOM      6  C   UNL     1      -1.250   9.996  17.341  0.00  0.00    +0.000 C 
BRANCH   6   7
ATOM      7  C   UNL     1      -2.630  10.257  17.942  0.00  0.00    +0.000 C 
BRANCH   7   8
ATOM      8  C   UNL     1      -3.668  10.528  16.899  0.00  0.00    +0.000 C 
ATOM      9  C   UNL     1      -4.761  11.259  17.147  0.00  0.00    +0.000 C 
BRANCH   9  10
ATOM     10  C   UNL     1      -4.988  11.829  18.538  0.00  0.00    +0.000 C 
ATOM     11  C   UNL     1      -5.183  12.318  19.731  0.00  0.00    +0.000 C 
BRANCH  11  12
ATOM     12  C   UNL     1      -5.409  12.888  21.122  0.00  0.00    +0.000 C 
BRANCH  12  13
ATOM     13  O   UNL     1      -5.616  14.232  20.788  0.00  0.00    +0.000 OA
ATOM     14  H   UNL     1      -5.031  14.413  20.025  0.00  0.00    +0.000 HD
ENDBRANCH  12  13
ENDBRANCH  11  12
ENDBRANCH   9  10
ENDBRANCH   7   8
ENDBRANCH   6   7
ENDBRANCH   5   6
ENDBRANCH   4   5
ENDBRANCH   2   3
BRANCH   1  15
ATOM     15  C   UNL     1       5.415   6.419  17.260  0.00  0.00    +0.000 C 
BRANCH  15  16
ATOM     16  C   UNL     1       5.103   4.965  16.983  0.00  0.00    +0.000 C 
BRANCH  16  17
ATOM     17  C   UNL     1       4.116   4.371  17.943  0.00  0.00    +0.000 C 
BRANCH  17  18
ATOM     18  C   UNL     1       2.957   3.686  17.207  0.00  0.00    +0.000 C 
BRANCH  18  19
ATOM     19  C   UNL     1       1.630   4.169  17.780  0.00  0.00    +0.000 C 
BRANCH  19  20
ATOM     20  C   UNL     1       1.837   4.724  19.189  0.00  0.00    +0.000 C 
BRANCH  20  22
ATOM     21  C   UNL     1       1.387   3.087  20.997  0.00  0.00    +0.000 C 
ATOM     22  C   UNL     1       0.948   4.057  20.185  0.00  0.00    +0.000 C 
BRANCH  21  24
ATOM     23  C   UNL     1       4.064   2.203  20.832  0.00  0.00    +0.000 C 
ATOM     24  C   UNL     1       2.829   2.611  20.909  0.00  0.00    +0.000 C 
ENDBRANCH  21  24
ENDBRANCH  20  22
ENDBRANCH  19  20
ENDBRANCH  18  19
ENDBRANCH  17  18
ENDBRANCH  16  17
ENDBRANCH  15  16
ENDBRANCH   1  15
TORSDOF 16
ENDMDL
