MODEL 1
REMARK VINA RESULT:      -9.1      0.000      0.000
REMARK  Name = 
REMARK  11 active torsions:
REMARK  status: ('A' for Active; 'I' for Inactive)
REMARK    1  A    between atoms: C_1  and  C_2
REMARK    2  A    between atoms: C_2  and  O_3
REMARK    3  A    between atoms: O_3  and  C_4
REMARK    4  A    between atoms: C_8  and  N_9
REMARK    5  A    between atoms: C_10  and  C_12
REMARK    6  A    between atoms: C_17  and  S_18
REMARK    7  A    between atoms: S_18  and  N_21
REMARK    8  A    between atoms: N_21  and  C_22
REMARK    9  A    between atoms: N_21  and  C_24
REMARK   10  A    between atoms: C_22  and  C_23
REMARK   11  A    between atoms: C_28  and  C_29
REMARK                            x       y       z     vdW  Elec       q    Type
REMARK                         _______ _______ _______ _____ _____    ______ ____
ROOT
ATOM      1  C   UNL     1       2.519   7.924  18.350  0.00  0.00    +0.000 A 
ATOM      2  C   UNL     1       2.262   6.916  19.290  0.00  0.00    +0.000 A 
ATOM      3  C   UNL     1       3.026   5.744  19.303  0.00  0.00    +0.000 A 
ATOM      4  C   UNL     1       4.070   5.567  18.394  0.00  0.00    +0.000 A 
ATOM      5  F   UNL     1       4.773   4.437  18.472  0.00  0.00    +0.000 F 
ATOM      6  C   UNL     1       4.356   6.556  17.476  0.00  0.00    +0.000 A 
ATOM      7  C   UNL     1       3.541   7.715  17.416  0.00  0.00    +0.000 A 
ENDROOT
BRANCH   1   9
ATOM      8  N   UNL     1       0.775   9.250  19.463  0.00  0.00    +0.000 N 
ATOM      9  C   UNL     1       1.719   9.193  18.446  0.00  0.00    +0.000 C 
ATOM     10  O   UNL     1       1.914  10.052  17.595  0.00  0.00    +0.000 OA
ATOM     11  H   UNL     1       0.738   8.485  20.121  0.00  0.00    +0.000 HD
BRANCH   8  16
ATOM     12  C   UNL     1      -2.139  11.377  18.587  0.00  0.00    +0.000 A 
ATOM     13  C   UNL     1      -2.270  12.165  19.730  0.00  0.00    +0.000 A 
ATOM     14  C   UNL     1      -1.416  11.976  20.815  0.00  0.00    +0.000 A 
ATOM     15  C   UNL     1      -0.415  11.001  20.765  0.00  0.00    +0.000 A 
ATOM     16  C   UNL     1      -0.257  10.211  19.623  0.00  0.00    +0.000 A 
ATOM     17  C   UNL     1      -1.135  10.401  18.539  0.00  0.00    +0.000 A 
BRANCH  12  18
ATOM     18  O   UNL     1      -3.031  11.673  17.593  0.00  0.00    +0.000 OA
BRANCH  18  20
ATOM     19  C   UNL     1      -3.068  10.632  15.445  0.00  0.00    +0.000 C 
ATOM     20  C   UNL     1      -3.597  10.581  16.870  0.00  0.00    +0.000 C 
ENDBRANCH  18  20
ENDBRANCH  12  18
ENDBRANCH   8  16
ENDBRANCH   1   9
BRANCH   6  21
ATOM     21  S   UNL     1       5.706   6.522  16.330  0.00  0.00    +0.000 S 
ATOM     22  O   UNL     1       5.080   6.859  15.063  0.00  0.00    +0.000 OA
ATOM     23  O   UNL     1       6.698   7.419  16.894  0.00  0.00    +0.000 OA
BRANCH  21  24
ATOM     24  N   UNL     1       6.420   4.966  16.183  0.00  0.00    +0.000 N 
BRANCH  24  25
ATOM     25  C   UNL     1       6.723   4.679  14.784  0.00  0.00    +0.000 A 
ATOM     26  C   UNL     1       7.741   5.360  14.110  0.00  0.00    +0.000 A 
ATOM     27  C   UNL     1       7.937   5.164  12.742  0.00  0.00    +0.000 A 
ATOM     28  C   UNL     1       7.099   4.305  12.034  0.00  0.00    +0.000 A 
ATOM     29  C   UNL     1       6.066   3.626  12.690  0.00  0.00    +0.000 A 
ATOM     30  C   UNL     1       5.134   2.736  11.917  0.00  0.00    +0.000 C 
ATOM     31  C   UNL     1       5.883   3.819  14.067  0.00  0.00    +0.000 A 
ENDBRANCH  24  25
BRANCH  24  32
ATOM     32  C   UNL     1       7.468   4.453  17.133  0.00  0.00    +0.000 C 
ATOM     33  C   UNL     1       7.720   5.247  18.400  0.00  0.00    +0.000 C 
ENDBRANCH  24  32
ENDBRANCH  21  24
ENDBRANCH   6  21
TORSDOF 8
ENDMDL
MODEL 2
REMARK VINA RESULT:      -8.8      2.125      2.355
REMARK  Name = 
REMARK  11 active torsions:
REMARK  status: ('A' for Active; 'I' for Inactive)
REMARK    1  A    between atoms: C_1  and  C_2
REMARK    2  A    between atoms: C_2  and  O_3
REMARK    3  A    between atoms: O_3  and  C_4
REMARK    4  A    between atoms: C_8  and  N_9
REMARK    5  A    between atoms: C_10  and  C_12
REMARK    6  A    between atoms: C_17  and  S_18
REMARK    7  A    between atoms: S_18  and  N_21
REMARK    8  A    between atoms: N_21  and  C_22
REMARK    9  A    between atoms: N_21  and  C_24
REMARK   10  A    between atoms: C_22  and  C_23
REMARK   11  A    between atoms: C_28  and  C_29
REMARK                            x       y       z     vdW  Elec       q    Type
REMARK                         _______ _______ _______ _____ _____    ______ ____
ROOT
ATOM      1  C   UNL     1       2.413   7.325  18.531  0.00  0.00    +0.000 A 
ATOM      2  C   UNL     1       1.956   6.078  18.984  0.00  0.00    +0.000 A 
ATOM      3  C   UNL     1       2.574   4.897  18.559  0.00  0.00    +0.000 A 
ATOM      4  C   UNL     1       3.669   4.941  17.695  0.00  0.00    +0.000 A 
ATOM      5  F   UNL     1       4.226   3.781  17.344  0.00  0.00    +0.000 F 
ATOM      6  C   UNL     1       4.151   6.157  17.256  0.00  0.00    +0.000 A 
ATOM      7  C   UNL     1       3.485   7.352  17.631  0.00  0.00    +0.000 A 
ENDROOT
BRANCH   1   9
ATOM      8  N   UNL     1       1.507   8.551  20.458  0.00  0.00    +0.000 N 
ATOM      9  C   UNL     1       1.760   8.557  19.093  0.00  0.00    +0.000 C 
ATOM     10  O   UNL     1       1.449   9.443  18.306  0.00  0.00    +0.000 OA
ATOM     11  H   UNL     1       1.847   7.771  21.002  0.00  0.00    +0.000 HD
BRANCH   8  16
ATOM     12  C   UNL     1       0.003  11.789  21.476  0.00  0.00    +0.000 A 
ATOM     13  C   UNL     1      -0.740  11.418  22.597  0.00  0.00    +0.000 A 
ATOM     14  C   UNL     1      -0.775  10.087  23.007  0.00  0.00    +0.000 A 
ATOM     15  C   UNL     1      -0.062   9.112  22.303  0.00  0.00    +0.000 A 
ATOM     16  C   UNL     1       0.700   9.465  21.185  0.00  0.00    +0.000 A 
ATOM     17  C   UNL     1       0.717  10.810  20.773  0.00  0.00    +0.000 A 
BRANCH  12  18
ATOM     18  O   UNL     1      -0.037  13.127  21.191  0.00  0.00    +0.000 OA
BRANCH  18  20
ATOM     19  C   UNL     1       1.424  14.623  20.042  0.00  0.00    +0.000 C 
ATOM     20  C   UNL     1       0.374  13.534  19.888  0.00  0.00    +0.000 C 
ENDBRANCH  18  20
ENDBRANCH  12  18
ENDBRANCH   8  16
ENDBRANCH   1   9
BRANCH   6  21
ATOM     21  S   UNL     1       5.586   6.378  16.243  0.00  0.00    +0.000 S 
ATOM     22  O   UNL     1       5.032   6.724  14.946  0.00  0.00    +0.000 OA
ATOM     23  O   UNL     1       6.398   7.351  16.952  0.00  0.00    +0.000 OA
BRANCH  21  24
ATOM     24  N   UNL     1       6.511   4.941  16.070  0.00  0.00    +0.000 N 
BRANCH  24  25
ATOM     25  C   UNL     1       6.802   4.693  14.661  0.00  0.00    +0.000 A 
ATOM     26  C   UNL     1       7.745   5.461  13.971  0.00  0.00    +0.000 A 
ATOM     27  C   UNL     1       7.923   5.296  12.597  0.00  0.00    +0.000 A 
ATOM     28  C   UNL     1       7.140   4.379  11.898  0.00  0.00    +0.000 A 
ATOM     29  C   UNL     1       6.181   3.612  12.570  0.00  0.00    +0.000 A 
ATOM     30  C   UNL     1       5.306   2.657  11.808  0.00  0.00    +0.000 C 
ATOM     31  C   UNL     1       6.017   3.775  13.954  0.00  0.00    +0.000 A 
ENDBRANCH  24  25
BRANCH  24  32
ATOM     32  C   UNL     1       7.655   4.588  16.981  0.00  0.00    +0.000 C 
ATOM     33  C   UNL     1       7.425   4.696  18.476  0.00  0.00    +0.000 C 
ENDBRANCH  24  32
ENDBRANCH  21  24
ENDBRANCH   6  21
TORSDOF 8
ENDMDL
MODEL 3
REMARK VINA RESULT:      -8.7      1.939      3.517
REMARK  Name = 
REMARK  11 active torsions:
REMARK  status: ('A' for Active; 'I' for Inactive)
REMARK    1  A    between atoms: C_1  and  C_2
REMARK    2  A    between atoms: C_2  and  O_3
REMARK    3  A    between atoms: O_3  and  C_4
REMARK    4  A    between atoms: C_8  and  N_9
REMARK    5  A    between atoms: C_10  and  C_12
REMARK    6  A    between atoms: C_17  and  S_18
REMARK    7  A    between atoms: S_18  and  N_21
REMARK    8  A    between atoms: N_21  and  C_22
REMARK    9  A    between atoms: N_21  and  C_24
REMARK   10  A    between atoms: C_22  and  C_23
REMARK   11  A    between atoms: C_28  and  C_29
REMARK                            x       y       z     vdW  Elec       q    Type
REMARK                         _______ _______ _______ _____ _____    ______ ____
ROOT
ATOM      1  C   UNL     1       2.122   7.421  18.974  0.00  0.00    +0.000 A 
ATOM      2  C   UNL     1       1.777   7.002  20.267  0.00  0.00    +0.000 A 
ATOM      3  C   UNL     1       2.131   5.727  20.719  0.00  0.00    +0.000 A 
ATOM      4  C   UNL     1       2.852   4.858  19.899  0.00  0.00    +0.000 A 
ATOM      5  F   UNL     1       3.177   3.664  20.397  0.00  0.00    +0.000 F 
ATOM      6  C   UNL     1       3.223   5.258  18.632  0.00  0.00    +0.000 A 
ATOM      7  C   UNL     1       2.807   6.524  18.146  0.00  0.00    +0.000 A 
ENDROOT
BRANCH   1   9
ATOM      8  N   UNL     1       0.879   9.499  19.395  0.00  0.00    +0.000 N 
ATOM      9  C   UNL     1       1.786   8.833  18.582  0.00  0.00    +0.000 C 
ATOM     10  O   UNL     1       2.288   9.271  17.553  0.00  0.00    +0.000 OA
ATOM     11  H   UNL     1       0.565   9.036  20.236  0.00  0.00    +0.000 HD
BRANCH   8  16
ATOM     12  C   UNL     1      -1.803  11.815  18.286  0.00  0.00    +0.000 A 
ATOM     13  C   UNL     1      -1.176  13.055  18.407  0.00  0.00    +0.000 A 
ATOM     14  C   UNL     1       0.129  13.138  18.889  0.00  0.00    +0.000 A 
ATOM     15  C   UNL     1       0.824  11.980  19.249  0.00  0.00    +0.000 A 
ATOM     16  C   UNL     1       0.220  10.726  19.121  0.00  0.00    +0.000 A 
ATOM     17  C   UNL     1      -1.103  10.655  18.645  0.00  0.00    +0.000 A 
BRANCH  12  18
ATOM     18  O   UNL     1      -3.076  11.873  17.789  0.00  0.00    +0.000 OA
BRANCH  18  20
ATOM     19  C   UNL     1      -2.991  10.950  15.590  0.00  0.00    +0.000 C 
ATOM     20  C   UNL     1      -3.527  10.772  17.002  0.00  0.00    +0.000 C 
ENDBRANCH  18  20
ENDBRANCH  12  18
ENDBRANCH   8  16
ENDBRANCH   1   9
BRANCH   6  21
ATOM     21  S   UNL     1       4.221   4.312  17.516  0.00  0.00    +0.000 S 
ATOM     22  O   UNL     1       5.094   3.561  18.401  0.00  0.00    +0.000 OA
ATOM     23  O   UNL     1       3.273   3.599  16.680  0.00  0.00    +0.000 OA
BRANCH  21  24
ATOM     24  N   UNL     1       5.197   5.291  16.497  0.00  0.00    +0.000 N 
BRANCH  24  25
ATOM     25  C   UNL     1       6.333   5.823  17.243  0.00  0.00    +0.000 A 
ATOM     26  C   UNL     1       6.973   5.063  18.226  0.00  0.00    +0.000 A 
ATOM     27  C   UNL     1       7.975   5.627  19.017  0.00  0.00    +0.000 A 
ATOM     28  C   UNL     1       8.327   6.965  18.847  0.00  0.00    +0.000 A 
ATOM     29  C   UNL     1       7.686   7.746  17.877  0.00  0.00    +0.000 A 
ATOM     30  C   UNL     1       8.033   9.200  17.726  0.00  0.00    +0.000 C 
ATOM     31  C   UNL     1       6.689   7.167  17.078  0.00  0.00    +0.000 A 
ENDBRANCH  24  25
BRANCH  24  32
ATOM     32  C   UNL     1       5.545   4.910  15.084  0.00  0.00    +0.000 C 
ATOM     33  C   UNL     1       6.348   3.641  14.873  0.00  0.00    +0.000 C 
ENDBRANCH  24  32
ENDBRANCH  21  24
ENDBRANCH   6  21
TORSDOF 8
ENDMDL
MODEL 4
REMARK VINA RESULT:      -8.7      2.679      4.280
REMARK  Name = 
REMARK  11 active torsions:
REMARK  status: ('A' for Active; 'I' for Inactive)
REMARK    1  A    between atoms: C_1  and  C_2
REMARK    2  A    between atoms: C_2  and  O_3
REMARK    3  A    between atoms: O_3  and  C_4
REMARK    4  A    between atoms: C_8  and  N_9
REMARK    5  A    between atoms: C_10  and  C_12
REMARK    6  A    between atoms: C_17  and  S_18
REMARK    7  A    between atoms: S_18  and  N_21
REMARK    8  A    between atoms: N_21  and  C_22
REMARK    9  A    between atoms: N_21  and  C_24
REMARK   10  A    between atoms: C_22  and  C_23
REMARK   11  A    between atoms: C_28  and  C_29
REMARK                            x       y       z     vdW  Elec       q    Type
REMARK                         _______ _______ _______ _____ _____    ______ ____
ROOT
ATOM      1  C   UNL     1       2.156   7.495  18.857  0.00  0.00    +0.000 A 
ATOM      2  C   UNL     1       1.785   7.194  20.175  0.00  0.00    +0.000 A 
ATOM      3  C   UNL     1       2.035   5.926  20.712  0.00  0.00    +0.000 A 
ATOM      4  C   UNL     1       2.677   4.948  19.951  0.00  0.00    +0.000 A 
ATOM      5  F   UNL     1       2.905   3.767  20.528  0.00  0.00    +0.000 F 
ATOM      6  C   UNL     1       3.073   5.230  18.660  0.00  0.00    +0.000 A 
ATOM      7  C   UNL     1       2.760   6.491  18.091  0.00  0.00    +0.000 A 
ENDROOT
BRANCH   1   9
ATOM      8  N   UNL     1       1.240   9.746  19.225  0.00  0.00    +0.000 N 
ATOM      9  C   UNL     1       1.937   8.901  18.371  0.00  0.00    +0.000 C 
ATOM     10  O   UNL     1       2.334   9.181  17.246  0.00  0.00    +0.000 OA
ATOM     11  H   UNL     1       0.998   9.400  20.142  0.00  0.00    +0.000 HD
BRANCH   8  16
ATOM     12  C   UNL     1       1.038  13.441  18.931  0.00  0.00    +0.000 A 
ATOM     13  C   UNL     1      -0.271  13.620  18.482  0.00  0.00    +0.000 A 
ATOM     14  C   UNL     1      -1.087  12.517  18.241  0.00  0.00    +0.000 A 
ATOM     15  C   UNL     1      -0.606  11.221  18.453  0.00  0.00    +0.000 A 
ATOM     16  C   UNL     1       0.698  11.021  18.917  0.00  0.00    +0.000 A 
ATOM     17  C   UNL     1       1.518  12.142  19.143  0.00  0.00    +0.000 A 
BRANCH  12  18
ATOM     18  O   UNL     1       1.726  14.605  19.139  0.00  0.00    +0.000 OA
BRANCH  18  20
ATOM     19  C   UNL     1       3.428  15.273  17.605  0.00  0.00    +0.000 C 
ATOM     20  C   UNL     1       3.136  14.582  18.928  0.00  0.00    +0.000 C 
ENDBRANCH  18  20
ENDBRANCH  12  18
ENDBRANCH   8  16
ENDBRANCH   1   9
BRANCH   6  21
ATOM     21  S   UNL     1       3.982   4.132  17.611  0.00  0.00    +0.000 S 
ATOM     22  O   UNL     1       4.811   3.387  18.542  0.00  0.00    +0.000 OA
ATOM     23  O   UNL     1       2.973   3.430  16.839  0.00  0.00    +0.000 OA
BRANCH  21  24
ATOM     24  N   UNL     1       5.012   4.957  16.511  0.00  0.00    +0.000 N 
BRANCH  24  25
ATOM     25  C   UNL     1       6.161   5.517  17.216  0.00  0.00    +0.000 A 
ATOM     26  C   UNL     1       6.862   4.767  18.165  0.00  0.00    +0.000 A 
ATOM     27  C   UNL     1       7.879   5.354  18.920  0.00  0.00    +0.000 A 
ATOM     28  C   UNL     1       8.184   6.703  18.749  0.00  0.00    +0.000 A 
ATOM     29  C   UNL     1       7.482   7.473  17.813  0.00  0.00    +0.000 A 
ATOM     30  C   UNL     1       7.780   8.937  17.662  0.00  0.00    +0.000 C 
ATOM     31  C   UNL     1       6.471   6.871  17.050  0.00  0.00    +0.000 A 
ENDBRANCH  24  25
BRANCH  24  32
ATOM     32  C   UNL     1       5.359   4.417  15.150  0.00  0.00    +0.000 C 
ATOM     33  C   UNL     1       6.785   4.593  14.664  0.00  0.00    +0.000 C 
ENDBRANCH  24  32
ENDBRANCH  21  24
ENDBRANCH   6  21
TORSDOF 8
ENDMDL
MODEL 5
REMARK VINA RESULT:      -8.6      1.122      2.124
REMARK  Name = 
REMARK  11 active torsions:
REMARK  status: ('A' for Active; 'I' for Inactive)
REMARK    1  A    between atoms: C_1  and  C_2
REMARK    2  A    between atoms: C_2  and  O_3
REMARK    3  A    between atoms: O_3  and  C_4
REMARK    4  A    between atoms: C_8  and  N_9
REMARK    5  A    between atoms: C_10  and  C_12
REMARK    6  A    between atoms: C_17  and  S_18
REMARK    7  A    between atoms: S_18  and  N_21
REMARK    8  A    between atoms: N_21  and  C_22
REMARK    9  A    between atoms: N_21  and  C_24
REMARK   10  A    between atoms: C_22  and  C_23
REMARK   11  A    between atoms: C_28  and  C_29
REMARK                            x       y       z     vdW  Elec       q    Type
REMARK                         _______ _______ _______ _____ _____    ______ ____
ROOT
ATOM      1  C   UNL     1       2.517   8.056  18.333  0.00  0.00    +0.000 A 
ATOM      2  C   UNL     1       2.258   7.092  19.319  0.00  0.00    +0.000 A 
ATOM      3  C   UNL     1       3.002   5.908  19.369  0.00  0.00    +0.000 A 
ATOM      4  C   UNL     1       4.029   5.676  18.452  0.00  0.00    +0.000 A 
ATOM      5  F   UNL     1       4.715   4.538  18.567  0.00  0.00    +0.000 F 
ATOM      6  C   UNL     1       4.317   6.621  17.489  0.00  0.00    +0.000 A 
ATOM      7  C   UNL     1       3.521   7.791  17.393  0.00  0.00    +0.000 A 
ENDROOT
BRANCH   1   9
ATOM      8  N   UNL     1       0.664   9.372  19.265  0.00  0.00    +0.000 N 
ATOM      9  C   UNL     1       1.740   9.341  18.388  0.00  0.00    +0.000 C 
ATOM     10  O   UNL     1       2.073  10.238  17.623  0.00  0.00    +0.000 OA
ATOM     11  H   UNL     1       0.517   8.575  19.867  0.00  0.00    +0.000 HD
BRANCH   8  16
ATOM     12  C   UNL     1      -1.578  11.938  20.740  0.00  0.00    +0.000 A 
ATOM     13  C   UNL     1      -2.424  12.226  19.670  0.00  0.00    +0.000 A 
ATOM     14  C   UNL     1      -2.240  11.598  18.440  0.00  0.00    +0.000 A 
ATOM     15  C   UNL     1      -1.210  10.668  18.269  0.00  0.00    +0.000 A 
ATOM     16  C   UNL     1      -0.359  10.354  19.333  0.00  0.00    +0.000 A 
ATOM     17  C   UNL     1      -0.547  11.005  20.566  0.00  0.00    +0.000 A 
BRANCH  12  18
ATOM     18  O   UNL     1      -1.875  12.614  21.892  0.00  0.00    +0.000 OA
BRANCH  18  20
ATOM     19  C   UNL     1      -3.674  13.888  22.807  0.00  0.00    +0.000 C 
ATOM     20  C   UNL     1      -3.204  12.501  22.396  0.00  0.00    +0.000 C 
ENDBRANCH  18  20
ENDBRANCH  12  18
ENDBRANCH   8  16
ENDBRANCH   1   9
BRANCH   6  21
ATOM     21  S   UNL     1       5.648   6.516  16.326  0.00  0.00    +0.000 S 
ATOM     22  O   UNL     1       5.024   6.885  15.067  0.00  0.00    +0.000 OA
ATOM     23  O   UNL     1       6.693   7.360  16.875  0.00  0.00    +0.000 OA
BRANCH  21  24
ATOM     24  N   UNL     1       6.278   4.925  16.171  0.00  0.00    +0.000 N 
BRANCH  24  25
ATOM     25  C   UNL     1       6.637   4.656  14.782  0.00  0.00    +0.000 A 
ATOM     26  C   UNL     1       7.667   5.361  14.152  0.00  0.00    +0.000 A 
ATOM     27  C   UNL     1       7.917   5.181  12.791  0.00  0.00    +0.000 A 
ATOM     28  C   UNL     1       7.121   4.315  12.044  0.00  0.00    +0.000 A 
ATOM     29  C   UNL     1       6.076   3.612  12.655  0.00  0.00    +0.000 A 
ATOM     30  C   UNL     1       5.189   2.714  11.841  0.00  0.00    +0.000 C 
ATOM     31  C   UNL     1       5.840   3.789  14.027  0.00  0.00    +0.000 A 
ENDBRANCH  24  25
BRANCH  24  32
ATOM     32  C   UNL     1       7.243   4.327  17.158  0.00  0.00    +0.000 C 
ATOM     33  C   UNL     1       7.772   5.224  18.261  0.00  0.00    +0.000 C 
ENDBRANCH  24  32
ENDBRANCH  21  24
ENDBRANCH   6  21
TORSDOF 8
ENDMDL
MODEL 6
REMARK VINA RESULT:      -8.6      2.137      2.836
REMARK  Name = 
REMARK  11 active torsions:
REMARK  status: ('A' for Active; 'I' for Inactive)
REMARK    1  A    between atoms: C_1  and  C_2
REMARK    2  A    between atoms: C_2  and  O_3
REMARK    3  A    between atoms: O_3  and  C_4
REMARK    4  A    between atoms: C_8  and  N_9
REMARK    5  A    between atoms: C_10  and  C_12
REMARK    6  A    between atoms: C_17  and  S_18
REMARK    7  A    between atoms: S_18  and  N_21
REMARK    8  A    between atoms: N_21  and  C_22
REMARK    9  A    between atoms: N_21  and  C_24
REMARK   10  A    between atoms: C_22  and  C_23
REMARK   11  A    between atoms: C_28  and  C_29
REMARK                            x       y       z     vdW  Elec       q    Type
REMARK                         _______ _______ _______ _____ _____    ______ ____
ROOT
ATOM      1  C   UNL     1       2.433   7.231  18.589  0.00  0.00    +0.000 A 
ATOM      2  C   UNL     1       1.992   5.979  19.040  0.00  0.00    +0.000 A 
ATOM      3  C   UNL     1       2.615   4.805  18.603  0.00  0.00    +0.000 A 
ATOM      4  C   UNL     1       3.701   4.862  17.728  0.00  0.00    +0.000 A 
ATOM      5  F   UNL     1       4.264   3.708  17.366  0.00  0.00    +0.000 F 
ATOM      6  C   UNL     1       4.167   6.084  17.290  0.00  0.00    +0.000 A 
ATOM      7  C   UNL     1       3.495   7.271  17.677  0.00  0.00    +0.000 A 
ENDROOT
BRANCH   1   9
ATOM      8  N   UNL     1       1.504   9.484  18.272  0.00  0.00    +0.000 N 
ATOM      9  C   UNL     1       1.776   8.455  19.163  0.00  0.00    +0.000 C 
ATOM     10  O   UNL     1       1.581   8.478  20.373  0.00  0.00    +0.000 OA
ATOM     11  H   UNL     1       1.682   9.323  17.292  0.00  0.00    +0.000 HD
BRANCH   8  16
ATOM     12  C   UNL     1       1.795  13.158  18.717  0.00  0.00    +0.000 A 
ATOM     13  C   UNL     1       0.560  13.475  19.282  0.00  0.00    +0.000 A 
ATOM     14  C   UNL     1      -0.394  12.480  19.491  0.00  0.00    +0.000 A 
ATOM     15  C   UNL     1      -0.118  11.154  19.142  0.00  0.00    +0.000 A 
ATOM     16  C   UNL     1       1.119  10.813  18.588  0.00  0.00    +0.000 A 
ATOM     17  C   UNL     1       2.068  11.829  18.370  0.00  0.00    +0.000 A 
BRANCH  12  18
ATOM     18  O   UNL     1       2.642  14.224  18.579  0.00  0.00    +0.000 OA
BRANCH  18  20
ATOM     19  C   UNL     1       3.003  16.368  19.562  0.00  0.00    +0.000 C 
ATOM     20  C   UNL     1       2.081  15.530  18.691  0.00  0.00    +0.000 C 
ENDBRANCH  18  20
ENDBRANCH  12  18
ENDBRANCH   8  16
ENDBRANCH   1   9
BRANCH   6  21
ATOM     21  S   UNL     1       5.590   6.322  16.263  0.00  0.00    +0.000 S 
ATOM     22  O   UNL     1       5.019   6.668  14.973  0.00  0.00    +0.000 OA
ATOM     23  O   UNL     1       6.400   7.299  16.967  0.00  0.00    +0.000 OA
BRANCH  21  24
ATOM     24  N   UNL     1       6.526   4.894  16.075  0.00  0.00    +0.000 N 
BRANCH  24  25
ATOM     25  C   UNL     1       6.830   4.671  14.664  0.00  0.00    +0.000 A 
ATOM     26  C   UNL     1       7.758   5.470  13.989  0.00  0.00    +0.000 A 
ATOM     27  C   UNL     1       7.947   5.326  12.614  0.00  0.00    +0.000 A 
ATOM     28  C   UNL     1       7.191   4.400  11.899  0.00  0.00    +0.000 A 
ATOM     29  C   UNL     1       6.247   3.602  12.556  0.00  0.00    +0.000 A 
ATOM     30  C   UNL     1       5.399   2.636  11.778  0.00  0.00    +0.000 C 
ATOM     31  C   UNL     1       6.072   3.744  13.941  0.00  0.00    +0.000 A 
ENDBRANCH  24  25
BRANCH  24  32
ATOM     32  C   UNL     1       7.665   4.534  16.989  0.00  0.00    +0.000 C 
ATOM     33  C   UNL     1       7.490   4.802  18.472  0.00  0.00    +0.000 C 
ENDBRANCH  24  32
ENDBRANCH  21  24
ENDBRANCH   6  21
TORSDOF 8
ENDMDL
MODEL 7
REMARK VINA RESULT:      -8.5      4.878      8.305
REMARK  Name = 
REMARK  11 active torsions:
REMARK  status: ('A' for Active; 'I' for Inactive)
REMARK    1  A    between atoms: C_1  and  C_2
REMARK    2  A    between atoms: C_2  and  O_3
REMARK    3  A    between atoms: O_3  and  C_4
REMARK    4  A    between atoms: C_8  and  N_9
REMARK    5  A    between atoms: C_10  and  C_12
REMARK    6  A    between atoms: C_17  and  S_18
REMARK    7  A    between atoms: S_18  and  N_21
REMARK    8  A    between atoms: N_21  and  C_22
REMARK    9  A    between atoms: N_21  and  C_24
REMARK   10  A    between atoms: C_22  and  C_23
REMARK   11  A    between atoms: C_28  and  C_29
REMARK                            x       y       z     vdW  Elec       q    Type
REMARK                         _______ _______ _______ _____ _____    ______ ____
ROOT
ATOM      1  C   UNL     1       7.825   7.952  18.322  0.00  0.00    +0.000 A 
ATOM      2  C   UNL     1       8.474   6.933  19.037  0.00  0.00    +0.000 A 
ATOM      3  C   UNL     1       7.959   5.632  19.045  0.00  0.00    +0.000 A 
ATOM      4  C   UNL     1       6.805   5.321  18.325  0.00  0.00    +0.000 A 
ATOM      5  F   UNL     1       6.379   4.058  18.356  0.00  0.00    +0.000 F 
ATOM      6  C   UNL     1       6.165   6.301  17.595  0.00  0.00    +0.000 A 
ATOM      7  C   UNL     1       6.645   7.635  17.640  0.00  0.00    +0.000 A 
ENDROOT
BRANCH   1   9
ATOM      8  N   UNL     1       9.388   9.579  19.297  0.00  0.00    +0.000 N 
ATOM      9  C   UNL     1       8.477   9.306  18.285  0.00  0.00    +0.000 C 
ATOM     10  O   UNL     1       8.119  10.083  17.408  0.00  0.00    +0.000 OA
ATOM     11  H   UNL     1       9.621   8.836  19.940  0.00  0.00    +0.000 HD
BRANCH   8  16
ATOM     12  C   UNL     1       9.922  12.750  21.153  0.00  0.00    +0.000 A 
ATOM     13  C   UNL     1      10.865  13.393  20.351  0.00  0.00    +0.000 A 
ATOM     14  C   UNL     1      11.357  12.769  19.206  0.00  0.00    +0.000 A 
ATOM     15  C   UNL     1      10.905  11.495  18.847  0.00  0.00    +0.000 A 
ATOM     16  C   UNL     1       9.950  10.839  19.629  0.00  0.00    +0.000 A 
ATOM     17  C   UNL     1       9.471  11.474  20.790  0.00  0.00    +0.000 A 
BRANCH  12  18
ATOM     18  O   UNL     1       9.514  13.476  22.238  0.00  0.00    +0.000 OA
BRANCH  18  20
ATOM     19  C   UNL     1       7.778  15.038  21.744  0.00  0.00    +0.000 C 
ATOM     20  C   UNL     1       9.260  14.866  22.041  0.00  0.00    +0.000 C 
ENDBRANCH  18  20
ENDBRANCH  12  18
ENDBRANCH   8  16
ENDBRANCH   1   9
BRANCH   6  21
ATOM     21  S   UNL     1       4.755   6.040  16.556  0.00  0.00    +0.000 S 
ATOM     22  O   UNL     1       5.045   6.851  15.386  0.00  0.00    +0.000 OA
ATOM     23  O   UNL     1       4.655   4.599  16.416  0.00  0.00    +0.000 OA
BRANCH  21  24
ATOM     24  N   UNL     1       3.293   6.607  17.257  0.00  0.00    +0.000 N 
BRANCH  24  25
ATOM     25  C   UNL     1       2.844   5.692  18.302  0.00  0.00    +0.000 A 
ATOM     26  C   UNL     1       3.385   5.743  19.590  0.00  0.00    +0.000 A 
ATOM     27  C   UNL     1       3.037   4.784  20.542  0.00  0.00    +0.000 A 
ATOM     28  C   UNL     1       2.166   3.750  20.204  0.00  0.00    +0.000 A 
ATOM     29  C   UNL     1       1.626   3.675  18.914  0.00  0.00    +0.000 A 
ATOM     30  C   UNL     1       0.723   2.535  18.537  0.00  0.00    +0.000 C 
ATOM     31  C   UNL     1       1.970   4.651  17.967  0.00  0.00    +0.000 A 
ENDBRANCH  24  25
BRANCH  24  32
ATOM     32  C   UNL     1       3.053   8.053  17.595  0.00  0.00    +0.000 C 
ATOM     33  C   UNL     1       1.627   8.483  17.883  0.00  0.00    +0.000 C 
ENDBRANCH  24  32
ENDBRANCH  21  24
ENDBRANCH   6  21
TORSDOF 8
ENDMDL
MODEL 8
REMARK VINA RESULT:      -8.5      2.036      3.538
REMARK  Name = 
REMARK  11 active torsions:
REMARK  status: ('A' for Active; 'I' for Inactive)
REMARK    1  A    between atoms: C_1  and  C_2
REMARK    2  A    between atoms: C_2  and  O_3
REMARK    3  A    between atoms: O_3  and  C_4
REMARK    4  A    between atoms: C_8  and  N_9
REMARK    5  A    between atoms: C_10  and  C_12
REMARK    6  A    between atoms: C_17  and  S_18
REMARK    7  A    between atoms: S_18  and  N_21
REMARK    8  A    between atoms: N_21  and  C_22
REMARK    9  A    between atoms: N_21  and  C_24
REMARK   10  A    between atoms: C_22  and  C_23
REMARK   11  A    between atoms: C_28  and  C_29
REMARK                            x       y       z     vdW  Elec       q    Type
REMARK                         _______ _______ _______ _____ _____    ______ ____
ROOT
ATOM      1  C   UNL     1       2.221   7.113  18.842  0.00  0.00    +0.000 A 
ATOM      2  C   UNL     1       2.181   6.878  20.224  0.00  0.00    +0.000 A 
ATOM      3  C   UNL     1       2.537   5.628  20.744  0.00  0.00    +0.000 A 
ATOM      4  C   UNL     1       2.958   4.602  19.897  0.00  0.00    +0.000 A 
ATOM      5  F   UNL     1       3.303   3.441  20.457  0.00  0.00    +0.000 F 
ATOM      6  C   UNL     1       3.028   4.818  18.536  0.00  0.00    +0.000 A 
ATOM      7  C   UNL     1       2.603   6.061  18.001  0.00  0.00    +0.000 A 
ENDROOT
BRANCH   1   9
ATOM      8  N   UNL     1       1.130   9.286  19.198  0.00  0.00    +0.000 N 
ATOM      9  C   UNL     1       1.909   8.501  18.358  0.00  0.00    +0.000 C 
ATOM     10  O   UNL     1       2.311   8.817  17.244  0.00  0.00    +0.000 OA
ATOM     11  H   UNL     1       0.893   8.917  20.107  0.00  0.00    +0.000 HD
BRANCH   8  16
ATOM     12  C   UNL     1      -1.442  11.627  17.899  0.00  0.00    +0.000 A 
ATOM     13  C   UNL     1      -0.820  12.862  18.080  0.00  0.00    +0.000 A 
ATOM     14  C   UNL     1       0.443  12.934  18.665  0.00  0.00    +0.000 A 
ATOM     15  C   UNL     1       1.101  11.768  19.068  0.00  0.00    +0.000 A 
ATOM     16  C   UNL     1       0.502  10.519  18.883  0.00  0.00    +0.000 A 
ATOM     17  C   UNL     1      -0.779  10.460  18.304  0.00  0.00    +0.000 A 
BRANCH  12  18
ATOM     18  O   UNL     1      -2.672  11.696  17.305  0.00  0.00    +0.000 OA
BRANCH  18  20
ATOM     19  C   UNL     1      -5.039  11.897  17.532  0.00  0.00    +0.000 C 
ATOM     20  C   UNL     1      -3.788  11.198  18.039  0.00  0.00    +0.000 C 
ENDBRANCH  18  20
ENDBRANCH  12  18
ENDBRANCH   8  16
ENDBRANCH   1   9
BRANCH   6  21
ATOM     21  S   UNL     1       3.635   3.652  17.350  0.00  0.00    +0.000 S 
ATOM     22  O   UNL     1       4.275   2.639  18.171  0.00  0.00    +0.000 OA
ATOM     23  O   UNL     1       2.478   3.293  16.552  0.00  0.00    +0.000 OA
BRANCH  21  24
ATOM     24  N   UNL     1       4.818   4.322  16.299  0.00  0.00    +0.000 N 
BRANCH  24  25
ATOM     25  C   UNL     1       5.634   5.299  17.013  0.00  0.00    +0.000 A 
ATOM     26  C   UNL     1       5.697   6.632  16.596  0.00  0.00    +0.000 A 
ATOM     27  C   UNL     1       6.575   7.525  17.211  0.00  0.00    +0.000 A 
ATOM     28  C   UNL     1       7.417   7.085  18.230  0.00  0.00    +0.000 A 
ATOM     29  C   UNL     1       7.378   5.750  18.651  0.00  0.00    +0.000 A 
ATOM     30  C   UNL     1       8.318   5.265  19.718  0.00  0.00    +0.000 C 
ATOM     31  C   UNL     1       6.483   4.862  18.036  0.00  0.00    +0.000 A 
ENDBRANCH  24  25
BRANCH  24  32
ATOM     32  C   UNL     1       5.606   3.495  15.320  0.00  0.00    +0.000 C 
ATOM     33  C   UNL     1       6.125   4.184  14.072  0.00  0.00    +0.000 C 
ENDBRANCH  24  32
ENDBRANCH  21  24
ENDBRANCH   6  21
TORSDOF 8
ENDMDL
MODEL 9
REMARK VINA RESULT:      -8.5      2.691      4.345
REMARK  Name = 
REMARK  11 active torsions:
REMARK  status: ('A' for Active; 'I' for Inactive)
REMARK    1  A    between atoms: C_1  and  C_2
REMARK    2  A    between atoms: C_2  and  O_3
REMARK    3  A    between atoms: O_3  and  C_4
REMARK    4  A    between atoms: C_8  and  N_9
REMARK    5  A    between atoms: C_10  and  C_12
REMARK    6  A    between atoms: C_17  and  S_18
REMARK    7  A    between atoms: S_18  and  N_21
REMARK    8  A    between atoms: N_21  and  C_22
REMARK    9  A    between atoms: N_21  and  C_24
REMARK   10  A    between atoms: C_22  and  C_23
REMARK   11  A    between atoms: C_28  and  C_29
REMARK                            x       y       z     vdW  Elec       q    Type
REMARK                         _______ _______ _______ _____ _____    ______ ____
ROOT
ATOM      1  C   UNL     1       2.213   7.153  18.954  0.00  0.00    +0.000 A 
ATOM      2  C   UNL     1       1.814   6.906  20.276  0.00  0.00    +0.000 A 
ATOM      3  C   UNL     1       2.073   5.670  20.877  0.00  0.00    +0.000 A 
ATOM      4  C   UNL     1       2.752   4.670  20.180  0.00  0.00    +0.000 A 
ATOM      5  F   UNL     1       2.987   3.522  20.818  0.00  0.00    +0.000 F 
ATOM      6  C   UNL     1       3.176   4.899  18.887  0.00  0.00    +0.000 A 
ATOM      7  C   UNL     1       2.855   6.126  18.252  0.00  0.00    +0.000 A 
ENDROOT
BRANCH   1   9
ATOM      8  N   UNL     1       1.279   9.411  19.209  0.00  0.00    +0.000 N 
ATOM      9  C   UNL     1       1.980   8.530  18.398  0.00  0.00    +0.000 C 
ATOM     10  O   UNL     1       2.371   8.754  17.258  0.00  0.00    +0.000 OA
ATOM     11  H   UNL     1       1.043   9.112  20.144  0.00  0.00    +0.000 HD
BRANCH   8  16
ATOM     12  C   UNL     1       1.079  13.075  18.642  0.00  0.00    +0.000 A 
ATOM     13  C   UNL     1      -0.255  13.232  18.264  0.00  0.00    +0.000 A 
ATOM     14  C   UNL     1      -1.091  12.122  18.162  0.00  0.00    +0.000 A 
ATOM     15  C   UNL     1      -0.604  10.842  18.444  0.00  0.00    +0.000 A 
ATOM     16  C   UNL     1       0.725  10.664  18.838  0.00  0.00    +0.000 A 
ATOM     17  C   UNL     1       1.564  11.791  18.924  0.00  0.00    +0.000 A 
BRANCH  12  18
ATOM     18  O   UNL     1       1.785  14.244  18.715  0.00  0.00    +0.000 OA
BRANCH  18  20
ATOM     19  C   UNL     1       3.314  15.696  17.596  0.00  0.00    +0.000 C 
ATOM     20  C   UNL     1       3.067  14.279  18.090  0.00  0.00    +0.000 C 
ENDBRANCH  18  20
ENDBRANCH  12  18
ENDBRANCH   8  16
ENDBRANCH   1   9
BRANCH   6  21
ATOM     21  S   UNL     1       4.132   3.771  17.913  0.00  0.00    +0.000 S 
ATOM     22  O   UNL     1       4.990   3.126  18.892  0.00  0.00    +0.000 OA
ATOM     23  O   UNL     1       3.154   2.978  17.192  0.00  0.00    +0.000 OA
BRANCH  21  24
ATOM     24  N   UNL     1       5.128   4.562  16.759  0.00  0.00    +0.000 N 
BRANCH  24  25
ATOM     25  C   UNL     1       6.043   5.484  17.426  0.00  0.00    +0.000 A 
ATOM     26  C   UNL     1       6.322   6.744  16.887  0.00  0.00    +0.000 A 
ATOM     27  C   UNL     1       7.290   7.563  17.468  0.00  0.00    +0.000 A 
ATOM     28  C   UNL     1       8.005   7.118  18.578  0.00  0.00    +0.000 A 
ATOM     29  C   UNL     1       7.749   5.854  19.123  0.00  0.00    +0.000 A 
ATOM     30  C   UNL     1       8.552   5.357  20.291  0.00  0.00    +0.000 C 
ATOM     31  C   UNL     1       6.765   5.042  18.540  0.00  0.00    +0.000 A 
ENDBRANCH  24  25
BRANCH  24  32
ATOM     32  C   UNL     1       5.755   3.849  15.592  0.00  0.00    +0.000 C 
ATOM     33  C   UNL     1       5.500   4.407  14.205  0.00  0.00    +0.000 C 
ENDBRANCH  24  32
ENDBRANCH  21  24
ENDBRANCH   6  21
TORSDOF 8
ENDMDL
