MODEL 1
REMARK VINA RESULT:      -8.1      0.000      0.000
REMARK  Name = 
REMARK  5 active torsions:
REMARK  status: ('A' for Active; 'I' for Inactive)
REMARK    1  A    between atoms: C_3  and  C_4
REMARK    2  A    between atoms: C_4  and  C_5
REMARK    3  A    between atoms: C_16  and  C_17
REMARK    4  A    between atoms: N_24  and  C_25
REMARK    5  A    between atoms: C_25  and  C_26
REMARK                            x       y       z     vdW  Elec       q    Type
REMARK                         _______ _______ _______ _____ _____    ______ ____
ROOT
ATOM      1  O   UNL     1       1.555  11.362  18.859  0.00  0.00    +0.000 OA
ATOM      2  C   UNL     1       0.825  10.530  19.408  0.00  0.00    +0.000 C 
ATOM      3  C   UNL     1       1.435   9.161  19.746  0.00  0.00    +0.000 C 
ATOM      4  N   UNL     1       0.818   8.549  20.959  0.00  0.00    +0.000 NA
ATOM      5  C   UNL     1       1.354   9.183  22.173  0.00  0.00    +0.000 C 
ATOM      6  C   UNL     1       0.266   9.454  23.215  0.00  0.00    +0.000 C 
ATOM      7  C   UNL     1      -0.897  10.344  22.743  0.00  0.00    +0.000 C 
ATOM      8  C   UNL     1      -0.430  11.682  22.157  0.00  0.00    +0.000 C 
ATOM      9  C   UNL     1      -0.767  11.958  20.660  0.00  0.00    +0.000 C 
ATOM     10  N   UNL     1      -0.492  10.828  19.744  0.00  0.00    +0.000 N 
ATOM     11  H   UNL     1       1.100   7.565  20.978  0.00  0.00    +0.000 HD
ENDROOT
BRANCH   9  12
ATOM     12  C   UNL     1      -0.133  13.267  20.162  0.00  0.00    +0.000 A 
ATOM     13  C   UNL     1      -0.595  13.928  19.004  0.00  0.00    +0.000 A 
ATOM     14  C   UNL     1      -0.099  15.179  18.638  0.00  0.00    +0.000 A 
ATOM     15  C   UNL     1       0.863  15.790  19.429  0.00  0.00    +0.000 A 
ATOM     16 CL   UNL     1       1.434  17.357  19.011  0.00  0.00    +0.000 Cl
ATOM     17  C   UNL     1       1.344  15.153  20.574  0.00  0.00    +0.000 A 
ATOM     18  C   UNL     1       0.855  13.895  20.939  0.00  0.00    +0.000 A 
ENDBRANCH   9  12
BRANCH   3  19
ATOM     19  C   UNL     1       1.500   8.268  18.492  0.00  0.00    +0.000 C 
BRANCH  19  20
ATOM     20  C   UNL     1       2.683   7.320  18.510  0.00  0.00    +0.000 A 
ATOM     21  C   UNL     1       3.674   7.421  17.527  0.00  0.00    +0.000 A 
ATOM     22  C   UNL     1       4.702   6.480  17.461  0.00  0.00    +0.000 A 
ATOM     23  C   UNL     1       4.759   5.437  18.382  0.00  0.00    +0.000 A 
ATOM     24  C   UNL     1       3.815   5.361  19.403  0.00  0.00    +0.000 A 
ATOM     25  C   UNL     1       2.791   6.307  19.477  0.00  0.00    +0.000 A 
ENDBRANCH  19  20
ENDBRANCH   3  19
BRANCH  10  26
ATOM     26  C   UNL     1      -1.621   9.970  19.339  0.00  0.00    +0.000 C 
BRANCH  26  27
ATOM     27  C   UNL     1      -2.356  10.399  18.078  0.00  0.00    +0.000 A 
ATOM     28  C   UNL     1      -1.959   9.861  16.841  0.00  0.00    +0.000 A 
ATOM     29  C   UNL     1      -2.635  10.190  15.661  0.00  0.00    +0.000 A 
ATOM     30  C   UNL     1      -3.724  11.055  15.696  0.00  0.00    +0.000 A 
ATOM     31  C   UNL     1      -4.142  11.586  16.912  0.00  0.00    +0.000 A 
ATOM     32  C   UNL     1      -3.468  11.254  18.092  0.00  0.00    +0.000 A 
ENDBRANCH  26  27
ENDBRANCH  10  26
TORSDOF 5
ENDMDL
MODEL 2
REMARK VINA RESULT:      -8.0      0.197      1.240
REMARK  Name = 
REMARK  5 active torsions:
REMARK  status: ('A' for Active; 'I' for Inactive)
REMARK    1  A    between atoms: C_3  and  C_4
REMARK    2  A    between atoms: C_4  and  C_5
REMARK    3  A    between atoms: C_16  and  C_17
REMARK    4  A    between atoms: N_24  and  C_25
REMARK    5  A    between atoms: C_25  and  C_26
REMARK                            x       y       z     vdW  Elec       q    Type
REMARK                         _______ _______ _______ _____ _____    ______ ____
ROOT
ATOM      1  O   UNL     1       1.521  11.464  18.825  0.00  0.00    +0.000 OA
ATOM      2  C   UNL     1       0.819  10.600  19.362  0.00  0.00    +0.000 C 
ATOM      3  C   UNL     1       1.463   9.233  19.640  0.00  0.00    +0.000 C 
ATOM      4  N   UNL     1       0.886   8.570  20.846  0.00  0.00    +0.000 NA
ATOM      5  C   UNL     1       1.438   9.173  22.067  0.00  0.00    +0.000 C 
ATOM      6  C   UNL     1       0.369   9.388  23.143  0.00  0.00    +0.000 C 
ATOM      7  C   UNL     1      -0.820  10.270  22.727  0.00  0.00    +0.000 C 
ATOM      8  C   UNL     1      -0.392  11.636  22.176  0.00  0.00    +0.000 C 
ATOM      9  C   UNL     1      -0.769  11.955  20.697  0.00  0.00    +0.000 C 
ATOM     10  N   UNL     1      -0.495  10.861  19.738  0.00  0.00    +0.000 N 
ATOM     11  H   UNL     1       1.187   7.591  20.825  0.00  0.00    +0.000 HD
ENDROOT
BRANCH   9  12
ATOM     12  C   UNL     1      -0.172  13.292  20.229  0.00  0.00    +0.000 A 
ATOM     13  C   UNL     1       0.932  13.885  20.878  0.00  0.00    +0.000 A 
ATOM     14  C   UNL     1       1.543  15.029  20.366  0.00  0.00    +0.000 A 
ATOM     15  C   UNL     1       1.064  15.592  19.193  0.00  0.00    +0.000 A 
ATOM     16 CL   UNL     1       1.852  16.969  18.530  0.00  0.00    +0.000 Cl
ATOM     17  C   UNL     1      -0.033  15.031  18.537  0.00  0.00    +0.000 A 
ATOM     18  C   UNL     1      -0.654  13.890  19.052  0.00  0.00    +0.000 A 
ENDBRANCH   9  12
BRANCH   3  19
ATOM     19  C   UNL     1       1.515   8.384  18.356  0.00  0.00    +0.000 C 
BRANCH  19  20
ATOM     20  C   UNL     1       2.630   7.357  18.379  0.00  0.00    +0.000 A 
ATOM     21  C   UNL     1       2.615   6.331  19.332  0.00  0.00    +0.000 A 
ATOM     22  C   UNL     1       3.694   5.453  19.440  0.00  0.00    +0.000 A 
ATOM     23  C   UNL     1       4.792   5.581  18.593  0.00  0.00    +0.000 A 
ATOM     24  C   UNL     1       4.791   6.557  17.599  0.00  0.00    +0.000 A 
ATOM     25  C   UNL     1       3.708   7.430  17.482  0.00  0.00    +0.000 A 
ENDBRANCH  19  20
ENDBRANCH   3  19
BRANCH  10  26
ATOM     26  C   UNL     1      -1.616   9.996  19.330  0.00  0.00    +0.000 C 
BRANCH  26  27
ATOM     27  C   UNL     1      -2.358  10.426  18.073  0.00  0.00    +0.000 A 
ATOM     28  C   UNL     1      -1.948   9.913  16.830  0.00  0.00    +0.000 A 
ATOM     29  C   UNL     1      -2.629  10.243  15.653  0.00  0.00    +0.000 A 
ATOM     30  C   UNL     1      -3.737  11.084  15.698  0.00  0.00    +0.000 A 
ATOM     31  C   UNL     1      -4.168  11.590  16.920  0.00  0.00    +0.000 A 
ATOM     32  C   UNL     1      -3.488  11.256  18.097  0.00  0.00    +0.000 A 
ENDBRANCH  26  27
ENDBRANCH  10  26
TORSDOF 5
ENDMDL
MODEL 3
REMARK VINA RESULT:      -8.0      0.112      1.228
REMARK  Name = 
REMARK  5 active torsions:
REMARK  status: ('A' for Active; 'I' for Inactive)
REMARK    1  A    between atoms: C_3  and  C_4
REMARK    2  A    between atoms: C_4  and  C_5
REMARK    3  A    between atoms: C_16  and  C_17
REMARK    4  A    between atoms: N_24  and  C_25
REMARK    5  A    between atoms: C_25  and  C_26
REMARK                            x       y       z     vdW  Elec       q    Type
REMARK                         _______ _______ _______ _____ _____    ______ ____
ROOT
ATOM      1  O   UNL     1       1.534  11.320  18.784  0.00  0.00    +0.000 OA
ATOM      2  C   UNL     1       0.820  10.486  19.352  0.00  0.00    +0.000 C 
ATOM      3  C   UNL     1       1.445   9.121  19.680  0.00  0.00    +0.000 C 
ATOM      4  N   UNL     1       0.859   8.510  20.909  0.00  0.00    +0.000 NA
ATOM      5  C   UNL     1       1.419   9.150  22.108  0.00  0.00    +0.000 C 
ATOM      6  C   UNL     1       0.354   9.418  23.175  0.00  0.00    +0.000 C 
ATOM      7  C   UNL     1      -0.823  10.301  22.726  0.00  0.00    +0.000 C 
ATOM      8  C   UNL     1      -0.377  11.640  22.126  0.00  0.00    +0.000 C 
ATOM      9  C   UNL     1      -0.750  11.910  20.636  0.00  0.00    +0.000 C 
ATOM     10  N   UNL     1      -0.490  10.778  19.718  0.00  0.00    +0.000 N 
ATOM     11  H   UNL     1       1.146   7.528  20.924  0.00  0.00    +0.000 HD
ENDROOT
BRANCH   9  12
ATOM     12  C   UNL     1      -0.134  13.221  20.120  0.00  0.00    +0.000 A 
ATOM     13  C   UNL     1      -0.622  13.873  18.968  0.00  0.00    +0.000 A 
ATOM     14  C   UNL     1      -0.141  15.125  18.587  0.00  0.00    +0.000 A 
ATOM     15  C   UNL     1       0.830  15.746  19.357  0.00  0.00    +0.000 A 
ATOM     16 CL   UNL     1       1.383  17.315  18.920  0.00  0.00    +0.000 Cl
ATOM     17  C   UNL     1       1.337  15.119  20.496  0.00  0.00    +0.000 A 
ATOM     18  C   UNL     1       0.864  13.860  20.877  0.00  0.00    +0.000 A 
ENDBRANCH   9  12
BRANCH   3  19
ATOM     19  C   UNL     1       1.486   8.225  18.428  0.00  0.00    +0.000 C 
BRANCH  19  20
ATOM     20  C   UNL     1       2.633   7.235  18.454  0.00  0.00    +0.000 A 
ATOM     21  C   UNL     1       2.686   6.253  19.451  0.00  0.00    +0.000 A 
ATOM     22  C   UNL     1       3.796   5.414  19.557  0.00  0.00    +0.000 A 
ATOM     23  C   UNL     1       4.858   5.538  18.665  0.00  0.00    +0.000 A 
ATOM     24  C   UNL     1       4.790   6.469  17.631  0.00  0.00    +0.000 A 
ATOM     25  C   UNL     1       3.676   7.302  17.516  0.00  0.00    +0.000 A 
ENDBRANCH  19  20
ENDBRANCH   3  19
BRANCH  10  26
ATOM     26  C   UNL     1      -1.623   9.914  19.341  0.00  0.00    +0.000 C 
BRANCH  26  27
ATOM     27  C   UNL     1      -2.352  10.301  18.064  0.00  0.00    +0.000 A 
ATOM     28  C   UNL     1      -3.453  11.172  18.144  0.00  0.00    +0.000 A 
ATOM     29  C   UNL     1      -4.126  11.594  16.991  0.00  0.00    +0.000 A 
ATOM     30  C   UNL     1      -3.705  11.160  15.738  0.00  0.00    +0.000 A 
ATOM     31  C   UNL     1      -2.609  10.311  15.636  0.00  0.00    +0.000 A 
ATOM     32  C   UNL     1      -1.935   9.893  16.789  0.00  0.00    +0.000 A 
ENDBRANCH  26  27
ENDBRANCH  10  26
TORSDOF 5
ENDMDL
MODEL 4
REMARK VINA RESULT:      -7.9      0.197      1.239
REMARK  Name = 
REMARK  5 active torsions:
REMARK  status: ('A' for Active; 'I' for Inactive)
REMARK    1  A    between atoms: C_3  and  C_4
REMARK    2  A    between atoms: C_4  and  C_5
REMARK    3  A    between atoms: C_16  and  C_17
REMARK    4  A    between atoms: N_24  and  C_25
REMARK    5  A    between atoms: C_25  and  C_26
REMARK                            x       y       z     vdW  Elec       q    Type
REMARK                         _______ _______ _______ _____ _____    ______ ____
ROOT
ATOM      1  O   UNL     1       1.436  11.415  18.887  0.00  0.00    +0.000 OA
ATOM      2  C   UNL     1       0.731  10.567  19.445  0.00  0.00    +0.000 C 
ATOM      3  C   UNL     1       1.370   9.205  19.757  0.00  0.00    +0.000 C 
ATOM      4  N   UNL     1       0.790   8.574  20.979  0.00  0.00    +0.000 NA
ATOM      5  C   UNL     1       1.344   9.205  22.186  0.00  0.00    +0.000 C 
ATOM      6  C   UNL     1       0.276   9.450  23.255  0.00  0.00    +0.000 C 
ATOM      7  C   UNL     1      -0.911  10.326  22.816  0.00  0.00    +0.000 C 
ATOM      8  C   UNL     1      -0.478  11.676  22.232  0.00  0.00    +0.000 C 
ATOM      9  C   UNL     1      -0.853  11.959  20.746  0.00  0.00    +0.000 C 
ATOM     10  N   UNL     1      -0.583  10.841  19.814  0.00  0.00    +0.000 N 
ATOM     11  H   UNL     1       1.087   7.594  20.983  0.00  0.00    +0.000 HD
ENDROOT
BRANCH   9  12
ATOM     12  C   UNL     1      -0.251  13.283  20.245  0.00  0.00    +0.000 A 
ATOM     13  C   UNL     1       0.855  13.887  20.879  0.00  0.00    +0.000 A 
ATOM     14  C   UNL     1       1.470  15.016  20.339  0.00  0.00    +0.000 A 
ATOM     15  C   UNL     1       0.993  15.552  19.153  0.00  0.00    +0.000 A 
ATOM     16 CL   UNL     1       1.786  16.909  18.456  0.00  0.00    +0.000 Cl
ATOM     17  C   UNL     1      -0.107  14.979  18.511  0.00  0.00    +0.000 A 
ATOM     18  C   UNL     1      -0.732  13.853  19.054  0.00  0.00    +0.000 A 
ENDBRANCH   9  12
BRANCH   3  19
ATOM     19  C   UNL     1       1.420   8.324  18.495  0.00  0.00    +0.000 C 
BRANCH  19  20
ATOM     20  C   UNL     1       2.605   7.379  18.487  0.00  0.00    +0.000 A 
ATOM     21  C   UNL     1       3.606   7.521  17.519  0.00  0.00    +0.000 A 
ATOM     22  C   UNL     1       4.637   6.585  17.428  0.00  0.00    +0.000 A 
ATOM     23  C   UNL     1       4.687   5.506  18.307  0.00  0.00    +0.000 A 
ATOM     24  C   UNL     1       3.733   5.388  19.315  0.00  0.00    +0.000 A 
ATOM     25  C   UNL     1       2.706   6.328  19.415  0.00  0.00    +0.000 A 
ENDBRANCH  19  20
ENDBRANCH   3  19
BRANCH  10  26
ATOM     26  C   UNL     1      -1.707   9.970  19.427  0.00  0.00    +0.000 C 
BRANCH  26  27
ATOM     27  C   UNL     1      -2.388  10.317  18.112  0.00  0.00    +0.000 A 
ATOM     28  C   UNL     1      -3.479  11.204  18.123  0.00  0.00    +0.000 A 
ATOM     29  C   UNL     1      -4.107  11.589  16.933  0.00  0.00    +0.000 A 
ATOM     30  C   UNL     1      -3.652  11.103  15.711  0.00  0.00    +0.000 A 
ATOM     31  C   UNL     1      -2.564  10.237  15.679  0.00  0.00    +0.000 A 
ATOM     32  C   UNL     1      -1.934   9.855  16.868  0.00  0.00    +0.000 A 
ENDBRANCH  26  27
ENDBRANCH  10  26
TORSDOF 5
ENDMDL
MODEL 5
REMARK VINA RESULT:      -7.5      2.749      6.913
REMARK  Name = 
REMARK  5 active torsions:
REMARK  status: ('A' for Active; 'I' for Inactive)
REMARK    1  A    between atoms: C_3  and  C_4
REMARK    2  A    between atoms: C_4  and  C_5
REMARK    3  A    between atoms: C_16  and  C_17
REMARK    4  A    between atoms: N_24  and  C_25
REMARK    5  A    between atoms: C_25  and  C_26
REMARK                            x       y       z     vdW  Elec       q    Type
REMARK                         _______ _______ _______ _____ _____    ______ ____
ROOT
ATOM      1  O   UNL     1      -0.722  13.194  17.927  0.00  0.00    +0.000 OA
ATOM      2  C   UNL     1      -0.752  13.221  19.163  0.00  0.00    +0.000 C 
ATOM      3  C   UNL     1      -0.328  14.525  19.855  0.00  0.00    +0.000 C 
ATOM      4  N   UNL     1      -1.040  14.737  21.150  0.00  0.00    +0.000 NA
ATOM      5  C   UNL     1      -2.408  15.215  20.901  0.00  0.00    +0.000 C 
ATOM      6  C   UNL     1      -3.434  14.539  21.815  0.00  0.00    +0.000 C 
ATOM      7  C   UNL     1      -3.491  13.005  21.725  0.00  0.00    +0.000 C 
ATOM      8  C   UNL     1      -3.693  12.493  20.294  0.00  0.00    +0.000 C 
ATOM      9  C   UNL     1      -2.560  11.610  19.689  0.00  0.00    +0.000 C 
ATOM     10  N   UNL     1      -1.190  12.127  19.904  0.00  0.00    +0.000 N 
ATOM     11  H   UNL     1      -0.543  15.479  21.650  0.00  0.00    +0.000 HD
ENDROOT
BRANCH   9  12
ATOM     12  C   UNL     1      -2.822  11.273  18.212  0.00  0.00    +0.000 A 
ATOM     13  C   UNL     1      -2.026  10.348  17.504  0.00  0.00    +0.000 A 
ATOM     14  C   UNL     1      -2.354   9.956  16.207  0.00  0.00    +0.000 A 
ATOM     15  C   UNL     1      -3.487  10.478  15.601  0.00  0.00    +0.000 A 
ATOM     16 CL   UNL     1      -3.924   9.953  14.024  0.00  0.00    +0.000 Cl
ATOM     17  C   UNL     1      -4.286  11.403  16.276  0.00  0.00    +0.000 A 
ATOM     18  C   UNL     1      -3.956  11.805  17.574  0.00  0.00    +0.000 A 
ENDBRANCH   9  12
BRANCH   3  19
ATOM     19  C   UNL     1       1.207  14.646  19.896  0.00  0.00    +0.000 C 
BRANCH  19  20
ATOM     20  C   UNL     1       1.746  15.612  18.859  0.00  0.00    +0.000 A 
ATOM     21  C   UNL     1       1.058  16.800  18.587  0.00  0.00    +0.000 A 
ATOM     22  C   UNL     1       1.476  17.637  17.552  0.00  0.00    +0.000 A 
ATOM     23  C   UNL     1       2.591  17.305  16.787  0.00  0.00    +0.000 A 
ATOM     24  C   UNL     1       3.322  16.158  17.088  0.00  0.00    +0.000 A 
ATOM     25  C   UNL     1       2.911  15.324  18.130  0.00  0.00    +0.000 A 
ENDBRANCH  19  20
ENDBRANCH   3  19
BRANCH  10  26
ATOM     26  C   UNL     1      -0.391  11.551  21.001  0.00  0.00    +0.000 C 
BRANCH  26  27
ATOM     27  C   UNL     1       0.325  10.248  20.681  0.00  0.00    +0.000 A 
ATOM     28  C   UNL     1       0.925  10.091  19.419  0.00  0.00    +0.000 A 
ATOM     29  C   UNL     1       1.635   8.929  19.097  0.00  0.00    +0.000 A 
ATOM     30  C   UNL     1       1.765   7.906  20.032  0.00  0.00    +0.000 A 
ATOM     31  C   UNL     1       1.192   8.049  21.291  0.00  0.00    +0.000 A 
ATOM     32  C   UNL     1       0.486   9.213  21.614  0.00  0.00    +0.000 A 
ENDBRANCH  26  27
ENDBRANCH  10  26
TORSDOF 5
ENDMDL
MODEL 6
REMARK VINA RESULT:      -7.5      2.752      6.878
REMARK  Name = 
REMARK  5 active torsions:
REMARK  status: ('A' for Active; 'I' for Inactive)
REMARK    1  A    between atoms: C_3  and  C_4
REMARK    2  A    between atoms: C_4  and  C_5
REMARK    3  A    between atoms: C_16  and  C_17
REMARK    4  A    between atoms: N_24  and  C_25
REMARK    5  A    between atoms: C_25  and  C_26
REMARK                            x       y       z     vdW  Elec       q    Type
REMARK                         _______ _______ _______ _____ _____    ______ ____
ROOT
ATOM      1  O   UNL     1      -0.762  13.180  17.956  0.00  0.00    +0.000 OA
ATOM      2  C   UNL     1      -0.805  13.197  19.191  0.00  0.00    +0.000 C 
ATOM      3  C   UNL     1      -0.391  14.498  19.898  0.00  0.00    +0.000 C 
ATOM      4  N   UNL     1      -1.118  14.698  21.186  0.00  0.00    +0.000 NA
ATOM      5  C   UNL     1      -2.485  15.173  20.927  0.00  0.00    +0.000 C 
ATOM      6  C   UNL     1      -3.518  14.488  21.825  0.00  0.00    +0.000 C 
ATOM      7  C   UNL     1      -3.570  12.954  21.723  0.00  0.00    +0.000 C 
ATOM      8  C   UNL     1      -3.755  12.453  20.286  0.00  0.00    +0.000 C 
ATOM      9  C   UNL     1      -2.613  11.577  19.687  0.00  0.00    +0.000 C 
ATOM     10  N   UNL     1      -1.247  12.097  19.919  0.00  0.00    +0.000 N 
ATOM     11  H   UNL     1      -0.628  15.438  21.697  0.00  0.00    +0.000 HD
ENDROOT
BRANCH   9  12
ATOM     12  C   UNL     1      -2.859  11.251  18.204  0.00  0.00    +0.000 A 
ATOM     13  C   UNL     1      -2.054  10.331  17.498  0.00  0.00    +0.000 A 
ATOM     14  C   UNL     1      -2.368   9.948  16.195  0.00  0.00    +0.000 A 
ATOM     15  C   UNL     1      -3.495  10.474  15.581  0.00  0.00    +0.000 A 
ATOM     16 CL   UNL     1      -3.914   9.959  13.995  0.00  0.00    +0.000 Cl
ATOM     17  C   UNL     1      -4.302  11.393  16.254  0.00  0.00    +0.000 A 
ATOM     18  C   UNL     1      -3.986  11.786  17.558  0.00  0.00    +0.000 A 
ENDBRANCH   9  12
BRANCH   3  19
ATOM     19  C   UNL     1       1.143  14.622  19.956  0.00  0.00    +0.000 C 
BRANCH  19  20
ATOM     20  C   UNL     1       1.703  15.470  18.830  0.00  0.00    +0.000 A 
ATOM     21  C   UNL     1       2.852  15.054  18.148  0.00  0.00    +0.000 A 
ATOM     22  C   UNL     1       3.446  15.882  17.194  0.00  0.00    +0.000 A 
ATOM     23  C   UNL     1       2.893  17.127  16.904  0.00  0.00    +0.000 A 
ATOM     24  C   UNL     1       1.715  17.526  17.530  0.00  0.00    +0.000 A 
ATOM     25  C   UNL     1       1.113  16.695  18.477  0.00  0.00    +0.000 A 
ENDBRANCH  19  20
ENDBRANCH   3  19
BRANCH  10  26
ATOM     26  C   UNL     1      -0.458  11.515  21.020  0.00  0.00    +0.000 C 
BRANCH  26  27
ATOM     27  C   UNL     1       0.361  10.283  20.666  0.00  0.00    +0.000 A 
ATOM     28  C   UNL     1       0.499   9.259  21.620  0.00  0.00    +0.000 A 
ATOM     29  C   UNL     1       1.203   8.086  21.322  0.00  0.00    +0.000 A 
ATOM     30  C   UNL     1       1.774   7.912  20.065  0.00  0.00    +0.000 A 
ATOM     31  C   UNL     1       1.634   8.907  19.103  0.00  0.00    +0.000 A 
ATOM     32  C   UNL     1       0.927  10.077  19.399  0.00  0.00    +0.000 A 
ENDBRANCH  26  27
ENDBRANCH  10  26
TORSDOF 5
ENDMDL
MODEL 7
REMARK VINA RESULT:      -7.4      2.737      7.053
REMARK  Name = 
REMARK  5 active torsions:
REMARK  status: ('A' for Active; 'I' for Inactive)
REMARK    1  A    between atoms: C_3  and  C_4
REMARK    2  A    between atoms: C_4  and  C_5
REMARK    3  A    between atoms: C_16  and  C_17
REMARK    4  A    between atoms: N_24  and  C_25
REMARK    5  A    between atoms: C_25  and  C_26
REMARK                            x       y       z     vdW  Elec       q    Type
REMARK                         _______ _______ _______ _____ _____    ______ ____
ROOT
ATOM      1  O   UNL     1      -0.865  13.124  17.841  0.00  0.00    +0.000 OA
ATOM      2  C   UNL     1      -0.805  13.244  19.070  0.00  0.00    +0.000 C 
ATOM      3  C   UNL     1      -0.390  14.613  19.630  0.00  0.00    +0.000 C 
ATOM      4  N   UNL     1      -1.013  14.895  20.957  0.00  0.00    +0.000 NA
ATOM      5  C   UNL     1      -2.416  15.297  20.781  0.00  0.00    +0.000 C 
ATOM      6  C   UNL     1      -3.339  14.653  21.819  0.00  0.00    +0.000 C 
ATOM      7  C   UNL     1      -3.333  13.115  21.846  0.00  0.00    +0.000 C 
ATOM      8  C   UNL     1      -3.617  12.488  20.476  0.00  0.00    +0.000 C 
ATOM      9  C   UNL     1      -2.492  11.607  19.852  0.00  0.00    +0.000 C 
ATOM     10  N   UNL     1      -1.135  12.194  19.921  0.00  0.00    +0.000 N 
ATOM     11  H   UNL     1      -0.515  15.693  21.362  0.00  0.00    +0.000 HD
ENDROOT
BRANCH   9  12
ATOM     12  C   UNL     1      -2.848  11.148  18.428  0.00  0.00    +0.000 A 
ATOM     13  C   UNL     1      -3.911  11.725  17.700  0.00  0.00    +0.000 A 
ATOM     14  C   UNL     1      -4.139  11.391  16.366  0.00  0.00    +0.000 A 
ATOM     15  C   UNL     1      -3.304  10.480  15.738  0.00  0.00    +0.000 A 
ATOM     16 CL   UNL     1      -3.549  10.110  14.077  0.00  0.00    +0.000 Cl
ATOM     17  C   UNL     1      -2.251   9.887  16.438  0.00  0.00    +0.000 A 
ATOM     18  C   UNL     1      -2.024  10.213  17.778  0.00  0.00    +0.000 A 
ENDBRANCH   9  12
BRANCH   3  19
ATOM     19  C   UNL     1       1.137  14.798  19.543  0.00  0.00    +0.000 C 
BRANCH  19  20
ATOM     20  C   UNL     1       1.538  15.903  18.586  0.00  0.00    +0.000 A 
ATOM     21  C   UNL     1       0.650  16.950  18.315  0.00  0.00    +0.000 A 
ATOM     22  C   UNL     1       0.959  17.906  17.347  0.00  0.00    +0.000 A 
ATOM     23  C   UNL     1       2.162  17.835  16.648  0.00  0.00    +0.000 A 
ATOM     24  C   UNL     1       3.082  16.835  16.953  0.00  0.00    +0.000 A 
ATOM     25  C   UNL     1       2.780  15.883  17.928  0.00  0.00    +0.000 A 
ENDBRANCH  19  20
ENDBRANCH   3  19
BRANCH  10  26
ATOM     26  C   UNL     1      -0.232  11.736  20.992  0.00  0.00    +0.000 C 
BRANCH  26  27
ATOM     27  C   UNL     1       0.476  10.414  20.737  0.00  0.00    +0.000 A 
ATOM     28  C   UNL     1       0.554   9.471  21.778  0.00  0.00    +0.000 A 
ATOM     29  C   UNL     1       1.154   8.222  21.576  0.00  0.00    +0.000 A 
ATOM     30  C   UNL     1       1.680   7.891  20.331  0.00  0.00    +0.000 A 
ATOM     31  C   UNL     1       1.599   8.805  19.285  0.00  0.00    +0.000 A 
ATOM     32  C   UNL     1       0.995  10.051  19.486  0.00  0.00    +0.000 A 
ENDBRANCH  26  27
ENDBRANCH  10  26
TORSDOF 5
ENDMDL
MODEL 8
REMARK VINA RESULT:      -7.2      3.267      7.376
REMARK  Name = 
REMARK  5 active torsions:
REMARK  status: ('A' for Active; 'I' for Inactive)
REMARK    1  A    between atoms: C_3  and  C_4
REMARK    2  A    between atoms: C_4  and  C_5
REMARK    3  A    between atoms: C_16  and  C_17
REMARK    4  A    between atoms: N_24  and  C_25
REMARK    5  A    between atoms: C_25  and  C_26
REMARK                            x       y       z     vdW  Elec       q    Type
REMARK                         _______ _______ _______ _____ _____    ______ ____
ROOT
ATOM      1  O   UNL     1      -0.774  13.804  18.361  0.00  0.00    +0.000 OA
ATOM      2  C   UNL     1      -0.962  14.049  19.558  0.00  0.00    +0.000 C 
ATOM      3  C   UNL     1      -0.782  15.503  20.021  0.00  0.00    +0.000 C 
ATOM      4  N   UNL     1      -1.671  15.845  21.170  0.00  0.00    +0.000 NA
ATOM      5  C   UNL     1      -3.043  16.077  20.696  0.00  0.00    +0.000 C 
ATOM      6  C   UNL     1      -4.090  15.444  21.616  0.00  0.00    +0.000 C 
ATOM      7  C   UNL     1      -3.958  13.925  21.822  0.00  0.00    +0.000 C 
ATOM      8  C   UNL     1      -3.918  13.140  20.505  0.00  0.00    +0.000 C 
ATOM      9  C   UNL     1      -2.622  12.327  20.203  0.00  0.00    +0.000 C 
ATOM     10  N   UNL     1      -1.359  13.058  20.450  0.00  0.00    +0.000 N 
ATOM     11  H   UNL     1      -1.331  16.727  21.564  0.00  0.00    +0.000 HD
ENDROOT
BRANCH   9  12
ATOM     12  C   UNL     1      -2.656  11.696  18.801  0.00  0.00    +0.000 A 
ATOM     13  C   UNL     1      -1.688  10.760  18.380  0.00  0.00    +0.000 A 
ATOM     14  C   UNL     1      -1.805  10.100  17.157  0.00  0.00    +0.000 A 
ATOM     15  C   UNL     1      -2.895  10.361  16.341  0.00  0.00    +0.000 A 
ATOM     16 CL   UNL     1      -3.070   9.506  14.860  0.00  0.00    +0.000 Cl
ATOM     17  C   UNL     1      -3.862  11.290  16.730  0.00  0.00    +0.000 A 
ATOM     18  C   UNL     1      -3.744  11.960  17.951  0.00  0.00    +0.000 A 
ENDBRANCH   9  12
BRANCH   3  19
ATOM     19  C   UNL     1       0.711  15.840  20.193  0.00  0.00    +0.000 C 
BRANCH  19  20
ATOM     20  C   UNL     1       1.300  16.523  18.975  0.00  0.00    +0.000 A 
ATOM     21  C   UNL     1       0.575  17.521  18.314  0.00  0.00    +0.000 A 
ATOM     22  C   UNL     1       1.053  18.071  17.125  0.00  0.00    +0.000 A 
ATOM     23  C   UNL     1       2.265  17.641  16.589  0.00  0.00    +0.000 A 
ATOM     24  C   UNL     1       3.027  16.694  17.269  0.00  0.00    +0.000 A 
ATOM     25  C   UNL     1       2.555  16.149  18.465  0.00  0.00    +0.000 A 
ENDBRANCH  19  20
ENDBRANCH   3  19
BRANCH  10  26
ATOM     26  C   UNL     1      -0.644  12.806  21.714  0.00  0.00    +0.000 C 
BRANCH  26  27
ATOM     27  C   UNL     1      -0.166  11.377  21.927  0.00  0.00    +0.000 A 
ATOM     28  C   UNL     1      -0.715  10.625  22.981  0.00  0.00    +0.000 A 
ATOM     29  C   UNL     1      -0.341   9.292  23.187  0.00  0.00    +0.000 A 
ATOM     30  C   UNL     1       0.580   8.684  22.340  0.00  0.00    +0.000 A 
ATOM     31  C   UNL     1       1.122   9.407  21.282  0.00  0.00    +0.000 A 
ATOM     32  C   UNL     1       0.745  10.738  21.074  0.00  0.00    +0.000 A 
ENDBRANCH  26  27
ENDBRANCH  10  26
TORSDOF 5
ENDMDL
MODEL 9
REMARK VINA RESULT:      -7.1      3.212      7.166
REMARK  Name = 
REMARK  5 active torsions:
REMARK  status: ('A' for Active; 'I' for Inactive)
REMARK    1  A    between atoms: C_3  and  C_4
REMARK    2  A    between atoms: C_4  and  C_5
REMARK    3  A    between atoms: C_16  and  C_17
REMARK    4  A    between atoms: N_24  and  C_25
REMARK    5  A    between atoms: C_25  and  C_26
REMARK                            x       y       z     vdW  Elec       q    Type
REMARK                         _______ _______ _______ _____ _____    ______ ____
ROOT
ATOM      1  O   UNL     1      -0.938  13.552  18.363  0.00  0.00    +0.000 OA
ATOM      2  C   UNL     1      -1.125  13.860  19.545  0.00  0.00    +0.000 C 
ATOM      3  C   UNL     1      -0.834  15.311  19.956  0.00  0.00    +0.000 C 
ATOM      4  N   UNL     1      -1.711  15.771  21.073  0.00  0.00    +0.000 NA
ATOM      5  C   UNL     1      -3.051  16.095  20.563  0.00  0.00    +0.000 C 
ATOM      6  C   UNL     1      -4.162  15.586  21.485  0.00  0.00    +0.000 C 
ATOM      7  C   UNL     1      -4.158  14.071  21.753  0.00  0.00    +0.000 C 
ATOM      8  C   UNL     1      -4.161  13.233  20.468  0.00  0.00    +0.000 C 
ATOM      9  C   UNL     1      -2.932  12.305  20.224  0.00  0.00    +0.000 C 
ATOM     10  N   UNL     1      -1.617  12.941  20.467  0.00  0.00    +0.000 N 
ATOM     11  H   UNL     1      -1.306  16.637  21.439  0.00  0.00    +0.000 HD
ENDROOT
BRANCH   9  12
ATOM     12  C   UNL     1      -2.994  11.623  18.847  0.00  0.00    +0.000 A 
ATOM     13  C   UNL     1      -3.988  11.944  17.898  0.00  0.00    +0.000 A 
ATOM     14  C   UNL     1      -3.955  11.414  16.609  0.00  0.00    +0.000 A 
ATOM     15  C   UNL     1      -2.924  10.561  16.248  0.00  0.00    +0.000 A 
ATOM     16 CL   UNL     1      -2.851   9.952  14.641  0.00  0.00    +0.000 Cl
ATOM     17  C   UNL     1      -1.934  10.219  17.170  0.00  0.00    +0.000 A 
ATOM     18  C   UNL     1      -1.968  10.742  18.466  0.00  0.00    +0.000 A 
ENDBRANCH   9  12
BRANCH   3  19
ATOM     19  C   UNL     1       0.679  15.532  20.144  0.00  0.00    +0.000 C 
BRANCH  19  20
ATOM     20  C   UNL     1       1.345  16.103  18.908  0.00  0.00    +0.000 A 
ATOM     21  C   UNL     1       2.545  15.552  18.443  0.00  0.00    +0.000 A 
ATOM     22  C   UNL     1       3.228  16.145  17.381  0.00  0.00    +0.000 A 
ATOM     23  C   UNL     1       2.717  17.284  16.765  0.00  0.00    +0.000 A 
ATOM     24  C   UNL     1       1.493  17.805  17.176  0.00  0.00    +0.000 A 
ATOM     25  C   UNL     1       0.802  17.209  18.232  0.00  0.00    +0.000 A 
ENDBRANCH  19  20
ENDBRANCH   3  19
BRANCH  10  26
ATOM     26  C   UNL     1      -0.946  12.682  21.754  0.00  0.00    +0.000 C 
BRANCH  26  27
ATOM     27  C   UNL     1      -0.369  11.285  21.927  0.00  0.00    +0.000 A 
ATOM     28  C   UNL     1       0.558  10.808  20.983  0.00  0.00    +0.000 A 
ATOM     29  C   UNL     1       1.152   9.549  21.127  0.00  0.00    +0.000 A 
ATOM     30  C   UNL     1       0.835   8.747  22.219  0.00  0.00    +0.000 A 
ATOM     31  C   UNL     1      -0.068   9.207  23.172  0.00  0.00    +0.000 A 
ATOM     32  C   UNL     1      -0.657  10.468  23.030  0.00  0.00    +0.000 A 
ENDBRANCH  26  27
ENDBRANCH  10  26
TORSDOF 5
ENDMDL
