MODEL 1
REMARK VINA RESULT:      -9.0      0.000      0.000
REMARK  Name = 
REMARK  8 active torsions:
REMARK  status: ('A' for Active; 'I' for Inactive)
REMARK    1  A    between atoms: C_1  and  S_2
REMARK    2  A    between atoms: S_2  and  C_3
REMARK    3  A    between atoms: C_6  and  C_7
REMARK    4  A    between atoms: C_7  and  C_8
REMARK    5  A    between atoms: C_8  and  N_9
REMARK    6  A    between atoms: C_10  and  C_12
REMARK    7  A    between atoms: N_16  and  S_17
REMARK    8  A    between atoms: S_17  and  N_20
REMARK                            x       y       z     vdW  Elec       q    Type
REMARK                         _______ _______ _______ _____ _____    ______ ____
ROOT
ATOM      1  C   UNL     1       7.339   5.552  18.124  0.00  0.00    +0.000 C 
ATOM      2  C   UNL     1       7.595   4.567  16.982  0.00  0.00    +0.000 C 
ATOM      3  C   UNL     1       6.384   4.424  16.061  0.00  0.00    +0.000 C 
ATOM      4  C   UNL     1       5.117   4.089  16.855  0.00  0.00    +0.000 C 
ATOM      5  N   UNL     1       4.848   5.159  17.874  0.00  0.00    +0.000 NA
ATOM      6  C   UNL     1       6.008   5.259  18.829  0.00  0.00    +0.000 C 
ENDROOT
BRANCH   1   8
ATOM      7  N   UNL     1       8.291   7.812  18.319  0.00  0.00    +0.000 N 
ATOM      8  C   UNL     1       7.394   7.005  17.647  0.00  0.00    +0.000 C 
ATOM      9  O   UNL     1       6.692   7.436  16.742  0.00  0.00    +0.000 OA
ATOM     10  H   UNL     1       8.837   7.444  19.083  0.00  0.00    +0.000 HD
BRANCH   7  11
ATOM     11  C   UNL     1       8.294   9.250  18.072  0.00  0.00    +0.000 C 
BRANCH  11  12
ATOM     12  C   UNL     1       9.137  10.022  19.087  0.00  0.00    +0.000 C 
BRANCH  12  16
ATOM     13  C   UNL     1      10.569  13.812  17.563  0.00  0.00    +0.000 A 
ATOM     14  C   UNL     1      11.315  12.645  17.369  0.00  0.00    +0.000 A 
ATOM     15  C   UNL     1      10.845  11.417  17.854  0.00  0.00    +0.000 A 
ATOM     16  C   UNL     1       9.625  11.341  18.536  0.00  0.00    +0.000 A 
ATOM     17  C   UNL     1       8.887  12.518  18.734  0.00  0.00    +0.000 A 
ATOM     18  C   UNL     1       9.361  13.741  18.255  0.00  0.00    +0.000 A 
BRANCH  13  20
ATOM     19  C   UNL     1      12.238  15.839  18.389  0.00  0.00    +0.000 C 
ATOM     20  S   UNL     1      11.167  15.395  16.996  0.00  0.00    +0.000 S 
ENDBRANCH  13  20
ENDBRANCH  12  16
ENDBRANCH  11  12
ENDBRANCH   7  11
ENDBRANCH   1   8
BRANCH   5  21
ATOM     21  S   UNL     1       3.358   4.992  18.703  0.00  0.00    +0.000 S 
ATOM     22  O   UNL     1       3.535   5.538  20.032  0.00  0.00    +0.000 OA
ATOM     23  O   UNL     1       2.313   5.504  17.842  0.00  0.00    +0.000 OA
BRANCH  21  24
ATOM     24  N   UNL     1       3.133   3.315  18.843  0.00  0.00    +0.000 NA
ATOM     25  C   UNL     1       1.761   2.782  18.529  0.00  0.00    +0.000 C 
ATOM     26  C   UNL     1       0.763   3.018  19.681  0.00  0.00    +0.000 C 
ATOM     27  O   UNL     1       1.243   2.499  20.932  0.00  0.00    +0.000 OA
ATOM     28  C   UNL     1       2.517   3.066  21.270  0.00  0.00    +0.000 C 
ATOM     29  C   UNL     1       3.549   2.747  20.180  0.00  0.00    +0.000 C 
ENDBRANCH  21  24
ENDBRANCH   5  21
TORSDOF 7
ENDMDL
MODEL 2
REMARK VINA RESULT:      -8.9      0.882      1.399
REMARK  Name = 
REMARK  8 active torsions:
REMARK  status: ('A' for Active; 'I' for Inactive)
REMARK    1  A    between atoms: C_1  and  S_2
REMARK    2  A    between atoms: S_2  and  C_3
REMARK    3  A    between atoms: C_6  and  C_7
REMARK    4  A    between atoms: C_7  and  C_8
REMARK    5  A    between atoms: C_8  and  N_9
REMARK    6  A    between atoms: C_10  and  C_12
REMARK    7  A    between atoms: N_16  and  S_17
REMARK    8  A    between atoms: S_17  and  N_20
REMARK                            x       y       z     vdW  Elec       q    Type
REMARK                         _______ _______ _______ _____ _____    ______ ____
ROOT
ATOM      1  C   UNL     1       7.226   5.618  18.139  0.00  0.00    +0.000 C 
ATOM      2  C   UNL     1       7.538   4.587  17.052  0.00  0.00    +0.000 C 
ATOM      3  C   UNL     1       6.421   4.489  16.012  0.00  0.00    +0.000 C 
ATOM      4  C   UNL     1       5.062   4.252  16.677  0.00  0.00    +0.000 C 
ATOM      5  N   UNL     1       4.755   5.364  17.638  0.00  0.00    +0.000 NA
ATOM      6  C   UNL     1       5.814   5.422  18.707  0.00  0.00    +0.000 C 
ENDROOT
BRANCH   1   8
ATOM      7  N   UNL     1       8.257   7.834  18.406  0.00  0.00    +0.000 N 
ATOM      8  C   UNL     1       7.418   7.051  17.638  0.00  0.00    +0.000 C 
ATOM      9  O   UNL     1       6.868   7.486  16.636  0.00  0.00    +0.000 OA
ATOM     10  H   UNL     1       8.676   7.465  19.247  0.00  0.00    +0.000 HD
BRANCH   7  11
ATOM     11  C   UNL     1       8.367   9.262  18.127  0.00  0.00    +0.000 C 
BRANCH  11  12
ATOM     12  C   UNL     1       9.190  10.008  19.177  0.00  0.00    +0.000 C 
BRANCH  12  16
ATOM     13  C   UNL     1      10.609  13.805  17.658  0.00  0.00    +0.000 A 
ATOM     14  C   UNL     1       9.382  13.724  18.322  0.00  0.00    +0.000 A 
ATOM     15  C   UNL     1       8.928  12.496  18.822  0.00  0.00    +0.000 A 
ATOM     16  C   UNL     1       9.697  11.336  18.666  0.00  0.00    +0.000 A 
ATOM     17  C   UNL     1      10.923  11.424  17.990  0.00  0.00    +0.000 A 
ATOM     18  C   UNL     1      11.369  12.648  17.487  0.00  0.00    +0.000 A 
BRANCH  13  20
ATOM     19  C   UNL     1       9.767  16.407  17.346  0.00  0.00    +0.000 C 
ATOM     20  S   UNL     1      11.188  15.347  16.971  0.00  0.00    +0.000 S 
ENDBRANCH  13  20
ENDBRANCH  12  16
ENDBRANCH  11  12
ENDBRANCH   7  11
ENDBRANCH   1   8
BRANCH   5  21
ATOM     21  S   UNL     1       3.180   5.308  18.310  0.00  0.00    +0.000 S 
ATOM     22  O   UNL     1       2.806   6.663  18.659  0.00  0.00    +0.000 OA
ATOM     23  O   UNL     1       2.345   4.532  17.418  0.00  0.00    +0.000 OA
BRANCH  21  24
ATOM     24  N   UNL     1       3.359   4.422  19.747  0.00  0.00    +0.000 NA
ATOM     25  C   UNL     1       3.405   2.922  19.623  0.00  0.00    +0.000 C 
ATOM     26  C   UNL     1       2.006   2.309  19.413  0.00  0.00    +0.000 C 
ATOM     27  O   UNL     1       1.076   2.713  20.431  0.00  0.00    +0.000 OA
ATOM     28  C   UNL     1       0.974   4.143  20.497  0.00  0.00    +0.000 C 
ATOM     29  C   UNL     1       2.343   4.761  20.812  0.00  0.00    +0.000 C 
ENDBRANCH  21  24
ENDBRANCH   5  21
TORSDOF 7
ENDMDL
MODEL 3
REMARK VINA RESULT:      -8.8      0.876      1.020
REMARK  Name = 
REMARK  8 active torsions:
REMARK  status: ('A' for Active; 'I' for Inactive)
REMARK    1  A    between atoms: C_1  and  S_2
REMARK    2  A    between atoms: S_2  and  C_3
REMARK    3  A    between atoms: C_6  and  C_7
REMARK    4  A    between atoms: C_7  and  C_8
REMARK    5  A    between atoms: C_8  and  N_9
REMARK    6  A    between atoms: C_10  and  C_12
REMARK    7  A    between atoms: N_16  and  S_17
REMARK    8  A    between atoms: S_17  and  N_20
REMARK                            x       y       z     vdW  Elec       q    Type
REMARK                         _______ _______ _______ _____ _____    ______ ____
ROOT
ATOM      1  C   UNL     1       7.319   5.530  17.790  0.00  0.00    +0.000 C 
ATOM      2  C   UNL     1       7.431   4.689  16.517  0.00  0.00    +0.000 C 
ATOM      3  C   UNL     1       6.142   4.713  15.695  0.00  0.00    +0.000 C 
ATOM      4  C   UNL     1       4.930   4.329  16.550  0.00  0.00    +0.000 C 
ATOM      5  N   UNL     1       4.799   5.270  17.713  0.00  0.00    +0.000 NA
ATOM      6  C   UNL     1       6.037   5.201  18.568  0.00  0.00    +0.000 C 
ENDROOT
BRANCH   1   8
ATOM      7  N   UNL     1       8.335   7.723  18.245  0.00  0.00    +0.000 N 
ATOM      8  C   UNL     1       7.407   7.028  17.494  0.00  0.00    +0.000 C 
ATOM      9  O   UNL     1       6.706   7.585  16.660  0.00  0.00    +0.000 OA
ATOM     10  H   UNL     1       8.880   7.250  18.950  0.00  0.00    +0.000 HD
BRANCH   7  11
ATOM     11  C   UNL     1       8.374   9.180  18.177  0.00  0.00    +0.000 C 
BRANCH  11  12
ATOM     12  C   UNL     1       8.950   9.816  19.441  0.00  0.00    +0.000 C 
BRANCH  12  16
ATOM     13  C   UNL     1      11.384  13.288  18.569  0.00  0.00    +0.000 A 
ATOM     14  C   UNL     1      11.274  12.813  19.879  0.00  0.00    +0.000 A 
ATOM     15  C   UNL     1      10.494  11.683  20.159  0.00  0.00    +0.000 A 
ATOM     16  C   UNL     1       9.817  11.014  19.132  0.00  0.00    +0.000 A 
ATOM     17  C   UNL     1       9.925  11.502  17.822  0.00  0.00    +0.000 A 
ATOM     18  C   UNL     1      10.698  12.633  17.547  0.00  0.00    +0.000 A 
BRANCH  13  20
ATOM     19  C   UNL     1      11.324  15.440  16.855  0.00  0.00    +0.000 C 
ATOM     20  S   UNL     1      12.333  14.751  18.193  0.00  0.00    +0.000 S 
ENDBRANCH  13  20
ENDBRANCH  12  16
ENDBRANCH  11  12
ENDBRANCH   7  11
ENDBRANCH   1   8
BRANCH   5  21
ATOM     21  S   UNL     1       3.376   5.057  18.642  0.00  0.00    +0.000 S 
ATOM     22  O   UNL     1       3.685   5.435  20.005  0.00  0.00    +0.000 OA
ATOM     23  O   UNL     1       2.288   5.703  17.940  0.00  0.00    +0.000 OA
BRANCH  21  24
ATOM     24  N   UNL     1       3.090   3.384  18.608  0.00  0.00    +0.000 NA
ATOM     25  C   UNL     1       1.668   2.939  18.394  0.00  0.00    +0.000 C 
ATOM     26  C   UNL     1       0.817   3.064  19.674  0.00  0.00    +0.000 C 
ATOM     27  O   UNL     1       1.408   2.379  20.790  0.00  0.00    +0.000 OA
ATOM     28  C   UNL     1       2.736   2.858  21.043  0.00  0.00    +0.000 C 
ATOM     29  C   UNL     1       3.625   2.642  19.811  0.00  0.00    +0.000 C 
ENDBRANCH  21  24
ENDBRANCH   5  21
TORSDOF 7
ENDMDL
MODEL 4
REMARK VINA RESULT:      -8.6      1.447      1.852
REMARK  Name = 
REMARK  8 active torsions:
REMARK  status: ('A' for Active; 'I' for Inactive)
REMARK    1  A    between atoms: C_1  and  S_2
REMARK    2  A    between atoms: S_2  and  C_3
REMARK    3  A    between atoms: C_6  and  C_7
REMARK    4  A    between atoms: C_7  and  C_8
REMARK    5  A    between atoms: C_8  and  N_9
REMARK    6  A    between atoms: C_10  and  C_12
REMARK    7  A    between atoms: N_16  and  S_17
REMARK    8  A    between atoms: S_17  and  N_20
REMARK                            x       y       z     vdW  Elec       q    Type
REMARK                         _______ _______ _______ _____ _____    ______ ____
ROOT
ATOM      1  C   UNL     1       7.274   5.434  16.826  0.00  0.00    +0.000 C 
ATOM      2  C   UNL     1       6.989   5.133  15.353  0.00  0.00    +0.000 C 
ATOM      3  C   UNL     1       5.494   4.966  15.078  0.00  0.00    +0.000 C 
ATOM      4  C   UNL     1       4.866   3.937  16.022  0.00  0.00    +0.000 C 
ATOM      5  N   UNL     1       5.068   4.355  17.451  0.00  0.00    +0.000 NA
ATOM      6  C   UNL     1       6.540   4.453  17.751  0.00  0.00    +0.000 C 
ENDROOT
BRANCH   1   8
ATOM      7  N   UNL     1       8.016   7.736  17.271  0.00  0.00    +0.000 N 
ATOM      8  C   UNL     1       6.935   6.882  17.188  0.00  0.00    +0.000 C 
ATOM      9  O   UNL     1       5.793   7.266  17.400  0.00  0.00    +0.000 OA
ATOM     10  H   UNL     1       8.953   7.392  17.123  0.00  0.00    +0.000 HD
BRANCH   7  11
ATOM     11  C   UNL     1       7.830   9.089  17.786  0.00  0.00    +0.000 C 
BRANCH  11  12
ATOM     12  C   UNL     1       8.864   9.465  18.847  0.00  0.00    +0.000 C 
BRANCH  12  16
ATOM     13  C   UNL     1      10.445  13.453  18.274  0.00  0.00    +0.000 A 
ATOM     14  C   UNL     1      11.091  12.553  19.127  0.00  0.00    +0.000 A 
ATOM     15  C   UNL     1      10.584  11.259  19.304  0.00  0.00    +0.000 A 
ATOM     16  C   UNL     1       9.427  10.849  18.629  0.00  0.00    +0.000 A 
ATOM     17  C   UNL     1       8.780  11.761  17.783  0.00  0.00    +0.000 A 
ATOM     18  C   UNL     1       9.284  13.053  17.613  0.00  0.00    +0.000 A 
BRANCH  13  20
ATOM     19  C   UNL     1      10.081  15.959  19.353  0.00  0.00    +0.000 C 
ATOM     20  S   UNL     1      11.045  15.121  18.067  0.00  0.00    +0.000 S 
ENDBRANCH  13  20
ENDBRANCH  12  16
ENDBRANCH  11  12
ENDBRANCH   7  11
ENDBRANCH   1   8
BRANCH   5  21
ATOM     21  S   UNL     1       4.252   3.379  18.598  0.00  0.00    +0.000 S 
ATOM     22  O   UNL     1       3.722   2.230  17.895  0.00  0.00    +0.000 OA
ATOM     23  O   UNL     1       5.136   3.193  19.729  0.00  0.00    +0.000 OA
BRANCH  21  24
ATOM     24  N   UNL     1       2.947   4.332  19.118  0.00  0.00    +0.000 NA
ATOM     25  C   UNL     1       2.556   4.223  20.568  0.00  0.00    +0.000 C 
ATOM     26  C   UNL     1       1.747   2.944  20.861  0.00  0.00    +0.000 C 
ATOM     27  O   UNL     1       0.597   2.819  20.008  0.00  0.00    +0.000 OA
ATOM     28  C   UNL     1       0.978   2.845  18.625  0.00  0.00    +0.000 C 
ATOM     29  C   UNL     1       1.692   4.162  18.293  0.00  0.00    +0.000 C 
ENDBRANCH  21  24
ENDBRANCH   5  21
TORSDOF 7
ENDMDL
MODEL 5
REMARK VINA RESULT:      -8.5      1.152      1.312
REMARK  Name = 
REMARK  8 active torsions:
REMARK  status: ('A' for Active; 'I' for Inactive)
REMARK    1  A    between atoms: C_1  and  S_2
REMARK    2  A    between atoms: S_2  and  C_3
REMARK    3  A    between atoms: C_6  and  C_7
REMARK    4  A    between atoms: C_7  and  C_8
REMARK    5  A    between atoms: C_8  and  N_9
REMARK    6  A    between atoms: C_10  and  C_12
REMARK    7  A    between atoms: N_16  and  S_17
REMARK    8  A    between atoms: S_17  and  N_20
REMARK                            x       y       z     vdW  Elec       q    Type
REMARK                         _______ _______ _______ _____ _____    ______ ____
ROOT
ATOM      1  C   UNL     1       7.319   5.487  18.206  0.00  0.00    +0.000 C 
ATOM      2  C   UNL     1       7.586   4.496  17.072  0.00  0.00    +0.000 C 
ATOM      3  C   UNL     1       6.388   4.359  16.132  0.00  0.00    +0.000 C 
ATOM      4  C   UNL     1       5.108   4.035  16.908  0.00  0.00    +0.000 C 
ATOM      5  N   UNL     1       4.830   5.110  17.919  0.00  0.00    +0.000 NA
ATOM      6  C   UNL     1       5.976   5.204  18.892  0.00  0.00    +0.000 C 
ENDROOT
BRANCH   1   8
ATOM      7  N   UNL     1       8.287   7.739  18.406  0.00  0.00    +0.000 N 
ATOM      8  C   UNL     1       7.391   6.938  17.726  0.00  0.00    +0.000 C 
ATOM      9  O   UNL     1       6.704   7.372  16.812  0.00  0.00    +0.000 OA
ATOM     10  H   UNL     1       8.821   7.369  19.178  0.00  0.00    +0.000 HD
BRANCH   7  11
ATOM     11  C   UNL     1       8.305   9.176  18.155  0.00  0.00    +0.000 C 
BRANCH  11  12
ATOM     12  C   UNL     1       9.376   9.905  18.967  0.00  0.00    +0.000 C 
BRANCH  12  16
ATOM     13  C   UNL     1       8.753  14.188  18.953  0.00  0.00    +0.000 A 
ATOM     14  C   UNL     1       9.155  13.537  20.122  0.00  0.00    +0.000 A 
ATOM     15  C   UNL     1       9.366  12.151  20.123  0.00  0.00    +0.000 A 
ATOM     16  C   UNL     1       9.180  11.402  18.955  0.00  0.00    +0.000 A 
ATOM     17  C   UNL     1       8.767  12.062  17.788  0.00  0.00    +0.000 A 
ATOM     18  C   UNL     1       8.552  13.442  17.792  0.00  0.00    +0.000 A 
BRANCH  13  20
ATOM     19  C   UNL     1       9.631  16.466  17.681  0.00  0.00    +0.000 C 
ATOM     20  S   UNL     1       8.433  15.944  18.937  0.00  0.00    +0.000 S 
ENDBRANCH  13  20
ENDBRANCH  12  16
ENDBRANCH  11  12
ENDBRANCH   7  11
ENDBRANCH   1   8
BRANCH   5  21
ATOM     21  S   UNL     1       3.326   4.956  18.725  0.00  0.00    +0.000 S 
ATOM     22  O   UNL     1       3.482   5.518  20.050  0.00  0.00    +0.000 OA
ATOM     23  O   UNL     1       2.296   5.458  17.841  0.00  0.00    +0.000 OA
BRANCH  21  24
ATOM     24  N   UNL     1       3.096   3.281  18.883  0.00  0.00    +0.000 NA
ATOM     25  C   UNL     1       1.720   2.749  18.580  0.00  0.00    +0.000 C 
ATOM     26  C   UNL     1       0.729   3.000  19.734  0.00  0.00    +0.000 C 
ATOM     27  O   UNL     1       1.213   2.492  20.988  0.00  0.00    +0.000 OA
ATOM     28  C   UNL     1       2.490   3.058  21.315  0.00  0.00    +0.000 C 
ATOM     29  C   UNL     1       3.516   2.725  20.223  0.00  0.00    +0.000 C 
ENDBRANCH  21  24
ENDBRANCH   5  21
TORSDOF 7
ENDMDL
MODEL 6
REMARK VINA RESULT:      -8.4      1.548      1.970
REMARK  Name = 
REMARK  8 active torsions:
REMARK  status: ('A' for Active; 'I' for Inactive)
REMARK    1  A    between atoms: C_1  and  S_2
REMARK    2  A    between atoms: S_2  and  C_3
REMARK    3  A    between atoms: C_6  and  C_7
REMARK    4  A    between atoms: C_7  and  C_8
REMARK    5  A    between atoms: C_8  and  N_9
REMARK    6  A    between atoms: C_10  and  C_12
REMARK    7  A    between atoms: N_16  and  S_17
REMARK    8  A    between atoms: S_17  and  N_20
REMARK                            x       y       z     vdW  Elec       q    Type
REMARK                         _______ _______ _______ _____ _____    ______ ____
ROOT
ATOM      1  C   UNL     1       7.303   5.284  16.652  0.00  0.00    +0.000 C 
ATOM      2  C   UNL     1       7.122   4.899  15.182  0.00  0.00    +0.000 C 
ATOM      3  C   UNL     1       5.648   4.813  14.786  0.00  0.00    +0.000 C 
ATOM      4  C   UNL     1       4.869   3.898  15.736  0.00  0.00    +0.000 C 
ATOM      5  N   UNL     1       4.980   4.402  17.147  0.00  0.00    +0.000 NA
ATOM      6  C   UNL     1       6.425   4.423  17.569  0.00  0.00    +0.000 C 
ENDROOT
BRANCH   1   8
ATOM      7  N   UNL     1       8.146   7.513  17.260  0.00  0.00    +0.000 N 
ATOM      8  C   UNL     1       7.041   6.773  16.887  0.00  0.00    +0.000 C 
ATOM      9  O   UNL     1       5.935   7.283  16.767  0.00  0.00    +0.000 OA
ATOM     10  H   UNL     1       9.043   7.067  17.385  0.00  0.00    +0.000 HD
BRANCH   7  11
ATOM     11  C   UNL     1       7.977   8.898  17.687  0.00  0.00    +0.000 C 
BRANCH  11  12
ATOM     12  C   UNL     1       8.782   9.233  18.942  0.00  0.00    +0.000 C 
BRANCH  12  16
ATOM     13  C   UNL     1      10.270  13.297  18.882  0.00  0.00    +0.000 A 
ATOM     14  C   UNL     1       9.419  12.842  17.871  0.00  0.00    +0.000 A 
ATOM     15  C   UNL     1       8.929  11.529  17.897  0.00  0.00    +0.000 A 
ATOM     16  C   UNL     1       9.284  10.657  18.934  0.00  0.00    +0.000 A 
ATOM     17  C   UNL     1      10.147  11.119  19.939  0.00  0.00    +0.000 A 
ATOM     18  C   UNL     1      10.637  12.427  19.908  0.00  0.00    +0.000 A 
BRANCH  13  20
ATOM     19  C   UNL     1      11.083  15.191  17.057  0.00  0.00    +0.000 C 
ATOM     20  S   UNL     1      10.943  14.950  18.848  0.00  0.00    +0.000 S 
ENDBRANCH  13  20
ENDBRANCH  12  16
ENDBRANCH  11  12
ENDBRANCH   7  11
ENDBRANCH   1   8
BRANCH   5  21
ATOM     21  S   UNL     1       4.002   3.567  18.278  0.00  0.00    +0.000 S 
ATOM     22  O   UNL     1       3.728   2.254  17.733  0.00  0.00    +0.000 OA
ATOM     23  O   UNL     1       4.621   3.697  19.580  0.00  0.00    +0.000 OA
BRANCH  21  24
ATOM     24  N   UNL     1       2.547   4.441  18.312  0.00  0.00    +0.000 NA
ATOM     25  C   UNL     1       2.422   5.521  19.353  0.00  0.00    +0.000 C 
ATOM     26  C   UNL     1       2.119   4.952  20.754  0.00  0.00    +0.000 C 
ATOM     27  O   UNL     1       0.963   4.099  20.757  0.00  0.00    +0.000 OA
ATOM     28  C   UNL     1       1.114   3.024  19.819  0.00  0.00    +0.000 C 
ATOM     29  C   UNL     1       1.310   3.576  18.401  0.00  0.00    +0.000 C 
ENDBRANCH  21  24
ENDBRANCH   5  21
TORSDOF 7
ENDMDL
MODEL 7
REMARK VINA RESULT:      -8.4      1.454      1.726
REMARK  Name = 
REMARK  8 active torsions:
REMARK  status: ('A' for Active; 'I' for Inactive)
REMARK    1  A    between atoms: C_1  and  S_2
REMARK    2  A    between atoms: S_2  and  C_3
REMARK    3  A    between atoms: C_6  and  C_7
REMARK    4  A    between atoms: C_7  and  C_8
REMARK    5  A    between atoms: C_8  and  N_9
REMARK    6  A    between atoms: C_10  and  C_12
REMARK    7  A    between atoms: N_16  and  S_17
REMARK    8  A    between atoms: S_17  and  N_20
REMARK                            x       y       z     vdW  Elec       q    Type
REMARK                         _______ _______ _______ _____ _____    ______ ____
ROOT
ATOM      1  C   UNL     1       7.118   4.504  17.940  0.00  0.00    +0.000 C 
ATOM      2  C   UNL     1       7.140   4.700  16.422  0.00  0.00    +0.000 C 
ATOM      3  C   UNL     1       6.098   5.717  15.958  0.00  0.00    +0.000 C 
ATOM      4  C   UNL     1       4.704   5.366  16.487  0.00  0.00    +0.000 C 
ATOM      5  N   UNL     1       4.718   5.315  17.988  0.00  0.00    +0.000 NA
ATOM      6  C   UNL     1       5.692   4.265  18.453  0.00  0.00    +0.000 C 
ENDROOT
BRANCH   1   8
ATOM      7  N   UNL     1       7.669   6.898  18.045  0.00  0.00    +0.000 N 
ATOM      8  C   UNL     1       7.774   5.674  18.676  0.00  0.00    +0.000 C 
ATOM      9  O   UNL     1       8.359   5.547  19.742  0.00  0.00    +0.000 OA
ATOM     10  H   UNL     1       7.209   6.976  17.151  0.00  0.00    +0.000 HD
BRANCH   7  11
ATOM     11  C   UNL     1       8.411   8.043  18.563  0.00  0.00    +0.000 C 
BRANCH  11  12
ATOM     12  C   UNL     1       8.093   9.340  17.820  0.00  0.00    +0.000 C 
BRANCH  12  16
ATOM     13  C   UNL     1      10.249  12.721  19.448  0.00  0.00    +0.000 A 
ATOM     14  C   UNL     1       9.533  12.849  18.255  0.00  0.00    +0.000 A 
ATOM     15  C   UNL     1       8.827  11.756  17.734  0.00  0.00    +0.000 A 
ATOM     16  C   UNL     1       8.827  10.525  18.400  0.00  0.00    +0.000 A 
ATOM     17  C   UNL     1       9.556  10.403  19.593  0.00  0.00    +0.000 A 
ATOM     18  C   UNL     1      10.264  11.492  20.106  0.00  0.00    +0.000 A 
BRANCH  13  20
ATOM     19  C   UNL     1      10.830  15.347  18.861  0.00  0.00    +0.000 C 
ATOM     20  S   UNL     1      11.194  14.083  20.109  0.00  0.00    +0.000 S 
ENDBRANCH  13  20
ENDBRANCH  12  16
ENDBRANCH  11  12
ENDBRANCH   7  11
ENDBRANCH   1   8
BRANCH   5  21
ATOM     21  S   UNL     1       3.176   5.111  18.706  0.00  0.00    +0.000 S 
ATOM     22  O   UNL     1       3.068   6.070  19.786  0.00  0.00    +0.000 OA
ATOM     23  O   UNL     1       2.192   5.099  17.646  0.00  0.00    +0.000 OA
BRANCH  21  24
ATOM     24  N   UNL     1       3.222   3.555  19.382  0.00  0.00    +0.000 NA
ATOM     25  C   UNL     1       2.621   2.439  18.571  0.00  0.00    +0.000 C 
ATOM     26  C   UNL     1       1.080   2.430  18.640  0.00  0.00    +0.000 C 
ATOM     27  O   UNL     1       0.596   2.401  19.992  0.00  0.00    +0.000 OA
ATOM     28  C   UNL     1       1.108   3.509  20.746  0.00  0.00    +0.000 C 
ATOM     29  C   UNL     1       2.642   3.470  20.775  0.00  0.00    +0.000 C 
ENDBRANCH  21  24
ENDBRANCH   5  21
TORSDOF 7
ENDMDL
MODEL 8
REMARK VINA RESULT:      -8.3      1.324      1.545
REMARK  Name = 
REMARK  8 active torsions:
REMARK  status: ('A' for Active; 'I' for Inactive)
REMARK    1  A    between atoms: C_1  and  S_2
REMARK    2  A    between atoms: S_2  and  C_3
REMARK    3  A    between atoms: C_6  and  C_7
REMARK    4  A    between atoms: C_7  and  C_8
REMARK    5  A    between atoms: C_8  and  N_9
REMARK    6  A    between atoms: C_10  and  C_12
REMARK    7  A    between atoms: N_16  and  S_17
REMARK    8  A    between atoms: S_17  and  N_20
REMARK                            x       y       z     vdW  Elec       q    Type
REMARK                         _______ _______ _______ _____ _____    ______ ____
ROOT
ATOM      1  C   UNL     1       6.840   5.331  17.350  0.00  0.00    +0.000 C 
ATOM      2  C   UNL     1       7.120   4.837  15.929  0.00  0.00    +0.000 C 
ATOM      3  C   UNL     1       5.896   4.966  15.022  0.00  0.00    +0.000 C 
ATOM      4  C   UNL     1       4.668   4.297  15.648  0.00  0.00    +0.000 C 
ATOM      5  N   UNL     1       4.367   4.913  16.984  0.00  0.00    +0.000 NA
ATOM      6  C   UNL     1       5.543   4.729  17.907  0.00  0.00    +0.000 C 
ENDROOT
BRANCH   1   8
ATOM      7  N   UNL     1       8.043   7.476  17.382  0.00  0.00    +0.000 N 
ATOM      8  C   UNL     1       6.808   6.859  17.426  0.00  0.00    +0.000 C 
ATOM      9  O   UNL     1       5.771   7.500  17.529  0.00  0.00    +0.000 OA
ATOM     10  H   UNL     1       8.888   6.927  17.330  0.00  0.00    +0.000 HD
BRANCH   7  11
ATOM     11  C   UNL     1       8.142   8.910  17.632  0.00  0.00    +0.000 C 
BRANCH  11  12
ATOM     12  C   UNL     1       8.719   9.232  19.010  0.00  0.00    +0.000 C 
BRANCH  12  16
ATOM     13  C   UNL     1      10.978  12.924  19.028  0.00  0.00    +0.000 A 
ATOM     14  C   UNL     1      10.641  12.308  17.820  0.00  0.00    +0.000 A 
ATOM     15  C   UNL     1       9.901  11.118  17.815  0.00  0.00    +0.000 A 
ATOM     16  C   UNL     1       9.488  10.532  19.017  0.00  0.00    +0.000 A 
ATOM     17  C   UNL     1       9.838  11.151  20.226  0.00  0.00    +0.000 A 
ATOM     18  C   UNL     1      10.581  12.334  20.228  0.00  0.00    +0.000 A 
BRANCH  13  20
ATOM     19  C   UNL     1      11.267  15.275  17.626  0.00  0.00    +0.000 C 
ATOM     20  S   UNL     1      11.958  14.415  19.064  0.00  0.00    +0.000 S 
ENDBRANCH  13  20
ENDBRANCH  12  16
ENDBRANCH  11  12
ENDBRANCH   7  11
ENDBRANCH   1   8
BRANCH   5  21
ATOM     21  S   UNL     1       2.908   4.375  17.702  0.00  0.00    +0.000 S 
ATOM     22  O   UNL     1       2.030   5.521  17.816  0.00  0.00    +0.000 OA
ATOM     23  O   UNL     1       2.471   3.195  16.987  0.00  0.00    +0.000 OA
BRANCH  21  24
ATOM     24  N   UNL     1       3.355   3.892  19.267  0.00  0.00    +0.000 NA
ATOM     25  C   UNL     1       3.119   2.450  19.630  0.00  0.00    +0.000 C 
ATOM     26  C   UNL     1       1.639   2.164  19.958  0.00  0.00    +0.000 C 
ATOM     27  O   UNL     1       1.127   3.041  20.974  0.00  0.00    +0.000 OA
ATOM     28  C   UNL     1       1.282   4.416  20.594  0.00  0.00    +0.000 C 
ATOM     29  C   UNL     1       2.765   4.743  20.367  0.00  0.00    +0.000 C 
ENDBRANCH  21  24
ENDBRANCH   5  21
TORSDOF 7
ENDMDL
MODEL 9
REMARK VINA RESULT:      -8.3      1.613      1.837
REMARK  Name = 
REMARK  8 active torsions:
REMARK  status: ('A' for Active; 'I' for Inactive)
REMARK    1  A    between atoms: C_1  and  S_2
REMARK    2  A    between atoms: S_2  and  C_3
REMARK    3  A    between atoms: C_6  and  C_7
REMARK    4  A    between atoms: C_7  and  C_8
REMARK    5  A    between atoms: C_8  and  N_9
REMARK    6  A    between atoms: C_10  and  C_12
REMARK    7  A    between atoms: N_16  and  S_17
REMARK    8  A    between atoms: S_17  and  N_20
REMARK                            x       y       z     vdW  Elec       q    Type
REMARK                         _______ _______ _______ _____ _____    ______ ____
ROOT
ATOM      1  C   UNL     1       7.105   4.534  17.925  0.00  0.00    +0.000 C 
ATOM      2  C   UNL     1       7.122   4.749  16.411  0.00  0.00    +0.000 C 
ATOM      3  C   UNL     1       6.080   5.775  15.963  0.00  0.00    +0.000 C 
ATOM      4  C   UNL     1       4.687   5.420  16.493  0.00  0.00    +0.000 C 
ATOM      5  N   UNL     1       4.707   5.349  17.993  0.00  0.00    +0.000 NA
ATOM      6  C   UNL     1       5.681   4.291  18.441  0.00  0.00    +0.000 C 
ENDROOT
BRANCH   1   8
ATOM      7  N   UNL     1       7.682   6.922  18.048  0.00  0.00    +0.000 N 
ATOM      8  C   UNL     1       7.766   5.693  18.674  0.00  0.00    +0.000 C 
ATOM      9  O   UNL     1       8.339   5.554  19.746  0.00  0.00    +0.000 OA
ATOM     10  H   UNL     1       7.233   7.008  17.149  0.00  0.00    +0.000 HD
BRANCH   7  11
ATOM     11  C   UNL     1       8.432   8.055  18.579  0.00  0.00    +0.000 C 
BRANCH  11  12
ATOM     12  C   UNL     1       8.159   9.353  17.820  0.00  0.00    +0.000 C 
BRANCH  12  16
ATOM     13  C   UNL     1      10.218  12.737  19.562  0.00  0.00    +0.000 A 
ATOM     14  C   UNL     1      10.198  11.506  20.224  0.00  0.00    +0.000 A 
ATOM     15  C   UNL     1       9.539  10.408  19.654  0.00  0.00    +0.000 A 
ATOM     16  C   UNL     1       8.896  10.528  18.416  0.00  0.00    +0.000 A 
ATOM     17  C   UNL     1       8.913  11.770  17.764  0.00  0.00    +0.000 A 
ATOM     18  C   UNL     1       9.565  12.864  18.337  0.00  0.00    +0.000 A 
BRANCH  13  20
ATOM     19  C   UNL     1       9.619  14.845  21.228  0.00  0.00    +0.000 C 
ATOM     20  S   UNL     1      11.010  14.163  20.288  0.00  0.00    +0.000 S 
ENDBRANCH  13  20
ENDBRANCH  12  16
ENDBRANCH  11  12
ENDBRANCH   7  11
ENDBRANCH   1   8
BRANCH   5  21
ATOM     21  S   UNL     1       3.168   5.140  18.715  0.00  0.00    +0.000 S 
ATOM     22  O   UNL     1       3.051   6.110  19.783  0.00  0.00    +0.000 OA
ATOM     23  O   UNL     1       2.183   5.106  17.655  0.00  0.00    +0.000 OA
BRANCH  21  24
ATOM     24  N   UNL     1       3.229   3.591  19.409  0.00  0.00    +0.000 NA
ATOM     25  C   UNL     1       2.669   2.455  18.595  0.00  0.00    +0.000 C 
ATOM     26  C   UNL     1       1.128   2.415  18.627  0.00  0.00    +0.000 C 
ATOM     27  O   UNL     1       0.612   2.391  19.967  0.00  0.00    +0.000 OA
ATOM     28  C   UNL     1       1.083   3.517  20.721  0.00  0.00    +0.000 C 
ATOM     29  C   UNL     1       2.616   3.510  20.788  0.00  0.00    +0.000 C 
ENDBRANCH  21  24
ENDBRANCH   5  21
TORSDOF 7
ENDMDL
