MODEL 1
REMARK VINA RESULT:      -6.9      0.000      0.000
REMARK  Name = 
REMARK  7 active torsions:
REMARK  status: ('A' for Active; 'I' for Inactive)
REMARK    1  A    between atoms: C_1  and  C_2
REMARK    2  A    between atoms: C_4  and  C_5
REMARK    3  A    between atoms: N_7  and  C_8
REMARK    4  A    between atoms: N_11  and  C_12
REMARK    5  A    between atoms: C_12  and  C_13
REMARK    6  A    between atoms: C_13  and  O_14
REMARK    7  A    between atoms: O_14  and  C_15
REMARK                            x       y       z     vdW  Elec       q    Type
REMARK                         _______ _______ _______ _____ _____    ______ ____
ROOT
ATOM      1  C   UNL     1       1.316   9.525  18.710  0.00  0.00    +0.000 C 
ATOM      2  C   UNL     1       2.268   8.698  17.842  0.00  0.00    +0.000 C 
ATOM      3  C   UNL     1       2.331   7.214  18.195  0.00  0.00    +0.000 C 
ATOM      4  N   UNL     1       2.618   7.036  19.626  0.00  0.00    +0.000 NA
ATOM      5  C   UNL     1       1.464   7.536  20.392  0.00  0.00    +0.000 C 
ATOM      6  C   UNL     1       1.240   9.039  20.170  0.00  0.00    +0.000 C 
ENDROOT
BRANCH   1   9
ATOM      7  C   UNL     1      -0.845  10.778  18.415  0.00  0.00    +0.000 C 
ATOM      8  O   UNL     1      -0.589  11.588  19.295  0.00  0.00    +0.000 OA
ATOM      9  N   UNL     1       0.010   9.758  18.074  0.00  0.00    +0.000 N 
ATOM     10  H   UNL     1      -0.324   9.107  17.369  0.00  0.00    +0.000 HD
BRANCH   7  14
ATOM     11  C   UNL     1      -5.485  12.147  17.086  0.00  0.00    +0.000 C 
ATOM     12  C   UNL     1      -4.146  11.492  17.087  0.00  0.00    +0.000 A 
ATOM     13  N   UNL     1      -3.233  11.575  18.036  0.00  0.00    +0.000 NA
ATOM     14  C   UNL     1      -2.088  10.874  17.642  0.00  0.00    +0.000 A 
ATOM     15  C   UNL     1      -2.201  10.241  16.416  0.00  0.00    +0.000 A 
ATOM     16  S   UNL     1      -3.721  10.537  15.717  0.00  0.00    +0.000 S 
ENDBRANCH   7  14
ENDBRANCH   1   9
BRANCH   4  17
ATOM     17  C   UNL     1       2.877   5.615  19.965  0.00  0.00    +0.000 C 
BRANCH  17  18
ATOM     18  C   UNL     1       3.082   4.720  18.729  0.00  0.00    +0.000 C 
BRANCH  18  19
ATOM     19  O   UNL     1       4.379   4.112  18.760  0.00  0.00    +0.000 OA
BRANCH  19  20
ATOM     20  C   UNL     1       5.163   4.322  17.652  0.00  0.00    +0.000 A 
ATOM     21  C   UNL     1       6.522   4.653  17.662  0.00  0.00    +0.000 A 
ATOM     22  C   UNL     1       7.220   4.824  16.464  0.00  0.00    +0.000 A 
ATOM     23  C   UNL     1       6.558   4.666  15.248  0.00  0.00    +0.000 A 
ATOM     24 BR   UNL     1       7.509   4.877  13.629  0.00  0.00    +0.000 Br
ATOM     25  C   UNL     1       5.203   4.347  15.223  0.00  0.00    +0.000 A 
ATOM     26  C   UNL     1       4.509   4.179  16.425  0.00  0.00    +0.000 A 
ENDBRANCH  19  20
ENDBRANCH  18  19
ENDBRANCH  17  18
ENDBRANCH   4  17
TORSDOF 6
ENDMDL
MODEL 2
REMARK VINA RESULT:      -6.9      5.208      9.519
REMARK  Name = 
REMARK  7 active torsions:
REMARK  status: ('A' for Active; 'I' for Inactive)
REMARK    1  A    between atoms: C_1  and  C_2
REMARK    2  A    between atoms: C_4  and  C_5
REMARK    3  A    between atoms: N_7  and  C_8
REMARK    4  A    between atoms: N_11  and  C_12
REMARK    5  A    between atoms: C_12  and  C_13
REMARK    6  A    between atoms: C_13  and  O_14
REMARK    7  A    between atoms: O_14  and  C_15
REMARK                            x       y       z     vdW  Elec       q    Type
REMARK                         _______ _______ _______ _____ _____    ______ ____
ROOT
ATOM      1  C   UNL     1       5.332   4.130  18.402  0.00  0.00    +0.000 C 
ATOM      2  C   UNL     1       4.236   3.193  18.917  0.00  0.00    +0.000 C 
ATOM      3  C   UNL     1       2.900   3.871  19.210  0.00  0.00    +0.000 C 
ATOM      4  N   UNL     1       3.091   5.019  20.109  0.00  0.00    +0.000 NA
ATOM      5  C   UNL     1       3.861   6.046  19.387  0.00  0.00    +0.000 C 
ATOM      6  C   UNL     1       5.262   5.546  19.006  0.00  0.00    +0.000 C 
ENDROOT
BRANCH   1   9
ATOM      7  C   UNL     1       6.650   4.378  16.274  0.00  0.00    +0.000 C 
ATOM      8  O   UNL     1       7.680   4.693  16.854  0.00  0.00    +0.000 OA
ATOM      9  N   UNL     1       5.481   4.095  16.939  0.00  0.00    +0.000 N 
ATOM     10  H   UNL     1       4.670   3.900  16.360  0.00  0.00    +0.000 HD
BRANCH   7  14
ATOM     11  C   UNL     1       5.135   3.035  11.683  0.00  0.00    +0.000 C 
ATOM     12  C   UNL     1       5.924   3.635  12.796  0.00  0.00    +0.000 A 
ATOM     13  N   UNL     1       5.700   3.483  14.088  0.00  0.00    +0.000 NA
ATOM     14  C   UNL     1       6.616   4.253  14.812  0.00  0.00    +0.000 A 
ATOM     15  C   UNL     1       7.538   4.928  14.031  0.00  0.00    +0.000 A 
ATOM     16  S   UNL     1       7.259   4.642  12.379  0.00  0.00    +0.000 S 
ENDBRANCH   7  14
ENDBRANCH   1   9
BRANCH   4  17
ATOM     17  C   UNL     1       1.797   5.581  20.569  0.00  0.00    +0.000 C 
BRANCH  17  18
ATOM     18  C   UNL     1       1.736   7.118  20.483  0.00  0.00    +0.000 C 
BRANCH  18  19
ATOM     19  O   UNL     1       1.208   7.667  21.697  0.00  0.00    +0.000 OA
BRANCH  19  20
ATOM     20  C   UNL     1       0.533   8.856  21.569  0.00  0.00    +0.000 A 
ATOM     21  C   UNL     1       0.284   9.531  20.370  0.00  0.00    +0.000 A 
ATOM     22  C   UNL     1      -0.435  10.730  20.366  0.00  0.00    +0.000 A 
ATOM     23  C   UNL     1      -0.907  11.259  21.566  0.00  0.00    +0.000 A 
ATOM     24 BR   UNL     1      -1.897  12.868  21.555  0.00  0.00    +0.000 Br
ATOM     25  C   UNL     1      -0.657  10.603  22.768  0.00  0.00    +0.000 A 
ATOM     26  C   UNL     1       0.064   9.405  22.766  0.00  0.00    +0.000 A 
ENDBRANCH  19  20
ENDBRANCH  18  19
ENDBRANCH  17  18
ENDBRANCH   4  17
TORSDOF 6
ENDMDL
MODEL 3
REMARK VINA RESULT:      -6.8      6.886      9.135
REMARK  Name = 
REMARK  7 active torsions:
REMARK  status: ('A' for Active; 'I' for Inactive)
REMARK    1  A    between atoms: C_1  and  C_2
REMARK    2  A    between atoms: C_4  and  C_5
REMARK    3  A    between atoms: N_7  and  C_8
REMARK    4  A    between atoms: N_11  and  C_12
REMARK    5  A    between atoms: C_12  and  C_13
REMARK    6  A    between atoms: C_13  and  O_14
REMARK    7  A    between atoms: O_14  and  C_15
REMARK                            x       y       z     vdW  Elec       q    Type
REMARK                         _______ _______ _______ _____ _____    ______ ____
ROOT
ATOM      1  C   UNL     1       7.094   4.566  17.651  0.00  0.00    +0.000 C 
ATOM      2  C   UNL     1       7.948   5.248  18.724  0.00  0.00    +0.000 C 
ATOM      3  C   UNL     1       7.743   6.756  18.843  0.00  0.00    +0.000 C 
ATOM      4  N   UNL     1       7.909   7.404  17.534  0.00  0.00    +0.000 NA
ATOM      5  C   UNL     1       6.809   6.962  16.660  0.00  0.00    +0.000 C 
ATOM      6  C   UNL     1       6.850   5.447  16.411  0.00  0.00    +0.000 C 
ENDROOT
BRANCH   1   9
ATOM      7  C   UNL     1       4.705   4.587  18.437  0.00  0.00    +0.000 C 
ATOM      8  O   UNL     1       4.559   5.782  18.221  0.00  0.00    +0.000 OA
ATOM      9  N   UNL     1       5.886   3.927  18.196  0.00  0.00    +0.000 N 
ATOM     10  H   UNL     1       5.917   2.948  18.464  0.00  0.00    +0.000 HD
BRANCH   7  14
ATOM     11  C   UNL     1       1.457   2.514  21.651  0.00  0.00    +0.000 C 
ATOM     12  C   UNL     1       2.179   2.866  20.396  0.00  0.00    +0.000 A 
ATOM     13  N   UNL     1       3.253   3.628  20.295  0.00  0.00    +0.000 NA
ATOM     14  C   UNL     1       3.595   3.773  18.947  0.00  0.00    +0.000 A 
ATOM     15  C   UNL     1       2.785   3.068  18.074  0.00  0.00    +0.000 A 
ATOM     16  S   UNL     1       1.562   2.240  18.914  0.00  0.00    +0.000 S 
ENDBRANCH   7  14
ENDBRANCH   1   9
BRANCH   4  17
ATOM     17  C   UNL     1       7.909   8.883  17.645  0.00  0.00    +0.000 C 
BRANCH  17  18
ATOM     18  C   UNL     1       8.841   9.411  18.751  0.00  0.00    +0.000 C 
BRANCH  18  19
ATOM     19  O   UNL     1       9.506  10.605  18.319  0.00  0.00    +0.000 OA
BRANCH  19  20
ATOM     20  C   UNL     1       9.612  11.601  19.258  0.00  0.00    +0.000 A 
ATOM     21  C   UNL     1       9.710  11.416  20.640  0.00  0.00    +0.000 A 
ATOM     22  C   UNL     1       9.834  12.513  21.497  0.00  0.00    +0.000 A 
ATOM     23  C   UNL     1       9.858  13.803  20.972  0.00  0.00    +0.000 A 
ATOM     24 BR   UNL     1      10.047  15.284  22.131  0.00  0.00    +0.000 Br
ATOM     25  C   UNL     1       9.751  14.003  19.598  0.00  0.00    +0.000 A 
ATOM     26  C   UNL     1       9.626  12.902  18.746  0.00  0.00    +0.000 A 
ENDBRANCH  19  20
ENDBRANCH  18  19
ENDBRANCH  17  18
ENDBRANCH   4  17
TORSDOF 6
ENDMDL
MODEL 4
REMARK VINA RESULT:      -6.8      1.183      1.301
REMARK  Name = 
REMARK  7 active torsions:
REMARK  status: ('A' for Active; 'I' for Inactive)
REMARK    1  A    between atoms: C_1  and  C_2
REMARK    2  A    between atoms: C_4  and  C_5
REMARK    3  A    between atoms: N_7  and  C_8
REMARK    4  A    between atoms: N_11  and  C_12
REMARK    5  A    between atoms: C_12  and  C_13
REMARK    6  A    between atoms: C_13  and  O_14
REMARK    7  A    between atoms: O_14  and  C_15
REMARK                            x       y       z     vdW  Elec       q    Type
REMARK                         _______ _______ _______ _____ _____    ______ ____
ROOT
ATOM      1  C   UNL     1       1.664   8.711  19.001  0.00  0.00    +0.000 C 
ATOM      2  C   UNL     1       2.416   7.715  18.115  0.00  0.00    +0.000 C 
ATOM      3  C   UNL     1       2.263   6.252  18.524  0.00  0.00    +0.000 C 
ATOM      4  N   UNL     1       2.606   6.074  19.942  0.00  0.00    +0.000 NA
ATOM      5  C   UNL     1       1.596   6.778  20.751  0.00  0.00    +0.000 C 
ATOM      6  C   UNL     1       1.602   8.290  20.481  0.00  0.00    +0.000 C 
ENDROOT
BRANCH   1   9
ATOM      7  C   UNL     1      -0.187  10.372  18.620  0.00  0.00    +0.000 C 
ATOM      8  O   UNL     1       0.344  11.241  19.297  0.00  0.00    +0.000 OA
ATOM      9  N   UNL     1       0.374   9.132  18.430  0.00  0.00    +0.000 N 
ATOM     10  H   UNL     1      -0.177   8.465  17.898  0.00  0.00    +0.000 HD
BRANCH   7  14
ATOM     11  C   UNL     1      -3.728  10.337  15.065  0.00  0.00    +0.000 C 
ATOM     12  C   UNL     1      -3.004  10.596  16.342  0.00  0.00    +0.000 A 
ATOM     13  N   UNL     1      -1.756  10.266  16.618  0.00  0.00    +0.000 NA
ATOM     14  C   UNL     1      -1.462  10.622  17.939  0.00  0.00    +0.000 A 
ATOM     15  C   UNL     1      -2.498  11.258  18.602  0.00  0.00    +0.000 A 
ATOM     16  S   UNL     1      -3.866  11.393  17.604  0.00  0.00    +0.000 S 
ENDBRANCH   7  14
ENDBRANCH   1   9
BRANCH   4  17
ATOM     17  C   UNL     1       2.656   4.642  20.324  0.00  0.00    +0.000 C 
BRANCH  17  18
ATOM     18  C   UNL     1       3.495   3.783  19.359  0.00  0.00    +0.000 C 
BRANCH  18  19
ATOM     19  O   UNL     1       4.867   4.194  19.386  0.00  0.00    +0.000 OA
BRANCH  19  20
ATOM     20  C   UNL     1       5.467   4.352  18.161  0.00  0.00    +0.000 A 
ATOM     21  C   UNL     1       6.800   4.713  17.942  0.00  0.00    +0.000 A 
ATOM     22  C   UNL     1       7.301   4.825  16.642  0.00  0.00    +0.000 A 
ATOM     23  C   UNL     1       6.468   4.575  15.554  0.00  0.00    +0.000 A 
ATOM     24 BR   UNL     1       7.154   4.706  13.799  0.00  0.00    +0.000 Br
ATOM     25  C   UNL     1       5.135   4.226  15.757  0.00  0.00    +0.000 A 
ATOM     26  C   UNL     1       4.638   4.117  17.060  0.00  0.00    +0.000 A 
ENDBRANCH  19  20
ENDBRANCH  18  19
ENDBRANCH  17  18
ENDBRANCH   4  17
TORSDOF 6
ENDMDL
MODEL 5
REMARK VINA RESULT:      -6.8      1.147      1.692
REMARK  Name = 
REMARK  7 active torsions:
REMARK  status: ('A' for Active; 'I' for Inactive)
REMARK    1  A    between atoms: C_1  and  C_2
REMARK    2  A    between atoms: C_4  and  C_5
REMARK    3  A    between atoms: N_7  and  C_8
REMARK    4  A    between atoms: N_11  and  C_12
REMARK    5  A    between atoms: C_12  and  C_13
REMARK    6  A    between atoms: C_13  and  O_14
REMARK    7  A    between atoms: O_14  and  C_15
REMARK                            x       y       z     vdW  Elec       q    Type
REMARK                         _______ _______ _______ _____ _____    ______ ____
ROOT
ATOM      1  C   UNL     1       1.175   9.560  18.747  0.00  0.00    +0.000 C 
ATOM      2  C   UNL     1       2.106   8.550  18.070  0.00  0.00    +0.000 C 
ATOM      3  C   UNL     1       2.052   7.140  18.651  0.00  0.00    +0.000 C 
ATOM      4  N   UNL     1       2.263   7.173  20.106  0.00  0.00    +0.000 NA
ATOM      5  C   UNL     1       1.113   7.857  20.722  0.00  0.00    +0.000 C 
ATOM      6  C   UNL     1       1.002   9.317  20.258  0.00  0.00    +0.000 C 
ENDROOT
BRANCH   1   9
ATOM      7  C   UNL     1      -0.924  10.837  18.206  0.00  0.00    +0.000 C 
ATOM      8  O   UNL     1      -0.695  11.717  19.025  0.00  0.00    +0.000 OA
ATOM      9  N   UNL     1      -0.083   9.767  18.012  0.00  0.00    +0.000 N 
ATOM     10  H   UNL     1      -0.395   9.064  17.349  0.00  0.00    +0.000 HD
BRANCH   7  14
ATOM     11  C   UNL     1      -3.951  10.115  14.271  0.00  0.00    +0.000 C 
ATOM     12  C   UNL     1      -3.426  10.564  15.592  0.00  0.00    +0.000 A 
ATOM     13  N   UNL     1      -2.202  10.387  16.051  0.00  0.00    +0.000 NA
ATOM     14  C   UNL     1      -2.115  10.894  17.352  0.00  0.00    +0.000 A 
ATOM     15  C   UNL     1      -3.280  11.482  17.813  0.00  0.00    +0.000 A 
ATOM     16  S   UNL     1      -4.513  11.386  16.648  0.00  0.00    +0.000 S 
ENDBRANCH   7  14
ENDBRANCH   1   9
BRANCH   4  17
ATOM     17  C   UNL     1       2.410   5.811  20.675  0.00  0.00    +0.000 C 
BRANCH  17  18
ATOM     18  C   UNL     1       2.201   4.691  19.638  0.00  0.00    +0.000 C 
BRANCH  18  19
ATOM     19  O   UNL     1       3.364   3.858  19.558  0.00  0.00    +0.000 OA
BRANCH  19  20
ATOM     20  C   UNL     1       4.144   4.030  18.441  0.00  0.00    +0.000 A 
ATOM     21  C   UNL     1       3.732   3.849  17.118  0.00  0.00    +0.000 A 
ATOM     22  C   UNL     1       4.617   4.074  16.060  0.00  0.00    +0.000 A 
ATOM     23  C   UNL     1       5.923   4.481  16.325  0.00  0.00    +0.000 A 
ATOM     24 BR   UNL     1       7.112   4.805  14.892  0.00  0.00    +0.000 Br
ATOM     25  C   UNL     1       6.351   4.655  17.638  0.00  0.00    +0.000 A 
ATOM     26  C   UNL     1       5.461   4.427  18.692  0.00  0.00    +0.000 A 
ENDBRANCH  19  20
ENDBRANCH  18  19
ENDBRANCH  17  18
ENDBRANCH   4  17
TORSDOF 6
ENDMDL
MODEL 6
REMARK VINA RESULT:      -6.8      1.115      1.566
REMARK  Name = 
REMARK  7 active torsions:
REMARK  status: ('A' for Active; 'I' for Inactive)
REMARK    1  A    between atoms: C_1  and  C_2
REMARK    2  A    between atoms: C_4  and  C_5
REMARK    3  A    between atoms: N_7  and  C_8
REMARK    4  A    between atoms: N_11  and  C_12
REMARK    5  A    between atoms: C_12  and  C_13
REMARK    6  A    between atoms: C_13  and  O_14
REMARK    7  A    between atoms: O_14  and  C_15
REMARK                            x       y       z     vdW  Elec       q    Type
REMARK                         _______ _______ _______ _____ _____    ______ ____
ROOT
ATOM      1  C   UNL     1       1.670   8.875  19.060  0.00  0.00    +0.000 C 
ATOM      2  C   UNL     1       2.556   8.023  18.147  0.00  0.00    +0.000 C 
ATOM      3  C   UNL     1       2.488   6.521  18.410  0.00  0.00    +0.000 C 
ATOM      4  N   UNL     1       2.745   6.233  19.829  0.00  0.00    +0.000 NA
ATOM      5  C   UNL     1       1.632   6.784  20.620  0.00  0.00    +0.000 C 
ATOM      6  C   UNL     1       1.539   8.312  20.488  0.00  0.00    +0.000 C 
ENDROOT
BRANCH   1   9
ATOM      7  C   UNL     1      -0.293  10.411  18.724  0.00  0.00    +0.000 C 
ATOM      8  O   UNL     1       0.101  11.227  19.545  0.00  0.00    +0.000 OA
ATOM      9  N   UNL     1       0.394   9.258  18.434  0.00  0.00    +0.000 N 
ATOM     10  H   UNL     1      -0.050   8.621  17.779  0.00  0.00    +0.000 HD
BRANCH   7  14
ATOM     11  C   UNL     1      -3.700  10.150  15.049  0.00  0.00    +0.000 C 
ATOM     12  C   UNL     1      -3.013  10.511  16.322  0.00  0.00    +0.000 A 
ATOM     13  N   UNL     1      -1.791  10.162  16.681  0.00  0.00    +0.000 NA
ATOM     14  C   UNL     1      -1.531  10.640  17.969  0.00  0.00    +0.000 A 
ATOM     15  C   UNL     1      -2.561  11.381  18.521  0.00  0.00    +0.000 A 
ATOM     16  S   UNL     1      -3.885  11.467  17.460  0.00  0.00    +0.000 S 
ENDBRANCH   7  14
ENDBRANCH   1   9
BRANCH   4  17
ATOM     17  C   UNL     1       2.879   4.778  20.083  0.00  0.00    +0.000 C 
BRANCH  17  18
ATOM     18  C   UNL     1       3.487   4.005  18.897  0.00  0.00    +0.000 C 
BRANCH  18  19
ATOM     19  O   UNL     1       4.902   4.223  18.830  0.00  0.00    +0.000 OA
BRANCH  19  20
ATOM     20  C   UNL     1       5.424   4.363  17.567  0.00  0.00    +0.000 A 
ATOM     21  C   UNL     1       4.702   4.303  16.371  0.00  0.00    +0.000 A 
ATOM     22  C   UNL     1       5.345   4.480  15.143  0.00  0.00    +0.000 A 
ATOM     23  C   UNL     1       6.717   4.719  15.108  0.00  0.00    +0.000 A 
ATOM     24 BR   UNL     1       7.581   4.980  13.448  0.00  0.00    +0.000 Br
ATOM     25  C   UNL     1       7.451   4.771  16.291  0.00  0.00    +0.000 A 
ATOM     26  C   UNL     1       6.802   4.592  17.516  0.00  0.00    +0.000 A 
ENDBRANCH  19  20
ENDBRANCH  18  19
ENDBRANCH  17  18
ENDBRANCH   4  17
TORSDOF 6
ENDMDL
MODEL 7
REMARK VINA RESULT:      -6.8      6.848      9.130
REMARK  Name = 
REMARK  7 active torsions:
REMARK  status: ('A' for Active; 'I' for Inactive)
REMARK    1  A    between atoms: C_1  and  C_2
REMARK    2  A    between atoms: C_4  and  C_5
REMARK    3  A    between atoms: N_7  and  C_8
REMARK    4  A    between atoms: N_11  and  C_12
REMARK    5  A    between atoms: C_12  and  C_13
REMARK    6  A    between atoms: C_13  and  O_14
REMARK    7  A    between atoms: O_14  and  C_15
REMARK                            x       y       z     vdW  Elec       q    Type
REMARK                         _______ _______ _______ _____ _____    ______ ____
ROOT
ATOM      1  C   UNL     1       6.232   5.506  17.252  0.00  0.00    +0.000 C 
ATOM      2  C   UNL     1       7.536   5.269  18.017  0.00  0.00    +0.000 C 
ATOM      3  C   UNL     1       8.003   6.448  18.867  0.00  0.00    +0.000 C 
ATOM      4  N   UNL     1       8.071   7.673  18.057  0.00  0.00    +0.000 NA
ATOM      5  C   UNL     1       6.700   8.039  17.660  0.00  0.00    +0.000 C 
ATOM      6  C   UNL     1       6.054   6.961  16.778  0.00  0.00    +0.000 C 
ENDROOT
BRANCH   1   9
ATOM      7  C   UNL     1       4.433   3.771  17.537  0.00  0.00    +0.000 C 
ATOM      8  O   UNL     1       4.807   3.109  16.580  0.00  0.00    +0.000 OA
ATOM      9  N   UNL     1       5.055   4.933  17.925  0.00  0.00    +0.000 N 
ATOM     10  H   UNL     1       4.629   5.436  18.698  0.00  0.00    +0.000 HD
BRANCH   7  14
ATOM     11  C   UNL     1       1.650   2.723  21.578  0.00  0.00    +0.000 C 
ATOM     12  C   UNL     1       2.093   2.875  20.164  0.00  0.00    +0.000 A 
ATOM     13  N   UNL     1       3.288   3.255  19.752  0.00  0.00    +0.000 NA
ATOM     14  C   UNL     1       3.295   3.337  18.355  0.00  0.00    +0.000 A 
ATOM     15  C   UNL     1       2.104   2.964  17.757  0.00  0.00    +0.000 A 
ATOM     16  S   UNL     1       0.944   2.538  18.924  0.00  0.00    +0.000 S 
ENDBRANCH   7  14
ENDBRANCH   1   9
BRANCH   4  17
ATOM     17  C   UNL     1       8.703   8.792  18.797  0.00  0.00    +0.000 C 
BRANCH  17  18
ATOM     18  C   UNL     1       8.723  10.113  18.006  0.00  0.00    +0.000 C 
BRANCH  18  19
ATOM     19  O   UNL     1       9.998  10.755  18.134  0.00  0.00    +0.000 OA
BRANCH  19  20
ATOM     20  C   UNL     1      10.000  12.117  17.955  0.00  0.00    +0.000 A 
ATOM     21  C   UNL     1       9.021  13.004  18.412  0.00  0.00    +0.000 A 
ATOM     22  C   UNL     1       9.145  14.377  18.184  0.00  0.00    +0.000 A 
ATOM     23  C   UNL     1      10.251  14.868  17.495  0.00  0.00    +0.000 A 
ATOM     24 BR   UNL     1      10.426  16.728  17.206  0.00  0.00    +0.000 Br
ATOM     25  C   UNL     1      11.228  13.995  17.024  0.00  0.00    +0.000 A 
ATOM     26  C   UNL     1      11.099  12.622  17.254  0.00  0.00    +0.000 A 
ENDBRANCH  19  20
ENDBRANCH  18  19
ENDBRANCH  17  18
ENDBRANCH   4  17
TORSDOF 6
ENDMDL
MODEL 8
REMARK VINA RESULT:      -6.7      5.224      9.503
REMARK  Name = 
REMARK  7 active torsions:
REMARK  status: ('A' for Active; 'I' for Inactive)
REMARK    1  A    between atoms: C_1  and  C_2
REMARK    2  A    between atoms: C_4  and  C_5
REMARK    3  A    between atoms: N_7  and  C_8
REMARK    4  A    between atoms: N_11  and  C_12
REMARK    5  A    between atoms: C_12  and  C_13
REMARK    6  A    between atoms: C_13  and  O_14
REMARK    7  A    between atoms: O_14  and  C_15
REMARK                            x       y       z     vdW  Elec       q    Type
REMARK                         _______ _______ _______ _____ _____    ______ ____
ROOT
ATOM      1  C   UNL     1       5.489   4.685  18.093  0.00  0.00    +0.000 C 
ATOM      2  C   UNL     1       4.571   3.668  18.775  0.00  0.00    +0.000 C 
ATOM      3  C   UNL     1       3.175   4.189  19.107  0.00  0.00    +0.000 C 
ATOM      4  N   UNL     1       3.260   5.437  19.879  0.00  0.00    +0.000 NA
ATOM      5  C   UNL     1       3.830   6.478  19.008  0.00  0.00    +0.000 C 
ATOM      6  C   UNL     1       5.260   6.133  18.567  0.00  0.00    +0.000 C 
ENDROOT
BRANCH   1   9
ATOM      7  C   UNL     1       6.712   4.490  15.903  0.00  0.00    +0.000 C 
ATOM      8  O   UNL     1       7.816   4.604  16.417  0.00  0.00    +0.000 OA
ATOM      9  N   UNL     1       5.547   4.522  16.631  0.00  0.00    +0.000 N 
ATOM     10  H   UNL     1       4.683   4.476  16.100  0.00  0.00    +0.000 HD
BRANCH   7  14
ATOM     11  C   UNL     1       4.753   3.084  11.503  0.00  0.00    +0.000 C 
ATOM     12  C   UNL     1       5.682   3.638  12.529  0.00  0.00    +0.000 A 
ATOM     13  N   UNL     1       5.519   3.600  13.838  0.00  0.00    +0.000 NA
ATOM     14  C   UNL     1       6.572   4.281  14.458  0.00  0.00    +0.000 A 
ATOM     15  C   UNL     1       7.526   4.772  13.583  0.00  0.00    +0.000 A 
ATOM     16  S   UNL     1       7.111   4.424  11.973  0.00  0.00    +0.000 S 
ENDBRANCH   7  14
ENDBRANCH   1   9
BRANCH   4  17
ATOM     17  C   UNL     1       1.933   5.867  20.385  0.00  0.00    +0.000 C 
BRANCH  17  18
ATOM     18  C   UNL     1       1.698   7.384  20.269  0.00  0.00    +0.000 C 
BRANCH  18  19
ATOM     19  O   UNL     1       1.675   7.988  21.568  0.00  0.00    +0.000 OA
BRANCH  19  20
ATOM     20  C   UNL     1       0.777   9.015  21.732  0.00  0.00    +0.000 A 
ATOM     21  C   UNL     1       0.187   9.402  22.939  0.00  0.00    +0.000 A 
ATOM     22  C   UNL     1      -0.702  10.479  22.982  0.00  0.00    +0.000 A 
ATOM     23  C   UNL     1      -1.004  11.175  21.813  0.00  0.00    +0.000 A 
ATOM     24 BR   UNL     1      -2.190  12.645  21.878  0.00  0.00    +0.000 Br
ATOM     25  C   UNL     1      -0.432  10.794  20.602  0.00  0.00    +0.000 A 
ATOM     26  C   UNL     1       0.455   9.714  20.565  0.00  0.00    +0.000 A 
ENDBRANCH  19  20
ENDBRANCH  18  19
ENDBRANCH  17  18
ENDBRANCH   4  17
TORSDOF 6
ENDMDL
MODEL 9
REMARK VINA RESULT:      -6.6      6.608      8.755
REMARK  Name = 
REMARK  7 active torsions:
REMARK  status: ('A' for Active; 'I' for Inactive)
REMARK    1  A    between atoms: C_1  and  C_2
REMARK    2  A    between atoms: C_4  and  C_5
REMARK    3  A    between atoms: N_7  and  C_8
REMARK    4  A    between atoms: N_11  and  C_12
REMARK    5  A    between atoms: C_12  and  C_13
REMARK    6  A    between atoms: C_13  and  O_14
REMARK    7  A    between atoms: O_14  and  C_15
REMARK                            x       y       z     vdW  Elec       q    Type
REMARK                         _______ _______ _______ _____ _____    ______ ____
ROOT
ATOM      1  C   UNL     1       5.875   4.919  16.676  0.00  0.00    +0.000 C 
ATOM      2  C   UNL     1       7.243   4.642  17.306  0.00  0.00    +0.000 C 
ATOM      3  C   UNL     1       7.747   5.734  18.246  0.00  0.00    +0.000 C 
ATOM      4  N   UNL     1       7.719   7.043  17.579  0.00  0.00    +0.000 NA
ATOM      5  C   UNL     1       6.312   7.405  17.334  0.00  0.00    +0.000 C 
ATOM      6  C   UNL     1       5.623   6.411  16.388  0.00  0.00    +0.000 C 
ENDROOT
BRANCH   1   9
ATOM      7  C   UNL     1       4.273   4.616  18.592  0.00  0.00    +0.000 C 
ATOM      8  O   UNL     1       4.717   5.567  19.219  0.00  0.00    +0.000 OA
ATOM      9  N   UNL     1       4.771   4.235  17.369  0.00  0.00    +0.000 N 
ATOM     10  H   UNL     1       4.369   3.396  16.960  0.00  0.00    +0.000 HD
BRANCH   7  14
ATOM     11  C   UNL     1       1.169   2.383  21.840  0.00  0.00    +0.000 C 
ATOM     12  C   UNL     1       1.795   2.850  20.571  0.00  0.00    +0.000 A 
ATOM     13  N   UNL     1       2.924   3.525  20.455  0.00  0.00    +0.000 NA
ATOM     14  C   UNL     1       3.144   3.834  19.108  0.00  0.00    +0.000 A 
ATOM     15  C   UNL     1       2.185   3.333  18.244  0.00  0.00    +0.000 A 
ATOM     16  S   UNL     1       0.975   2.499  19.097  0.00  0.00    +0.000 S 
ENDBRANCH   7  14
ENDBRANCH   1   9
BRANCH   4  17
ATOM     17  C   UNL     1       8.381   8.093  18.391  0.00  0.00    +0.000 C 
BRANCH  17  18
ATOM     18  C   UNL     1       8.127   9.519  17.868  0.00  0.00    +0.000 C 
BRANCH  18  19
ATOM     19  O   UNL     1       9.348  10.269  17.844  0.00  0.00    +0.000 OA
BRANCH  19  20
ATOM     20  C   UNL     1       9.405  11.343  18.699  0.00  0.00    +0.000 A 
ATOM     21  C   UNL     1       8.889  12.618  18.447  0.00  0.00    +0.000 A 
ATOM     22  C   UNL     1       8.993  13.628  19.407  0.00  0.00    +0.000 A 
ATOM     23  C   UNL     1       9.615  13.365  20.625  0.00  0.00    +0.000 A 
ATOM     24 BR   UNL     1       9.734  14.727  21.930  0.00  0.00    +0.000 Br
ATOM     25  C   UNL     1      10.143  12.103  20.885  0.00  0.00    +0.000 A 
ATOM     26  C   UNL     1      10.038  11.097  19.921  0.00  0.00    +0.000 A 
ENDBRANCH  19  20
ENDBRANCH  18  19
ENDBRANCH  17  18
ENDBRANCH   4  17
TORSDOF 6
ENDMDL
