MODEL 1
REMARK VINA RESULT:      -7.9      0.000      0.000
REMARK  Name = 
REMARK  10 active torsions:
REMARK  status: ('A' for Active; 'I' for Inactive)
REMARK    1  A    between atoms: C_1  and  C_2
REMARK    2  A    between atoms: C_7  and  C_8
REMARK    3  A    between atoms: C_8  and  O_9
REMARK    4  A    between atoms: O_9  and  C_10
REMARK    5  A    between atoms: C_10  and  C_11
REMARK    6  A    between atoms: C_11  and  N_12
REMARK    7  A    between atoms: C_15  and  C_16
REMARK    8  A    between atoms: C_16  and  O_17
REMARK    9  A    between atoms: C_16  and  C_18
REMARK   10  A    between atoms: C_16  and  C_24
REMARK                            x       y       z     vdW  Elec       q    Type
REMARK                         _______ _______ _______ _____ _____    ______ ____
ROOT
ATOM      1  N   UNL     1       2.803   3.931  18.755  0.00  0.00    +0.000 N 
ATOM      2  C   UNL     1       3.827   4.257  19.841  0.00  0.00    +0.000 C 
ATOM      3  C   UNL     1       5.154   4.632  19.201  0.00  0.00    +0.000 C 
ATOM      4  C   UNL     1       5.113   4.545  17.643  0.00  0.00    +0.000 C 
ATOM      5  C   UNL     1       3.974   5.481  17.190  0.00  0.00    +0.000 C 
ATOM      6  C   UNL     1       2.632   5.100  17.794  0.00  0.00    +0.000 C 
ATOM      7  C   UNL     1       4.640   3.107  17.280  0.00  0.00    +0.000 C 
ATOM      8  C   UNL     1       3.332   2.728  17.972  0.00  0.00    +0.000 C 
ENDROOT
BRANCH   1   9
ATOM      9  C   UNL     1       1.439   3.556  19.375  0.00  0.00    +0.000 C 
BRANCH   9  10
ATOM     10  C   UNL     1       1.149   4.291  20.690  0.00  0.00    +0.000 C 
BRANCH  10  11
ATOM     11  O   UNL     1       0.695   5.605  20.405  0.00  0.00    +0.000 OA
BRANCH  11  12
ATOM     12  C   UNL     1       1.533   6.572  21.041  0.00  0.00    +0.000 C 
BRANCH  12  19
ATOM     13  C   UNL     1      -0.191   8.819  22.035  0.00  0.00    +0.000 C 
ATOM     14  C   UNL     1       0.589   8.921  20.752  0.00  0.00    +0.000 A 
ATOM     15  C   UNL     1       0.508  10.095  19.990  0.00  0.00    +0.000 A 
ATOM     16  C   UNL     1       1.198  10.217  18.777  0.00  0.00    +0.000 A 
ATOM     17  C   UNL     1       1.975   9.159  18.312  0.00  0.00    +0.000 A 
ATOM     18  C   UNL     1       2.069   7.992  19.060  0.00  0.00    +0.000 A 
ATOM     19  C   UNL     1       1.398   7.860  20.290  0.00  0.00    +0.000 A 
ENDBRANCH  12  19
ENDBRANCH  11  12
ENDBRANCH  10  11
ENDBRANCH   9  10
ENDBRANCH   1   9
BRANCH   4  20
ATOM     20  C   UNL     1       6.560   4.867  17.033  0.00  0.00    +0.000 C 
BRANCH  20  21
ATOM     21  C   UNL     1       6.626   4.699  15.487  0.00  0.00    +0.000 A 
ATOM     22  C   UNL     1       5.688   3.927  14.777  0.00  0.00    +0.000 A 
ATOM     23  C   UNL     1       5.777   3.717  13.397  0.00  0.00    +0.000 A 
ATOM     24  C   UNL     1       6.804   4.293  12.668  0.00  0.00    +0.000 A 
ATOM     25  C   UNL     1       7.744   5.076  13.321  0.00  0.00    +0.000 A 
ATOM     26  C   UNL     1       7.665   5.266  14.709  0.00  0.00    +0.000 A 
ENDBRANCH  20  21
BRANCH  20  27
ATOM     27  C   UNL     1       7.113   6.230  17.561  0.00  0.00    +0.000 A 
ATOM     28  C   UNL     1       6.809   7.446  16.921  0.00  0.00    +0.000 A 
ATOM     29  C   UNL     1       7.408   8.654  17.309  0.00  0.00    +0.000 A 
ATOM     30  C   UNL     1       8.325   8.685  18.356  0.00  0.00    +0.000 A 
ATOM     31  C   UNL     1       8.607   7.519  19.044  0.00  0.00    +0.000 A 
ATOM     32  C   UNL     1       7.991   6.324  18.664  0.00  0.00    +0.000 A 
ENDBRANCH  20  27
BRANCH  20  33
ATOM     33  O   UNL     1       7.374   3.841  17.658  0.00  0.00    +0.000 OA
ATOM     34  H   UNL     1       8.049   4.246  18.224  0.00  0.00    +0.000 HD
ENDBRANCH  20  33
ENDBRANCH   4  20
TORSDOF 9
ENDMDL
MODEL 2
REMARK VINA RESULT:      -7.8      0.576      1.958
REMARK  Name = 
REMARK  10 active torsions:
REMARK  status: ('A' for Active; 'I' for Inactive)
REMARK    1  A    between atoms: C_1  and  C_2
REMARK    2  A    between atoms: C_7  and  C_8
REMARK    3  A    between atoms: C_8  and  O_9
REMARK    4  A    between atoms: O_9  and  C_10
REMARK    5  A    between atoms: C_10  and  C_11
REMARK    6  A    between atoms: C_11  and  N_12
REMARK    7  A    between atoms: C_15  and  C_16
REMARK    8  A    between atoms: C_16  and  O_17
REMARK    9  A    between atoms: C_16  and  C_18
REMARK   10  A    between atoms: C_16  and  C_24
REMARK                            x       y       z     vdW  Elec       q    Type
REMARK                         _______ _______ _______ _____ _____    ______ ____
ROOT
ATOM      1  N   UNL     1       2.868   4.416  18.780  0.00  0.00    +0.000 N 
ATOM      2  C   UNL     1       2.882   5.633  17.856  0.00  0.00    +0.000 C 
ATOM      3  C   UNL     1       4.241   5.755  17.186  0.00  0.00    +0.000 C 
ATOM      4  C   UNL     1       5.239   4.647  17.649  0.00  0.00    +0.000 C 
ATOM      5  C   UNL     1       4.562   3.298  17.330  0.00  0.00    +0.000 C 
ATOM      6  C   UNL     1       3.216   3.145  18.018  0.00  0.00    +0.000 C 
ATOM      7  C   UNL     1       5.310   4.720  19.203  0.00  0.00    +0.000 C 
ATOM      8  C   UNL     1       3.932   4.647  19.857  0.00  0.00    +0.000 C 
ENDROOT
BRANCH   1   9
ATOM      9  C   UNL     1       1.495   4.259  19.468  0.00  0.00    +0.000 C 
BRANCH   9  10
ATOM     10  C   UNL     1       1.403   4.993  20.812  0.00  0.00    +0.000 C 
BRANCH  10  11
ATOM     11  O   UNL     1       0.791   6.258  20.616  0.00  0.00    +0.000 OA
BRANCH  11  12
ATOM     12  C   UNL     1       1.718   7.310  20.887  0.00  0.00    +0.000 C 
BRANCH  12  19
ATOM     13  C   UNL     1       1.486   9.217  18.581  0.00  0.00    +0.000 C 
ATOM     14  C   UNL     1       0.831   9.489  19.909  0.00  0.00    +0.000 A 
ATOM     15  C   UNL     1       0.096  10.669  20.083  0.00  0.00    +0.000 A 
ATOM     16  C   UNL     1      -0.507  10.970  21.311  0.00  0.00    +0.000 A 
ATOM     17  C   UNL     1      -0.372  10.090  22.383  0.00  0.00    +0.000 A 
ATOM     18  C   UNL     1       0.350   8.914  22.223  0.00  0.00    +0.000 A 
ATOM     19  C   UNL     1       0.945   8.588  20.990  0.00  0.00    +0.000 A 
ENDBRANCH  12  19
ENDBRANCH  11  12
ENDBRANCH  10  11
ENDBRANCH   9  10
ENDBRANCH   1   9
BRANCH   4  20
ATOM     20  C   UNL     1       6.675   4.881  16.977  0.00  0.00    +0.000 C 
BRANCH  20  21
ATOM     21  C   UNL     1       6.667   4.694  15.432  0.00  0.00    +0.000 A 
ATOM     22  C   UNL     1       5.712   3.893  14.779  0.00  0.00    +0.000 A 
ATOM     23  C   UNL     1       5.736   3.666  13.399  0.00  0.00    +0.000 A 
ATOM     24  C   UNL     1       6.713   4.254  12.612  0.00  0.00    +0.000 A 
ATOM     25  C   UNL     1       7.667   5.066  13.208  0.00  0.00    +0.000 A 
ATOM     26  C   UNL     1       7.653   5.273  14.595  0.00  0.00    +0.000 A 
ENDBRANCH  20  21
BRANCH  20  27
ATOM     27  C   UNL     1       7.324   6.216  17.465  0.00  0.00    +0.000 A 
ATOM     28  C   UNL     1       8.097   6.272  18.640  0.00  0.00    +0.000 A 
ATOM     29  C   UNL     1       8.570   7.490  19.154  0.00  0.00    +0.000 A 
ATOM     30  C   UNL     1       8.290   8.689  18.505  0.00  0.00    +0.000 A 
ATOM     31  C   UNL     1       7.579   8.667  17.319  0.00  0.00    +0.000 A 
ATOM     32  C   UNL     1       7.130   7.449  16.803  0.00  0.00    +0.000 A 
ENDBRANCH  20  27
BRANCH  20  33
ATOM     33  O   UNL     1       7.457   3.818  17.581  0.00  0.00    +0.000 OA
ATOM     34  H   UNL     1       8.366   4.115  17.735  0.00  0.00    +0.000 HD
ENDBRANCH  20  33
ENDBRANCH   4  20
TORSDOF 9
ENDMDL
MODEL 3
REMARK VINA RESULT:      -7.7      0.258      1.380
REMARK  Name = 
REMARK  10 active torsions:
REMARK  status: ('A' for Active; 'I' for Inactive)
REMARK    1  A    between atoms: C_1  and  C_2
REMARK    2  A    between atoms: C_7  and  C_8
REMARK    3  A    between atoms: C_8  and  O_9
REMARK    4  A    between atoms: O_9  and  C_10
REMARK    5  A    between atoms: C_10  and  C_11
REMARK    6  A    between atoms: C_11  and  N_12
REMARK    7  A    between atoms: C_15  and  C_16
REMARK    8  A    between atoms: C_16  and  O_17
REMARK    9  A    between atoms: C_16  and  C_18
REMARK   10  A    between atoms: C_16  and  C_24
REMARK                            x       y       z     vdW  Elec       q    Type
REMARK                         _______ _______ _______ _____ _____    ______ ____
ROOT
ATOM      1  N   UNL     1       2.886   4.166  18.671  0.00  0.00    +0.000 N 
ATOM      2  C   UNL     1       3.343   2.972  17.835  0.00  0.00    +0.000 C 
ATOM      3  C   UNL     1       4.732   3.235  17.277  0.00  0.00    +0.000 C 
ATOM      4  C   UNL     1       5.281   4.641  17.675  0.00  0.00    +0.000 C 
ATOM      5  C   UNL     1       5.263   4.690  19.217  0.00  0.00    +0.000 C 
ATOM      6  C   UNL     1       3.875   4.462  19.790  0.00  0.00    +0.000 C 
ATOM      7  C   UNL     1       4.224   5.688  17.214  0.00  0.00    +0.000 C 
ATOM      8  C   UNL     1       2.824   5.380  17.740  0.00  0.00    +0.000 C 
ENDROOT
BRANCH   1   9
ATOM      9  C   UNL     1       1.480   3.924  19.260  0.00  0.00    +0.000 C 
BRANCH   9  10
ATOM     10  C   UNL     1       1.274   4.590  20.627  0.00  0.00    +0.000 C 
BRANCH  10  11
ATOM     11  O   UNL     1       0.741   5.892  20.441  0.00  0.00    +0.000 OA
BRANCH  11  12
ATOM     12  C   UNL     1       1.652   6.878  20.930  0.00  0.00    +0.000 C 
BRANCH  12  19
ATOM     13  C   UNL     1      -0.155   8.981  22.082  0.00  0.00    +0.000 C 
ATOM     14  C   UNL     1       0.519   9.154  20.747  0.00  0.00    +0.000 A 
ATOM     15  C   UNL     1       0.295  10.326  20.012  0.00  0.00    +0.000 A 
ATOM     16  C   UNL     1       0.884  10.512  18.754  0.00  0.00    +0.000 A 
ATOM     17  C   UNL     1       1.701   9.520  18.217  0.00  0.00    +0.000 A 
ATOM     18  C   UNL     1       1.935   8.356  18.938  0.00  0.00    +0.000 A 
ATOM     19  C   UNL     1       1.367   8.161  20.211  0.00  0.00    +0.000 A 
ENDBRANCH  12  19
ENDBRANCH  11  12
ENDBRANCH  10  11
ENDBRANCH   9  10
ENDBRANCH   1   9
BRANCH   4  20
ATOM     20  C   UNL     1       6.707   4.893  16.988  0.00  0.00    +0.000 C 
BRANCH  20  21
ATOM     21  C   UNL     1       6.684   4.711  15.443  0.00  0.00    +0.000 A 
ATOM     22  C   UNL     1       5.704   3.935  14.795  0.00  0.00    +0.000 A 
ATOM     23  C   UNL     1       5.714   3.712  13.413  0.00  0.00    +0.000 A 
ATOM     24  C   UNL     1       6.699   4.277  12.622  0.00  0.00    +0.000 A 
ATOM     25  C   UNL     1       7.678   5.064  13.213  0.00  0.00    +0.000 A 
ATOM     26  C   UNL     1       7.678   5.267  14.601  0.00  0.00    +0.000 A 
ENDBRANCH  20  21
BRANCH  20  27
ATOM     27  C   UNL     1       7.346   6.234  17.473  0.00  0.00    +0.000 A 
ATOM     28  C   UNL     1       8.116   6.299  18.650  0.00  0.00    +0.000 A 
ATOM     29  C   UNL     1       8.580   7.521  19.160  0.00  0.00    +0.000 A 
ATOM     30  C   UNL     1       8.295   8.716  18.506  0.00  0.00    +0.000 A 
ATOM     31  C   UNL     1       7.588   8.685  17.318  0.00  0.00    +0.000 A 
ATOM     32  C   UNL     1       7.147   7.463  16.806  0.00  0.00    +0.000 A 
ENDBRANCH  20  27
BRANCH  20  33
ATOM     33  O   UNL     1       7.507   3.837  17.580  0.00  0.00    +0.000 OA
ATOM     34  H   UNL     1       8.232   3.592  16.987  0.00  0.00    +0.000 HD
ENDBRANCH  20  33
ENDBRANCH   4  20
TORSDOF 9
ENDMDL
MODEL 4
REMARK VINA RESULT:      -7.6      0.701      1.768
REMARK  Name = 
REMARK  10 active torsions:
REMARK  status: ('A' for Active; 'I' for Inactive)
REMARK    1  A    between atoms: C_1  and  C_2
REMARK    2  A    between atoms: C_7  and  C_8
REMARK    3  A    between atoms: C_8  and  O_9
REMARK    4  A    between atoms: O_9  and  C_10
REMARK    5  A    between atoms: C_10  and  C_11
REMARK    6  A    between atoms: C_11  and  N_12
REMARK    7  A    between atoms: C_15  and  C_16
REMARK    8  A    between atoms: C_16  and  O_17
REMARK    9  A    between atoms: C_16  and  C_18
REMARK   10  A    between atoms: C_16  and  C_24
REMARK                            x       y       z     vdW  Elec       q    Type
REMARK                         _______ _______ _______ _____ _____    ______ ____
ROOT
ATOM      1  N   UNL     1       2.749   4.656  18.864  0.00  0.00    +0.000 N 
ATOM      2  C   UNL     1       3.827   4.869  19.925  0.00  0.00    +0.000 C 
ATOM      3  C   UNL     1       5.181   5.042  19.256  0.00  0.00    +0.000 C 
ATOM      4  C   UNL     1       5.101   4.920  17.702  0.00  0.00    +0.000 C 
ATOM      5  C   UNL     1       4.091   5.989  17.237  0.00  0.00    +0.000 C 
ATOM      6  C   UNL     1       2.722   5.810  17.871  0.00  0.00    +0.000 C 
ATOM      7  C   UNL     1       4.431   3.549  17.388  0.00  0.00    +0.000 C 
ATOM      8  C   UNL     1       3.097   3.370  18.109  0.00  0.00    +0.000 C 
ENDROOT
BRANCH   1   9
ATOM      9  C   UNL     1       1.358   4.487  19.513  0.00  0.00    +0.000 C 
BRANCH   9  10
ATOM     10  C   UNL     1       1.250   5.149  20.892  0.00  0.00    +0.000 C 
BRANCH  10  11
ATOM     11  O   UNL     1       0.584   6.395  20.765  0.00  0.00    +0.000 OA
BRANCH  11  12
ATOM     12  C   UNL     1       1.513   7.473  20.885  0.00  0.00    +0.000 C 
BRANCH  12  19
ATOM     13  C   UNL     1       1.096   9.612  18.820  0.00  0.00    +0.000 C 
ATOM     14  C   UNL     1       0.535   9.728  20.212  0.00  0.00    +0.000 A 
ATOM     15  C   UNL     1      -0.198  10.869  20.564  0.00  0.00    +0.000 A 
ATOM     16  C   UNL     1      -0.714  11.025  21.857  0.00  0.00    +0.000 A 
ATOM     17  C   UNL     1      -0.493  10.039  22.816  0.00  0.00    +0.000 A 
ATOM     18  C   UNL     1       0.227   8.900  22.479  0.00  0.00    +0.000 A 
ATOM     19  C   UNL     1       0.736   8.719  21.179  0.00  0.00    +0.000 A 
ENDBRANCH  12  19
ENDBRANCH  11  12
ENDBRANCH  10  11
ENDBRANCH   9  10
ENDBRANCH   1   9
BRANCH   4  20
ATOM     20  C   UNL     1       6.568   5.024  17.063  0.00  0.00    +0.000 C 
BRANCH  20  21
ATOM     21  C   UNL     1       6.586   4.786  15.526  0.00  0.00    +0.000 A 
ATOM     22  C   UNL     1       5.598   4.024  14.874  0.00  0.00    +0.000 A 
ATOM     23  C   UNL     1       5.642   3.749  13.503  0.00  0.00    +0.000 A 
ATOM     24  C   UNL     1       6.673   4.248  12.724  0.00  0.00    +0.000 A 
ATOM     25  C   UNL     1       7.662   5.019  13.318  0.00  0.00    +0.000 A 
ATOM     26  C   UNL     1       7.626   5.274  14.697  0.00  0.00    +0.000 A 
ENDBRANCH  20  21
BRANCH  20  27
ATOM     27  C   UNL     1       7.301   6.324  17.526  0.00  0.00    +0.000 A 
ATOM     28  C   UNL     1       8.107   6.344  18.681  0.00  0.00    +0.000 A 
ATOM     29  C   UNL     1       8.659   7.535  19.175  0.00  0.00    +0.000 A 
ATOM     30  C   UNL     1       8.428   8.745  18.526  0.00  0.00    +0.000 A 
ATOM     31  C   UNL     1       7.687   8.756  17.359  0.00  0.00    +0.000 A 
ATOM     32  C   UNL     1       7.158   7.563  16.862  0.00  0.00    +0.000 A 
ENDBRANCH  20  27
BRANCH  20  33
ATOM     33  O   UNL     1       7.252   3.928  17.723  0.00  0.00    +0.000 OA
ATOM     34  H   UNL     1       6.752   3.106  17.616  0.00  0.00    +0.000 HD
ENDBRANCH  20  33
ENDBRANCH   4  20
TORSDOF 9
ENDMDL
MODEL 5
REMARK VINA RESULT:      -7.4      3.867      9.930
REMARK  Name = 
REMARK  10 active torsions:
REMARK  status: ('A' for Active; 'I' for Inactive)
REMARK    1  A    between atoms: C_1  and  C_2
REMARK    2  A    between atoms: C_7  and  C_8
REMARK    3  A    between atoms: C_8  and  O_9
REMARK    4  A    between atoms: O_9  and  C_10
REMARK    5  A    between atoms: C_10  and  C_11
REMARK    6  A    between atoms: C_11  and  N_12
REMARK    7  A    between atoms: C_15  and  C_16
REMARK    8  A    between atoms: C_16  and  O_17
REMARK    9  A    between atoms: C_16  and  C_18
REMARK   10  A    between atoms: C_16  and  C_24
REMARK                            x       y       z     vdW  Elec       q    Type
REMARK                         _______ _______ _______ _____ _____    ______ ____
ROOT
ATOM      1  N   UNL     1       1.216   9.942  18.516  0.00  0.00    +0.000 N 
ATOM      2  C   UNL     1       1.961  11.229  18.163  0.00  0.00    +0.000 C 
ATOM      3  C   UNL     1       1.252  12.421  18.786  0.00  0.00    +0.000 C 
ATOM      4  C   UNL     1      -0.036  12.011  19.566  0.00  0.00    +0.000 C 
ATOM      5  C   UNL     1       0.412  10.991  20.632  0.00  0.00    +0.000 C 
ATOM      6  C   UNL     1       1.093   9.776  20.024  0.00  0.00    +0.000 C 
ATOM      7  C   UNL     1      -0.933  11.212  18.575  0.00  0.00    +0.000 C 
ATOM      8  C   UNL     1      -0.190  10.049  17.920  0.00  0.00    +0.000 C 
ENDROOT
BRANCH   1   9
ATOM      9  C   UNL     1       1.918   8.710  17.905  0.00  0.00    +0.000 C 
BRANCH   9  10
ATOM     10  C   UNL     1       2.348   7.677  18.954  0.00  0.00    +0.000 C 
BRANCH  10  11
ATOM     11  O   UNL     1       3.101   6.653  18.325  0.00  0.00    +0.000 OA
BRANCH  11  12
ATOM     12  C   UNL     1       3.542   5.694  19.287  0.00  0.00    +0.000 C 
BRANCH  12  19
ATOM     13  C   UNL     1       4.067   3.676  17.127  0.00  0.00    +0.000 C 
ATOM     14  C   UNL     1       2.943   3.511  18.115  0.00  0.00    +0.000 A 
ATOM     15  C   UNL     1       2.109   2.389  18.026  0.00  0.00    +0.000 A 
ATOM     16  C   UNL     1       1.037   2.214  18.910  0.00  0.00    +0.000 A 
ATOM     17  C   UNL     1       0.786   3.169  19.893  0.00  0.00    +0.000 A 
ATOM     18  C   UNL     1       1.609   4.283  19.997  0.00  0.00    +0.000 A 
ATOM     19  C   UNL     1       2.701   4.464  19.128  0.00  0.00    +0.000 A 
ENDBRANCH  12  19
ENDBRANCH  11  12
ENDBRANCH  10  11
ENDBRANCH   9  10
ENDBRANCH   1   9
BRANCH   4  20
ATOM     20  C   UNL     1      -0.783  13.316  20.123  0.00  0.00    +0.000 C 
BRANCH  20  21
ATOM     21  C   UNL     1      -1.871  12.993  21.187  0.00  0.00    +0.000 A 
ATOM     22  C   UNL     1      -3.243  13.186  20.937  0.00  0.00    +0.000 A 
ATOM     23  C   UNL     1      -4.224  12.960  21.909  0.00  0.00    +0.000 A 
ATOM     24  C   UNL     1      -3.868  12.511  23.170  0.00  0.00    +0.000 A 
ATOM     25  C   UNL     1      -2.528  12.290  23.458  0.00  0.00    +0.000 A 
ATOM     26  C   UNL     1      -1.546  12.539  22.489  0.00  0.00    +0.000 A 
ENDBRANCH  20  21
BRANCH  20  27
ATOM     27  C   UNL     1       0.238  14.418  20.555  0.00  0.00    +0.000 A 
ATOM     28  C   UNL     1       0.368  15.622  19.838  0.00  0.00    +0.000 A 
ATOM     29  C   UNL     1       1.372  16.556  20.140  0.00  0.00    +0.000 A 
ATOM     30  C   UNL     1       2.273  16.317  21.174  0.00  0.00    +0.000 A 
ATOM     31  C   UNL     1       2.142  15.170  21.934  0.00  0.00    +0.000 A 
ATOM     32  C   UNL     1       1.128  14.256  21.641  0.00  0.00    +0.000 A 
ENDBRANCH  20  27
BRANCH  20  33
ATOM     33  O   UNL     1      -1.424  13.820  18.924  0.00  0.00    +0.000 OA
ATOM     34  H   UNL     1      -1.022  13.425  18.136  0.00  0.00    +0.000 HD
ENDBRANCH  20  33
ENDBRANCH   4  20
TORSDOF 9
ENDMDL
MODEL 6
REMARK VINA RESULT:      -7.4      4.126     10.388
REMARK  Name = 
REMARK  10 active torsions:
REMARK  status: ('A' for Active; 'I' for Inactive)
REMARK    1  A    between atoms: C_1  and  C_2
REMARK    2  A    between atoms: C_7  and  C_8
REMARK    3  A    between atoms: C_8  and  O_9
REMARK    4  A    between atoms: O_9  and  C_10
REMARK    5  A    between atoms: C_10  and  C_11
REMARK    6  A    between atoms: C_11  and  N_12
REMARK    7  A    between atoms: C_15  and  C_16
REMARK    8  A    between atoms: C_16  and  O_17
REMARK    9  A    between atoms: C_16  and  C_18
REMARK   10  A    between atoms: C_16  and  C_24
REMARK                            x       y       z     vdW  Elec       q    Type
REMARK                         _______ _______ _______ _____ _____    ______ ____
ROOT
ATOM      1  N   UNL     1       0.864  10.265  18.682  0.00  0.00    +0.000 N 
ATOM      2  C   UNL     1      -0.578  10.675  18.388  0.00  0.00    +0.000 C 
ATOM      3  C   UNL     1      -0.959  11.869  19.249  0.00  0.00    +0.000 C 
ATOM      4  C   UNL     1       0.195  12.312  20.203  0.00  0.00    +0.000 C 
ATOM      5  C   UNL     1       1.406  12.621  19.299  0.00  0.00    +0.000 C 
ATOM      6  C   UNL     1       1.822  11.427  18.456  0.00  0.00    +0.000 C 
ATOM      7  C   UNL     1       0.603  11.061  21.034  0.00  0.00    +0.000 C 
ATOM      8  C   UNL     1       0.933   9.856  20.156  0.00  0.00    +0.000 C 
ENDROOT
BRANCH   1   9
ATOM      9  C   UNL     1       1.285   9.059  17.815  0.00  0.00    +0.000 C 
BRANCH   9  10
ATOM     10  C   UNL     1       2.393   8.211  18.453  0.00  0.00    +0.000 C 
BRANCH  10  11
ATOM     11  O   UNL     1       2.242   6.859  18.050  0.00  0.00    +0.000 OA
BRANCH  11  12
ATOM     12  C   UNL     1       3.102   6.012  18.813  0.00  0.00    +0.000 C 
BRANCH  12  19
ATOM     13  C   UNL     1       3.950   3.881  16.876  0.00  0.00    +0.000 C 
ATOM     14  C   UNL     1       2.895   3.634  17.920  0.00  0.00    +0.000 A 
ATOM     15  C   UNL     1       2.280   2.376  17.991  0.00  0.00    +0.000 A 
ATOM     16  C   UNL     1       1.276   2.116  18.933  0.00  0.00    +0.000 A 
ATOM     17  C   UNL     1       0.872   3.119  19.811  0.00  0.00    +0.000 A 
ATOM     18  C   UNL     1       1.476   4.369  19.754  0.00  0.00    +0.000 A 
ATOM     19  C   UNL     1       2.500   4.641  18.828  0.00  0.00    +0.000 A 
ENDBRANCH  12  19
ENDBRANCH  11  12
ENDBRANCH  10  11
ENDBRANCH   9  10
ENDBRANCH   1   9
BRANCH   4  20
ATOM     20  C   UNL     1      -0.296  13.515  21.142  0.00  0.00    +0.000 C 
BRANCH  20  21
ATOM     21  C   UNL     1      -0.125  14.916  20.485  0.00  0.00    +0.000 A 
ATOM     22  C   UNL     1       0.375  16.021  21.198  0.00  0.00    +0.000 A 
ATOM     23  C   UNL     1       0.471  17.299  20.636  0.00  0.00    +0.000 A 
ATOM     24  C   UNL     1       0.085  17.514  19.323  0.00  0.00    +0.000 A 
ATOM     25  C   UNL     1      -0.399  16.451  18.574  0.00  0.00    +0.000 A 
ATOM     26  C   UNL     1      -0.515  15.177  19.148  0.00  0.00    +0.000 A 
ENDBRANCH  20  21
BRANCH  20  27
ATOM     27  C   UNL     1      -1.721  13.242  21.723  0.00  0.00    +0.000 A 
ATOM     28  C   UNL     1      -2.863  13.879  21.202  0.00  0.00    +0.000 A 
ATOM     29  C   UNL     1      -4.124  13.740  21.803  0.00  0.00    +0.000 A 
ATOM     30  C   UNL     1      -4.283  12.953  22.940  0.00  0.00    +0.000 A 
ATOM     31  C   UNL     1      -3.194  12.269  23.448  0.00  0.00    +0.000 A 
ATOM     32  C   UNL     1      -1.947  12.396  22.832  0.00  0.00    +0.000 A 
ENDBRANCH  20  27
BRANCH  20  33
ATOM     33  O   UNL     1       0.616  13.401  22.264  0.00  0.00    +0.000 OA
ATOM     34  H   UNL     1       0.790  12.469  22.463  0.00  0.00    +0.000 HD
ENDBRANCH  20  33
ENDBRANCH   4  20
TORSDOF 9
ENDMDL
MODEL 7
REMARK VINA RESULT:      -7.4      3.733      9.694
REMARK  Name = 
REMARK  10 active torsions:
REMARK  status: ('A' for Active; 'I' for Inactive)
REMARK    1  A    between atoms: C_1  and  C_2
REMARK    2  A    between atoms: C_7  and  C_8
REMARK    3  A    between atoms: C_8  and  O_9
REMARK    4  A    between atoms: O_9  and  C_10
REMARK    5  A    between atoms: C_10  and  C_11
REMARK    6  A    between atoms: C_11  and  N_12
REMARK    7  A    between atoms: C_15  and  C_16
REMARK    8  A    between atoms: C_16  and  O_17
REMARK    9  A    between atoms: C_16  and  C_18
REMARK   10  A    between atoms: C_16  and  C_24
REMARK                            x       y       z     vdW  Elec       q    Type
REMARK                         _______ _______ _______ _____ _____    ______ ____
ROOT
ATOM      1  N   UNL     1       1.268   9.531  18.490  0.00  0.00    +0.000 N 
ATOM      2  C   UNL     1       2.160  10.702  18.079  0.00  0.00    +0.000 C 
ATOM      3  C   UNL     1       1.569  12.005  18.593  0.00  0.00    +0.000 C 
ATOM      4  C   UNL     1       0.221  11.793  19.351  0.00  0.00    +0.000 C 
ATOM      5  C   UNL     1       0.523  10.809  20.499  0.00  0.00    +0.000 C 
ATOM      6  C   UNL     1       1.083   9.487  20.001  0.00  0.00    +0.000 C 
ATOM      7  C   UNL     1      -0.729  11.025  18.384  0.00  0.00    +0.000 C 
ATOM      8  C   UNL     1      -0.099   9.746  17.837  0.00  0.00    +0.000 C 
ENDROOT
BRANCH   1   9
ATOM      9  C   UNL     1       1.849   8.191  17.992  0.00  0.00    +0.000 C 
BRANCH   9  10
ATOM     10  C   UNL     1       2.495   7.358  19.106  0.00  0.00    +0.000 C 
BRANCH  10  11
ATOM     11  O   UNL     1       3.500   6.525  18.550  0.00  0.00    +0.000 OA
BRANCH  11  12
ATOM     12  C   UNL     1       3.823   5.463  19.449  0.00  0.00    +0.000 C 
BRANCH  12  19
ATOM     13  C   UNL     1       3.891   3.628  17.075  0.00  0.00    +0.000 C 
ATOM     14  C   UNL     1       2.837   3.509  18.143  0.00  0.00    +0.000 A 
ATOM     15  C   UNL     1       1.852   2.520  18.029  0.00  0.00    +0.000 A 
ATOM     16  C   UNL     1       0.840   2.394  18.990  0.00  0.00    +0.000 A 
ATOM     17  C   UNL     1       0.802   3.267  20.075  0.00  0.00    +0.000 A 
ATOM     18  C   UNL     1       1.776   4.249  20.203  0.00  0.00    +0.000 A 
ATOM     19  C   UNL     1       2.811   4.376  19.257  0.00  0.00    +0.000 A 
ENDBRANCH  12  19
ENDBRANCH  11  12
ENDBRANCH  10  11
ENDBRANCH   9  10
ENDBRANCH   1   9
BRANCH   4  20
ATOM     20  C   UNL     1      -0.394  13.206  19.790  0.00  0.00    +0.000 C 
BRANCH  20  21
ATOM     21  C   UNL     1      -1.347  13.107  21.017  0.00  0.00    +0.000 A 
ATOM     22  C   UNL     1      -0.892  13.299  22.335  0.00  0.00    +0.000 A 
ATOM     23  C   UNL     1      -1.726  13.148  23.448  0.00  0.00    +0.000 A 
ATOM     24  C   UNL     1      -3.060  12.815  23.281  0.00  0.00    +0.000 A 
ATOM     25  C   UNL     1      -3.559  12.631  21.999  0.00  0.00    +0.000 A 
ATOM     26  C   UNL     1      -2.714  12.762  20.887  0.00  0.00    +0.000 A 
ENDBRANCH  20  21
BRANCH  20  27
ATOM     27  C   UNL     1       0.717  14.298  19.919  0.00  0.00    +0.000 A 
ATOM     28  C   UNL     1       1.721  14.213  20.903  0.00  0.00    +0.000 A 
ATOM     29  C   UNL     1       2.640  15.254  21.109  0.00  0.00    +0.000 A 
ATOM     30  C   UNL     1       2.588  16.408  20.334  0.00  0.00    +0.000 A 
ATOM     31  C   UNL     1       1.650  16.503  19.323  0.00  0.00    +0.000 A 
ATOM     32  C   UNL     1       0.752  15.455  19.110  0.00  0.00    +0.000 A 
ENDBRANCH  20  27
BRANCH  20  33
ATOM     33  O   UNL     1      -1.167  13.566  18.616  0.00  0.00    +0.000 OA
ATOM     34  H   UNL     1      -1.694  12.811  18.315  0.00  0.00    +0.000 HD
ENDBRANCH  20  33
ENDBRANCH   4  20
TORSDOF 9
ENDMDL
MODEL 8
REMARK VINA RESULT:      -7.3      4.151     10.335
REMARK  Name = 
REMARK  10 active torsions:
REMARK  status: ('A' for Active; 'I' for Inactive)
REMARK    1  A    between atoms: C_1  and  C_2
REMARK    2  A    between atoms: C_7  and  C_8
REMARK    3  A    between atoms: C_8  and  O_9
REMARK    4  A    between atoms: O_9  and  C_10
REMARK    5  A    between atoms: C_10  and  C_11
REMARK    6  A    between atoms: C_11  and  N_12
REMARK    7  A    between atoms: C_15  and  C_16
REMARK    8  A    between atoms: C_16  and  O_17
REMARK    9  A    between atoms: C_16  and  C_18
REMARK   10  A    between atoms: C_16  and  C_24
REMARK                            x       y       z     vdW  Elec       q    Type
REMARK                         _______ _______ _______ _____ _____    ______ ____
ROOT
ATOM      1  N   UNL     1       0.948  10.218  18.895  0.00  0.00    +0.000 N 
ATOM      2  C   UNL     1       0.994   9.942  20.397  0.00  0.00    +0.000 C 
ATOM      3  C   UNL     1       0.477  11.152  21.159  0.00  0.00    +0.000 C 
ATOM      4  C   UNL     1       0.085  12.331  20.215  0.00  0.00    +0.000 C 
ATOM      5  C   UNL     1      -0.973  11.771  19.243  0.00  0.00    +0.000 C 
ATOM      6  C   UNL     1      -0.462  10.581  18.448  0.00  0.00    +0.000 C 
ATOM      7  C   UNL     1       1.333  12.644  19.337  0.00  0.00    +0.000 C 
ATOM      8  C   UNL     1       1.870  11.408  18.619  0.00  0.00    +0.000 C 
ENDROOT
BRANCH   1   9
ATOM      9  C   UNL     1       1.457   9.001  18.092  0.00  0.00    +0.000 C 
BRANCH   9  10
ATOM     10  C   UNL     1       2.150   7.947  18.965  0.00  0.00    +0.000 C 
BRANCH  10  11
ATOM     11  O   UNL     1       2.754   6.970  18.133  0.00  0.00    +0.000 OA
BRANCH  11  12
ATOM     12  C   UNL     1       3.464   6.013  18.921  0.00  0.00    +0.000 C 
BRANCH  12  19
ATOM     13  C   UNL     1       3.837   3.887  16.834  0.00  0.00    +0.000 C 
ATOM     14  C   UNL     1       2.838   3.740  17.950  0.00  0.00    +0.000 A 
ATOM     15  C   UNL     1       2.051   2.583  18.020  0.00  0.00    +0.000 A 
ATOM     16  C   UNL     1       1.093   2.422  19.030  0.00  0.00    +0.000 A 
ATOM     17  C   UNL     1       0.910   3.425  19.978  0.00  0.00    +0.000 A 
ATOM     18  C   UNL     1       1.687   4.575  19.924  0.00  0.00    +0.000 A 
ATOM     19  C   UNL     1       2.668   4.744  18.928  0.00  0.00    +0.000 A 
ENDBRANCH  12  19
ENDBRANCH  11  12
ENDBRANCH  10  11
ENDBRANCH   9  10
ENDBRANCH   1   9
BRANCH   4  20
ATOM     20  C   UNL     1      -0.368  13.603  21.079  0.00  0.00    +0.000 C 
BRANCH  20  21
ATOM     21  C   UNL     1      -0.035  14.960  20.394  0.00  0.00    +0.000 A 
ATOM     22  C   UNL     1      -0.561  15.313  19.137  0.00  0.00    +0.000 A 
ATOM     23  C   UNL     1      -0.216  16.502  18.484  0.00  0.00    +0.000 A 
ATOM     24  C   UNL     1       0.658  17.397  19.079  0.00  0.00    +0.000 A 
ATOM     25  C   UNL     1       1.190  17.100  20.326  0.00  0.00    +0.000 A 
ATOM     26  C   UNL     1       0.859  15.897  20.967  0.00  0.00    +0.000 A 
ENDBRANCH  20  21
BRANCH  20  27
ATOM     27  C   UNL     1      -1.848  13.467  21.563  0.00  0.00    +0.000 A 
ATOM     28  C   UNL     1      -2.175  12.772  22.742  0.00  0.00    +0.000 A 
ATOM     29  C   UNL     1      -3.508  12.532  23.111  0.00  0.00    +0.000 A 
ATOM     30  C   UNL     1      -4.556  12.988  22.315  0.00  0.00    +0.000 A 
ATOM     31  C   UNL     1      -4.272  13.721  21.178  0.00  0.00    +0.000 A 
ATOM     32  C   UNL     1      -2.944  13.973  20.829  0.00  0.00    +0.000 A 
ENDBRANCH  20  27
BRANCH  20  33
ATOM     33  O   UNL     1       0.451  13.456  22.267  0.00  0.00    +0.000 OA
ATOM     34  H   UNL     1       1.362  13.235  22.023  0.00  0.00    +0.000 HD
ENDBRANCH  20  33
ENDBRANCH   4  20
TORSDOF 9
ENDMDL
MODEL 9
REMARK VINA RESULT:      -7.3      3.579      9.702
REMARK  Name = 
REMARK  10 active torsions:
REMARK  status: ('A' for Active; 'I' for Inactive)
REMARK    1  A    between atoms: C_1  and  C_2
REMARK    2  A    between atoms: C_7  and  C_8
REMARK    3  A    between atoms: C_8  and  O_9
REMARK    4  A    between atoms: O_9  and  C_10
REMARK    5  A    between atoms: C_10  and  C_11
REMARK    6  A    between atoms: C_11  and  N_12
REMARK    7  A    between atoms: C_15  and  C_16
REMARK    8  A    between atoms: C_16  and  O_17
REMARK    9  A    between atoms: C_16  and  C_18
REMARK   10  A    between atoms: C_16  and  C_24
REMARK                            x       y       z     vdW  Elec       q    Type
REMARK                         _______ _______ _______ _____ _____    ______ ____
ROOT
ATOM      1  N   UNL     1       1.410   9.318  18.571  0.00  0.00    +0.000 N 
ATOM      2  C   UNL     1       2.237  10.544  18.184  0.00  0.00    +0.000 C 
ATOM      3  C   UNL     1       1.543  11.807  18.669  0.00  0.00    +0.000 C 
ATOM      4  C   UNL     1       0.186  11.509  19.381  0.00  0.00    +0.000 C 
ATOM      5  C   UNL     1       0.513  10.552  20.545  0.00  0.00    +0.000 C 
ATOM      6  C   UNL     1       1.176   9.268  20.075  0.00  0.00    +0.000 C 
ATOM      7  C   UNL     1      -0.676  10.677  18.387  0.00  0.00    +0.000 C 
ATOM      8  C   UNL     1       0.055   9.439  17.870  0.00  0.00    +0.000 C 
ENDROOT
BRANCH   1   9
ATOM      9  C   UNL     1       2.095   8.017  18.101  0.00  0.00    +0.000 C 
BRANCH   9  10
ATOM     10  C   UNL     1       2.484   7.086  19.256  0.00  0.00    +0.000 C 
BRANCH  10  11
ATOM     11  O   UNL     1       2.947   5.852  18.731  0.00  0.00    +0.000 OA
BRANCH  11  12
ATOM     12  C   UNL     1       4.251   5.553  19.232  0.00  0.00    +0.000 C 
BRANCH  12  19
ATOM     13  C   UNL     1       7.250   5.677  19.289  0.00  0.00    +0.000 C 
ATOM     14  C   UNL     1       6.497   5.136  18.103  0.00  0.00    +0.000 A 
ATOM     15  C   UNL     1       7.211   4.681  16.986  0.00  0.00    +0.000 A 
ATOM     16  C   UNL     1       6.545   4.195  15.853  0.00  0.00    +0.000 A 
ATOM     17  C   UNL     1       5.153   4.166  15.826  0.00  0.00    +0.000 A 
ATOM     18  C   UNL     1       4.433   4.608  16.929  0.00  0.00    +0.000 A 
ATOM     19  C   UNL     1       5.086   5.081  18.082  0.00  0.00    +0.000 A 
ENDBRANCH  12  19
ENDBRANCH  11  12
ENDBRANCH  10  11
ENDBRANCH   9  10
ENDBRANCH   1   9
BRANCH   4  20
ATOM     20  C   UNL     1      -0.536  12.880  19.790  0.00  0.00    +0.000 C 
BRANCH  20  21
ATOM     21  C   UNL     1      -1.642  12.694  20.868  0.00  0.00    +0.000 A 
ATOM     22  C   UNL     1      -3.010  12.847  20.572  0.00  0.00    +0.000 A 
ATOM     23  C   UNL     1      -4.007  12.745  21.547  0.00  0.00    +0.000 A 
ATOM     24  C   UNL     1      -3.672  12.466  22.862  0.00  0.00    +0.000 A 
ATOM     25  C   UNL     1      -2.338  12.290  23.200  0.00  0.00    +0.000 A 
ATOM     26  C   UNL     1      -1.339  12.415  22.223  0.00  0.00    +0.000 A 
ENDBRANCH  20  21
BRANCH  20  27
ATOM     27  C   UNL     1       0.506  13.999  20.118  0.00  0.00    +0.000 A 
ATOM     28  C   UNL     1       1.362  13.905  21.232  0.00  0.00    +0.000 A 
ATOM     29  C   UNL     1       2.204  14.963  21.606  0.00  0.00    +0.000 A 
ATOM     30  C   UNL     1       2.222  16.147  20.874  0.00  0.00    +0.000 A 
ATOM     31  C   UNL     1       1.434  16.254  19.743  0.00  0.00    +0.000 A 
ATOM     32  C   UNL     1       0.615  15.189  19.364  0.00  0.00    +0.000 A 
ENDBRANCH  20  27
BRANCH  20  33
ATOM     33  O   UNL     1      -1.153  13.271  18.537  0.00  0.00    +0.000 OA
ATOM     34  H   UNL     1      -0.905  14.179  18.308  0.00  0.00    +0.000 HD
ENDBRANCH  20  33
ENDBRANCH   4  20
TORSDOF 9
ENDMDL
