MODEL 1
REMARK VINA RESULT:      -8.3      0.000      0.000
REMARK  Name = 
REMARK  12 active torsions:
REMARK  status: ('A' for Active; 'I' for Inactive)
REMARK    1  A    between atoms: C_1  and  C_2
REMARK    2  A    between atoms: C_2  and  O_3
REMARK    3  A    between atoms: O_3  and  C_4
REMARK    4  A    between atoms: C_4  and  C_6
REMARK    5  A    between atoms: C_6  and  C_7
REMARK    6  A    between atoms: C_7  and  C_8
REMARK    7  A    between atoms: C_8  and  C_9
REMARK    8  A    between atoms: C_9  and  N_10
REMARK    9  A    between atoms: N_10  and  C_11
REMARK   10  A    between atoms: N_10  and  C_18
REMARK   11  A    between atoms: C_11  and  C_12
REMARK   12  A    between atoms: C_18  and  C_19
REMARK                            x       y       z     vdW  Elec       q    Type
REMARK                         _______ _______ _______ _____ _____    ______ ____
ROOT
ATOM      1  N   UNL     1       6.352   6.530  16.379  0.00  0.00    +0.000 NA
ENDROOT
BRANCH   1   2
ATOM      2  C   UNL     1       6.652   6.883  17.788  0.00  0.00    +0.000 C 
BRANCH   2   3
ATOM      3  C   UNL     1       8.051   7.474  18.025  0.00  0.00    +0.000 C 
BRANCH   3   4
ATOM      4  C   UNL     1       8.088   9.002  17.908  0.00  0.00    +0.000 C 
BRANCH   4   5
ATOM      5  C   UNL     1       8.988   9.657  18.953  0.00  0.00    +0.000 C 
BRANCH   5   6
ATOM      6  C   UNL     1       9.558  10.966  18.469  0.00  0.00    +0.000 C 
ATOM      7  O   UNL     1      10.442  11.099  17.629  0.00  0.00    +0.000 OA
BRANCH   6   8
ATOM      8  O   UNL     1       8.990  11.982  19.175  0.00  0.00    +0.000 OA
BRANCH   8  10
ATOM      9  C   UNL     1      10.529  13.170  20.556  0.00  0.00    +0.000 C 
ATOM     10  C   UNL     1       9.765  13.186  19.242  0.00  0.00    +0.000 C 
ENDBRANCH   8  10
ENDBRANCH   6   8
ENDBRANCH   5   6
ENDBRANCH   4   5
ENDBRANCH   3   4
ENDBRANCH   2   3
ENDBRANCH   1   2
BRANCH   1  11
ATOM     11  C   UNL     1       6.932   5.202  16.038  0.00  0.00    +0.000 C 
BRANCH  11  12
ATOM     12  C   UNL     1       6.862   4.792  14.577  0.00  0.00    +0.000 A 
ATOM     13  C   UNL     1       5.943   3.837  14.115  0.00  0.00    +0.000 A 
ATOM     14  C   UNL     1       5.965   3.418  12.783  0.00  0.00    +0.000 A 
ATOM     15  C   UNL     1       6.873   3.977  11.887  0.00  0.00    +0.000 A 
ATOM     16  C   UNL     1       7.732   4.989  12.311  0.00  0.00    +0.000 A 
ATOM     17  C   UNL     1       7.719   5.401  13.645  0.00  0.00    +0.000 A 
ENDBRANCH  11  12
ENDBRANCH   1  11
BRANCH   1  18
ATOM     18  C   UNL     1       4.879   6.489  16.203  0.00  0.00    +0.000 C 
BRANCH  18  19
ATOM     19  C   UNL     1       4.097   5.834  17.328  0.00  0.00    +0.000 A 
ATOM     20  C   UNL     1       3.583   6.594  18.384  0.00  0.00    +0.000 A 
ATOM     21  C   UNL     1       2.662   6.035  19.274  0.00  0.00    +0.000 A 
ATOM     22  C   UNL     1       2.220   4.712  19.112  0.00  0.00    +0.000 A 
ATOM     23  C   UNL     1       1.180   4.182  19.894  0.00  0.00    +0.000 A 
ATOM     24  C   UNL     1       0.722   2.880  19.687  0.00  0.00    +0.000 A 
ATOM     25  C   UNL     1       1.336   2.071  18.736  0.00  0.00    +0.000 A 
ATOM     26  C   UNL     1       2.381   2.577  17.960  0.00  0.00    +0.000 A 
ATOM     27  C   UNL     1       2.803   3.908  18.108  0.00  0.00    +0.000 A 
ATOM     28  C   UNL     1       3.748   4.476  17.238  0.00  0.00    +0.000 A 
ENDBRANCH  18  19
ENDBRANCH   1  18
TORSDOF 11
ENDMDL
MODEL 2
REMARK VINA RESULT:      -8.2      4.458      7.699
REMARK  Name = 
REMARK  12 active torsions:
REMARK  status: ('A' for Active; 'I' for Inactive)
REMARK    1  A    between atoms: C_1  and  C_2
REMARK    2  A    between atoms: C_2  and  O_3
REMARK    3  A    between atoms: O_3  and  C_4
REMARK    4  A    between atoms: C_4  and  C_6
REMARK    5  A    between atoms: C_6  and  C_7
REMARK    6  A    between atoms: C_7  and  C_8
REMARK    7  A    between atoms: C_8  and  C_9
REMARK    8  A    between atoms: C_9  and  N_10
REMARK    9  A    between atoms: N_10  and  C_11
REMARK   10  A    between atoms: N_10  and  C_18
REMARK   11  A    between atoms: C_11  and  C_12
REMARK   12  A    between atoms: C_18  and  C_19
REMARK                            x       y       z     vdW  Elec       q    Type
REMARK                         _______ _______ _______ _____ _____    ______ ____
ROOT
ATOM      1  N   UNL     1       4.271   3.785  17.173  0.00  0.00    +0.000 NA
ENDROOT
BRANCH   1   2
ATOM      2  C   UNL     1       5.429   3.425  16.318  0.00  0.00    +0.000 C 
BRANCH   2   3
ATOM      3  C   UNL     1       6.336   4.602  15.925  0.00  0.00    +0.000 C 
BRANCH   3   4
ATOM      4  C   UNL     1       6.433   4.809  14.409  0.00  0.00    +0.000 C 
BRANCH   4   5
ATOM      5  C   UNL     1       5.498   3.893  13.622  0.00  0.00    +0.000 C 
BRANCH   5   6
ATOM      6  C   UNL     1       6.112   3.437  12.324  0.00  0.00    +0.000 C 
ATOM      7  O   UNL     1       7.267   3.643  11.963  0.00  0.00    +0.000 OA
BRANCH   6   8
ATOM      8  O   UNL     1       5.155   2.826  11.574  0.00  0.00    +0.000 OA
BRANCH   8  10
ATOM      9  C   UNL     1       3.251   3.121  10.169  0.00  0.00    +0.000 C 
ATOM     10  C   UNL     1       3.915   3.537  11.471  0.00  0.00    +0.000 C 
ENDBRANCH   8  10
ENDBRANCH   6   8
ENDBRANCH   5   6
ENDBRANCH   4   5
ENDBRANCH   3   4
ENDBRANCH   2   3
ENDBRANCH   1   2
BRANCH   1  11
ATOM     11  C   UNL     1       3.649   2.562  17.753  0.00  0.00    +0.000 C 
BRANCH  11  12
ATOM     12  C   UNL     1       2.763   2.770  18.968  0.00  0.00    +0.000 A 
ATOM     13  C   UNL     1       1.471   3.307  18.864  0.00  0.00    +0.000 A 
ATOM     14  C   UNL     1       0.716   3.568  20.010  0.00  0.00    +0.000 A 
ATOM     15  C   UNL     1       1.224   3.256  21.269  0.00  0.00    +0.000 A 
ATOM     16  C   UNL     1       2.469   2.641  21.382  0.00  0.00    +0.000 A 
ATOM     17  C   UNL     1       3.228   2.390  20.238  0.00  0.00    +0.000 A 
ENDBRANCH  11  12
ENDBRANCH   1  11
BRANCH   1  18
ATOM     18  C   UNL     1       4.745   4.668  18.267  0.00  0.00    +0.000 C 
BRANCH  18  19
ATOM     19  C   UNL     1       4.044   6.009  18.383  0.00  0.00    +0.000 A 
ATOM     20  C   UNL     1       3.978   6.883  17.293  0.00  0.00    +0.000 A 
ATOM     21  C   UNL     1       3.128   7.992  17.325  0.00  0.00    +0.000 A 
ATOM     22  C   UNL     1       2.310   8.236  18.440  0.00  0.00    +0.000 A 
ATOM     23  C   UNL     1       1.336   9.248  18.431  0.00  0.00    +0.000 A 
ATOM     24  C   UNL     1       0.500   9.445  19.532  0.00  0.00    +0.000 A 
ATOM     25  C   UNL     1       0.667   8.673  20.677  0.00  0.00    +0.000 A 
ATOM     26  C   UNL     1       1.640   7.672  20.708  0.00  0.00    +0.000 A 
ATOM     27  C   UNL     1       2.439   7.416  19.582  0.00  0.00    +0.000 A 
ATOM     28  C   UNL     1       3.318   6.320  19.544  0.00  0.00    +0.000 A 
ENDBRANCH  18  19
ENDBRANCH   1  18
TORSDOF 11
ENDMDL
MODEL 3
REMARK VINA RESULT:      -8.2      4.058      7.229
REMARK  Name = 
REMARK  12 active torsions:
REMARK  status: ('A' for Active; 'I' for Inactive)
REMARK    1  A    between atoms: C_1  and  C_2
REMARK    2  A    between atoms: C_2  and  O_3
REMARK    3  A    between atoms: O_3  and  C_4
REMARK    4  A    between atoms: C_4  and  C_6
REMARK    5  A    between atoms: C_6  and  C_7
REMARK    6  A    between atoms: C_7  and  C_8
REMARK    7  A    between atoms: C_8  and  C_9
REMARK    8  A    between atoms: C_9  and  N_10
REMARK    9  A    between atoms: N_10  and  C_11
REMARK   10  A    between atoms: N_10  and  C_18
REMARK   11  A    between atoms: C_11  and  C_12
REMARK   12  A    between atoms: C_18  and  C_19
REMARK                            x       y       z     vdW  Elec       q    Type
REMARK                         _______ _______ _______ _____ _____    ______ ____
ROOT
ATOM      1  N   UNL     1       3.388   4.597  17.185  0.00  0.00    +0.000 NA
ENDROOT
BRANCH   1   2
ATOM      2  C   UNL     1       4.599   4.153  16.452  0.00  0.00    +0.000 C 
BRANCH   2   3
ATOM      3  C   UNL     1       5.895   4.159  17.278  0.00  0.00    +0.000 C 
BRANCH   3   4
ATOM      4  C   UNL     1       7.112   4.649  16.487  0.00  0.00    +0.000 C 
BRANCH   4   5
ATOM      5  C   UNL     1       6.738   5.569  15.327  0.00  0.00    +0.000 C 
BRANCH   5   6
ATOM      6  C   UNL     1       7.284   5.075  14.012  0.00  0.00    +0.000 C 
ATOM      7  O   UNL     1       8.229   5.560  13.399  0.00  0.00    +0.000 OA
BRANCH   6   8
ATOM      8  O   UNL     1       6.508   4.049  13.570  0.00  0.00    +0.000 OA
BRANCH   8  10
ATOM      9  C   UNL     1       5.624   2.678  11.830  0.00  0.00    +0.000 C 
ATOM     10  C   UNL     1       6.700   3.686  12.196  0.00  0.00    +0.000 C 
ENDBRANCH   8  10
ENDBRANCH   6   8
ENDBRANCH   5   6
ENDBRANCH   4   5
ENDBRANCH   3   4
ENDBRANCH   2   3
ENDBRANCH   1   2
BRANCH   1  11
ATOM     11  C   UNL     1       2.542   3.429  17.555  0.00  0.00    +0.000 C 
BRANCH  11  12
ATOM     12  C   UNL     1       2.339   3.187  19.040  0.00  0.00    +0.000 A 
ATOM     13  C   UNL     1       3.362   2.683  19.858  0.00  0.00    +0.000 A 
ATOM     14  C   UNL     1       3.115   2.389  21.202  0.00  0.00    +0.000 A 
ATOM     15  C   UNL     1       1.860   2.635  21.754  0.00  0.00    +0.000 A 
ATOM     16  C   UNL     1       0.862   3.217  20.976  0.00  0.00    +0.000 A 
ATOM     17  C   UNL     1       1.103   3.501  19.631  0.00  0.00    +0.000 A 
ENDBRANCH  11  12
ENDBRANCH   1  11
BRANCH   1  18
ATOM     18  C   UNL     1       3.811   5.312  18.414  0.00  0.00    +0.000 C 
BRANCH  18  19
ATOM     19  C   UNL     1       3.154   6.659  18.655  0.00  0.00    +0.000 A 
ATOM     20  C   UNL     1       3.062   7.608  17.630  0.00  0.00    +0.000 A 
ATOM     21  C   UNL     1       2.245   8.731  17.779  0.00  0.00    +0.000 A 
ATOM     22  C   UNL     1       1.486   8.918  18.946  0.00  0.00    +0.000 A 
ATOM     23  C   UNL     1       0.541   9.951  19.052  0.00  0.00    +0.000 A 
ATOM     24  C   UNL     1      -0.238  10.092  20.202  0.00  0.00    +0.000 A 
ATOM     25  C   UNL     1      -0.040   9.239  21.282  0.00  0.00    +0.000 A 
ATOM     26  C   UNL     1       0.905   8.215  21.200  0.00  0.00    +0.000 A 
ATOM     27  C   UNL     1       1.645   8.018  20.021  0.00  0.00    +0.000 A 
ATOM     28  C   UNL     1       2.491   6.907  19.867  0.00  0.00    +0.000 A 
ENDBRANCH  18  19
ENDBRANCH   1  18
TORSDOF 11
ENDMDL
MODEL 4
REMARK VINA RESULT:      -8.1      3.716      7.152
REMARK  Name = 
REMARK  12 active torsions:
REMARK  status: ('A' for Active; 'I' for Inactive)
REMARK    1  A    between atoms: C_1  and  C_2
REMARK    2  A    between atoms: C_2  and  O_3
REMARK    3  A    between atoms: O_3  and  C_4
REMARK    4  A    between atoms: C_4  and  C_6
REMARK    5  A    between atoms: C_6  and  C_7
REMARK    6  A    between atoms: C_7  and  C_8
REMARK    7  A    between atoms: C_8  and  C_9
REMARK    8  A    between atoms: C_9  and  N_10
REMARK    9  A    between atoms: N_10  and  C_11
REMARK   10  A    between atoms: N_10  and  C_18
REMARK   11  A    between atoms: C_11  and  C_12
REMARK   12  A    between atoms: C_18  and  C_19
REMARK                            x       y       z     vdW  Elec       q    Type
REMARK                         _______ _______ _______ _____ _____    ______ ____
ROOT
ATOM      1  N   UNL     1       2.517   6.215  18.176  0.00  0.00    +0.000 NA
ENDROOT
BRANCH   1   2
ATOM      2  C   UNL     1       3.917   6.159  17.687  0.00  0.00    +0.000 C 
BRANCH   2   3
ATOM      3  C   UNL     1       4.983   6.021  18.786  0.00  0.00    +0.000 C 
BRANCH   3   4
ATOM      4  C   UNL     1       5.934   4.841  18.558  0.00  0.00    +0.000 C 
BRANCH   4   5
ATOM      5  C   UNL     1       7.374   5.278  18.301  0.00  0.00    +0.000 C 
BRANCH   5   6
ATOM      6  C   UNL     1       7.569   5.795  16.899  0.00  0.00    +0.000 C 
ATOM      7  O   UNL     1       7.636   6.975  16.570  0.00  0.00    +0.000 OA
BRANCH   6   8
ATOM      8  O   UNL     1       7.577   4.741  16.038  0.00  0.00    +0.000 OA
BRANCH   8  10
ATOM      9  C   UNL     1       5.581   4.113  14.895  0.00  0.00    +0.000 C 
ATOM     10  C   UNL     1       6.851   4.944  14.819  0.00  0.00    +0.000 C 
ENDBRANCH   8  10
ENDBRANCH   6   8
ENDBRANCH   5   6
ENDBRANCH   4   5
ENDBRANCH   3   4
ENDBRANCH   2   3
ENDBRANCH   1   2
BRANCH   1  11
ATOM     11  C   UNL     1       1.863   4.884  18.042  0.00  0.00    +0.000 C 
BRANCH  11  12
ATOM     12  C   UNL     1       1.963   3.960  19.243  0.00  0.00    +0.000 A 
ATOM     13  C   UNL     1       0.941   3.873  20.201  0.00  0.00    +0.000 A 
ATOM     14  C   UNL     1       1.103   3.080  21.340  0.00  0.00    +0.000 A 
ATOM     15  C   UNL     1       2.266   2.332  21.514  0.00  0.00    +0.000 A 
ATOM     16  C   UNL     1       3.249   2.340  20.527  0.00  0.00    +0.000 A 
ATOM     17  C   UNL     1       3.094   3.141  19.394  0.00  0.00    +0.000 A 
ENDBRANCH  11  12
ENDBRANCH   1  11
BRANCH   1  18
ATOM     18  C   UNL     1       2.529   6.620  19.604  0.00  0.00    +0.000 C 
BRANCH  18  19
ATOM     19  C   UNL     1       1.880   7.957  19.916  0.00  0.00    +0.000 A 
ATOM     20  C   UNL     1       1.536   8.846  18.892  0.00  0.00    +0.000 A 
ATOM     21  C   UNL     1       0.721   9.950  19.158  0.00  0.00    +0.000 A 
ATOM     22  C   UNL     1       0.217  10.174  20.449  0.00  0.00    +0.000 A 
ATOM     23  C   UNL     1      -0.728  11.182  20.705  0.00  0.00    +0.000 A 
ATOM     24  C   UNL     1      -1.254  11.359  21.985  0.00  0.00    +0.000 A 
ATOM     25  C   UNL     1      -0.799  10.571  23.038  0.00  0.00    +0.000 A 
ATOM     26  C   UNL     1       0.151   9.575  22.804  0.00  0.00    +0.000 A 
ATOM     27  C   UNL     1       0.635   9.338  21.507  0.00  0.00    +0.000 A 
ATOM     28  C   UNL     1       1.476   8.248  21.229  0.00  0.00    +0.000 A 
ENDBRANCH  18  19
ENDBRANCH   1  18
TORSDOF 11
ENDMDL
MODEL 5
REMARK VINA RESULT:      -8.0      4.735      7.697
REMARK  Name = 
REMARK  12 active torsions:
REMARK  status: ('A' for Active; 'I' for Inactive)
REMARK    1  A    between atoms: C_1  and  C_2
REMARK    2  A    between atoms: C_2  and  O_3
REMARK    3  A    between atoms: O_3  and  C_4
REMARK    4  A    between atoms: C_4  and  C_6
REMARK    5  A    between atoms: C_6  and  C_7
REMARK    6  A    between atoms: C_7  and  C_8
REMARK    7  A    between atoms: C_8  and  C_9
REMARK    8  A    between atoms: C_9  and  N_10
REMARK    9  A    between atoms: N_10  and  C_11
REMARK   10  A    between atoms: N_10  and  C_18
REMARK   11  A    between atoms: C_11  and  C_12
REMARK   12  A    between atoms: C_18  and  C_19
REMARK                            x       y       z     vdW  Elec       q    Type
REMARK                         _______ _______ _______ _____ _____    ______ ____
ROOT
ATOM      1  N   UNL     1       3.285   7.196  17.946  0.00  0.00    +0.000 NA
ENDROOT
BRANCH   1   2
ATOM      2  C   UNL     1       2.324   6.072  17.832  0.00  0.00    +0.000 C 
BRANCH   2   3
ATOM      3  C   UNL     1       2.837   4.723  18.361  0.00  0.00    +0.000 C 
BRANCH   3   4
ATOM      4  C   UNL     1       2.795   3.608  17.311  0.00  0.00    +0.000 C 
BRANCH   4   5
ATOM      5  C   UNL     1       2.636   2.218  17.925  0.00  0.00    +0.000 C 
BRANCH   5   6
ATOM      6  C   UNL     1       1.418   2.124  18.808  0.00  0.00    +0.000 C 
ATOM      7  O   UNL     1       0.253   2.246  18.442  0.00  0.00    +0.000 OA
BRANCH   6   8
ATOM      8  O   UNL     1       1.821   1.963  20.098  0.00  0.00    +0.000 OA
BRANCH   8  10
ATOM      9  C   UNL     1       2.259   3.622  21.754  0.00  0.00    +0.000 C 
ATOM     10  C   UNL     1       1.177   2.821  21.050  0.00  0.00    +0.000 C 
ENDBRANCH   8  10
ENDBRANCH   6   8
ENDBRANCH   5   6
ENDBRANCH   4   5
ENDBRANCH   3   4
ENDBRANCH   2   3
ENDBRANCH   1   2
BRANCH   1  11
ATOM     11  C   UNL     1       4.199   7.224  16.771  0.00  0.00    +0.000 C 
BRANCH  11  12
ATOM     12  C   UNL     1       5.405   6.302  16.833  0.00  0.00    +0.000 A 
ATOM     13  C   UNL     1       5.754   5.460  15.766  0.00  0.00    +0.000 A 
ATOM     14  C   UNL     1       6.815   4.560  15.890  0.00  0.00    +0.000 A 
ATOM     15  C   UNL     1       7.567   4.521  17.063  0.00  0.00    +0.000 A 
ATOM     16  C   UNL     1       7.286   5.411  18.096  0.00  0.00    +0.000 A 
ATOM     17  C   UNL     1       6.219   6.304  17.978  0.00  0.00    +0.000 A 
ENDBRANCH  11  12
ENDBRANCH   1  11
BRANCH   1  18
ATOM     18  C   UNL     1       2.523   8.467  18.012  0.00  0.00    +0.000 C 
BRANCH  18  19
ATOM     19  C   UNL     1       1.628   8.639  19.226  0.00  0.00    +0.000 A 
ATOM     20  C   UNL     1       1.799   7.843  20.364  0.00  0.00    +0.000 A 
ATOM     21  C   UNL     1       1.149   8.167  21.558  0.00  0.00    +0.000 A 
ATOM     22  C   UNL     1       0.332   9.306  21.643  0.00  0.00    +0.000 A 
ATOM     23  C   UNL     1      -0.202   9.738  22.869  0.00  0.00    +0.000 A 
ATOM     24  C   UNL     1      -0.973  10.899  22.942  0.00  0.00    +0.000 A 
ATOM     25  C   UNL     1      -1.270  11.609  21.783  0.00  0.00    +0.000 A 
ATOM     26  C   UNL     1      -0.760  11.186  20.555  0.00  0.00    +0.000 A 
ATOM     27  C   UNL     1       0.077  10.059  20.477  0.00  0.00    +0.000 A 
ATOM     28  C   UNL     1       0.717   9.706  19.278  0.00  0.00    +0.000 A 
ENDBRANCH  18  19
ENDBRANCH   1  18
TORSDOF 11
ENDMDL
MODEL 6
REMARK VINA RESULT:      -8.0      3.725      7.528
REMARK  Name = 
REMARK  12 active torsions:
REMARK  status: ('A' for Active; 'I' for Inactive)
REMARK    1  A    between atoms: C_1  and  C_2
REMARK    2  A    between atoms: C_2  and  O_3
REMARK    3  A    between atoms: O_3  and  C_4
REMARK    4  A    between atoms: C_4  and  C_6
REMARK    5  A    between atoms: C_6  and  C_7
REMARK    6  A    between atoms: C_7  and  C_8
REMARK    7  A    between atoms: C_8  and  C_9
REMARK    8  A    between atoms: C_9  and  N_10
REMARK    9  A    between atoms: N_10  and  C_11
REMARK   10  A    between atoms: N_10  and  C_18
REMARK   11  A    between atoms: C_11  and  C_12
REMARK   12  A    between atoms: C_18  and  C_19
REMARK                            x       y       z     vdW  Elec       q    Type
REMARK                         _______ _______ _______ _____ _____    ______ ____
ROOT
ATOM      1  N   UNL     1       3.231   6.144  17.805  0.00  0.00    +0.000 NA
ENDROOT
BRANCH   1   2
ATOM      2  C   UNL     1       4.342   6.705  16.998  0.00  0.00    +0.000 C 
BRANCH   2   3
ATOM      3  C   UNL     1       5.750   6.388  17.526  0.00  0.00    +0.000 C 
BRANCH   3   4
ATOM      4  C   UNL     1       6.531   5.427  16.624  0.00  0.00    +0.000 C 
BRANCH   4   5
ATOM      5  C   UNL     1       5.864   5.208  15.268  0.00  0.00    +0.000 C 
BRANCH   5   6
ATOM      6  C   UNL     1       6.852   4.786  14.211  0.00  0.00    +0.000 C 
ATOM      7  O   UNL     1       7.819   5.438  13.830  0.00  0.00    +0.000 OA
BRANCH   6   8
ATOM      8  O   UNL     1       6.453   3.596  13.685  0.00  0.00    +0.000 OA
BRANCH   8  10
ATOM      9  C   UNL     1       4.988   3.233  11.839  0.00  0.00    +0.000 C 
ATOM     10  C   UNL     1       6.416   3.544  12.253  0.00  0.00    +0.000 C 
ENDBRANCH   8  10
ENDBRANCH   6   8
ENDBRANCH   5   6
ENDBRANCH   4   5
ENDBRANCH   3   4
ENDBRANCH   2   3
ENDBRANCH   1   2
BRANCH   1  11
ATOM     11  C   UNL     1       3.326   4.659  17.867  0.00  0.00    +0.000 C 
BRANCH  11  12
ATOM     12  C   UNL     1       2.691   3.994  19.075  0.00  0.00    +0.000 A 
ATOM     13  C   UNL     1       3.461   3.424  20.100  0.00  0.00    +0.000 A 
ATOM     14  C   UNL     1       2.847   2.741  21.153  0.00  0.00    +0.000 A 
ATOM     15  C   UNL     1       1.457   2.656  21.217  0.00  0.00    +0.000 A 
ATOM     16  C   UNL     1       0.679   3.293  20.253  0.00  0.00    +0.000 A 
ATOM     17  C   UNL     1       1.291   3.966  19.195  0.00  0.00    +0.000 A 
ENDBRANCH  11  12
ENDBRANCH   1  11
BRANCH   1  18
ATOM     18  C   UNL     1       3.310   6.704  19.176  0.00  0.00    +0.000 C 
BRANCH  18  19
ATOM     19  C   UNL     1       2.143   7.578  19.602  0.00  0.00    +0.000 A 
ATOM     20  C   UNL     1       1.515   7.387  20.837  0.00  0.00    +0.000 A 
ATOM     21  C   UNL     1       0.619   8.340  21.329  0.00  0.00    +0.000 A 
ATOM     22  C   UNL     1       0.350   9.513  20.605  0.00  0.00    +0.000 A 
ATOM     23  C   UNL     1      -0.421  10.554  21.150  0.00  0.00    +0.000 A 
ATOM     24  C   UNL     1      -0.638  11.732  20.434  0.00  0.00    +0.000 A 
ATOM     25  C   UNL     1      -0.138  11.861  19.142  0.00  0.00    +0.000 A 
ATOM     26  C   UNL     1       0.617  10.831  18.580  0.00  0.00    +0.000 A 
ATOM     27  C   UNL     1       0.904   9.669  19.316  0.00  0.00    +0.000 A 
ATOM     28  C   UNL     1       1.783   8.690  18.824  0.00  0.00    +0.000 A 
ENDBRANCH  18  19
ENDBRANCH   1  18
TORSDOF 11
ENDMDL
MODEL 7
REMARK VINA RESULT:      -7.9      4.654      7.248
REMARK  Name = 
REMARK  12 active torsions:
REMARK  status: ('A' for Active; 'I' for Inactive)
REMARK    1  A    between atoms: C_1  and  C_2
REMARK    2  A    between atoms: C_2  and  O_3
REMARK    3  A    between atoms: O_3  and  C_4
REMARK    4  A    between atoms: C_4  and  C_6
REMARK    5  A    between atoms: C_6  and  C_7
REMARK    6  A    between atoms: C_7  and  C_8
REMARK    7  A    between atoms: C_8  and  C_9
REMARK    8  A    between atoms: C_9  and  N_10
REMARK    9  A    between atoms: N_10  and  C_11
REMARK   10  A    between atoms: N_10  and  C_18
REMARK   11  A    between atoms: C_11  and  C_12
REMARK   12  A    between atoms: C_18  and  C_19
REMARK                            x       y       z     vdW  Elec       q    Type
REMARK                         _______ _______ _______ _____ _____    ______ ____
ROOT
ATOM      1  N   UNL     1       4.001   5.885  18.639  0.00  0.00    +0.000 NA
ENDROOT
BRANCH   1   2
ATOM      2  C   UNL     1       4.107   4.422  18.419  0.00  0.00    +0.000 C 
BRANCH   2   3
ATOM      3  C   UNL     1       3.084   3.839  17.431  0.00  0.00    +0.000 C 
BRANCH   3   4
ATOM      4  C   UNL     1       2.971   2.312  17.511  0.00  0.00    +0.000 C 
BRANCH   4   5
ATOM      5  C   UNL     1       2.521   1.819  18.884  0.00  0.00    +0.000 C 
BRANCH   5   6
ATOM      6  C   UNL     1       1.085   2.176  19.171  0.00  0.00    +0.000 C 
ATOM      7  O   UNL     1       0.157   2.126  18.370  0.00  0.00    +0.000 OA
BRANCH   6   8
ATOM      8  O   UNL     1       0.993   2.642  20.446  0.00  0.00    +0.000 OA
BRANCH   8  10
ATOM      9  C   UNL     1       2.278   4.356  21.496  0.00  0.00    +0.000 C 
ATOM     10  C   UNL     1       1.097   4.066  20.584  0.00  0.00    +0.000 C 
ENDBRANCH   8  10
ENDBRANCH   6   8
ENDBRANCH   5   6
ENDBRANCH   4   5
ENDBRANCH   3   4
ENDBRANCH   2   3
ENDBRANCH   1   2
BRANCH   1  11
ATOM     11  C   UNL     1       5.094   6.602  17.925  0.00  0.00    +0.000 C 
BRANCH  11  12
ATOM     12  C   UNL     1       5.714   5.878  16.742  0.00  0.00    +0.000 A 
ATOM     13  C   UNL     1       5.188   5.987  15.445  0.00  0.00    +0.000 A 
ATOM     14  C   UNL     1       5.728   5.239  14.397  0.00  0.00    +0.000 A 
ATOM     15  C   UNL     1       6.824   4.408  14.620  0.00  0.00    +0.000 A 
ATOM     16  C   UNL     1       7.410   4.358  15.883  0.00  0.00    +0.000 A 
ATOM     17  C   UNL     1       6.865   5.097  16.934  0.00  0.00    +0.000 A 
ENDBRANCH  11  12
ENDBRANCH   1  11
BRANCH   1  18
ATOM     18  C   UNL     1       2.687   6.348  18.128  0.00  0.00    +0.000 C 
BRANCH  18  19
ATOM     19  C   UNL     1       2.174   7.653  18.711  0.00  0.00    +0.000 A 
ATOM     20  C   UNL     1       1.832   8.726  17.882  0.00  0.00    +0.000 A 
ATOM     21  C   UNL     1       1.132   9.821  18.395  0.00  0.00    +0.000 A 
ATOM     22  C   UNL     1       0.740   9.854  19.743  0.00  0.00    +0.000 A 
ATOM     23  C   UNL     1      -0.098  10.866  20.241  0.00  0.00    +0.000 A 
ATOM     24  C   UNL     1      -0.516  10.856  21.572  0.00  0.00    +0.000 A 
ATOM     25  C   UNL     1      -0.053   9.870  22.438  0.00  0.00    +0.000 A 
ATOM     26  C   UNL     1       0.793   8.866  21.963  0.00  0.00    +0.000 A 
ATOM     27  C   UNL     1       1.163   8.822  20.608  0.00  0.00    +0.000 A 
ATOM     28  C   UNL     1       1.889   7.741  20.083  0.00  0.00    +0.000 A 
ENDBRANCH  18  19
ENDBRANCH   1  18
TORSDOF 11
ENDMDL
MODEL 8
REMARK VINA RESULT:      -7.9      4.598      7.375
REMARK  Name = 
REMARK  12 active torsions:
REMARK  status: ('A' for Active; 'I' for Inactive)
REMARK    1  A    between atoms: C_1  and  C_2
REMARK    2  A    between atoms: C_2  and  O_3
REMARK    3  A    between atoms: O_3  and  C_4
REMARK    4  A    between atoms: C_4  and  C_6
REMARK    5  A    between atoms: C_6  and  C_7
REMARK    6  A    between atoms: C_7  and  C_8
REMARK    7  A    between atoms: C_8  and  C_9
REMARK    8  A    between atoms: C_9  and  N_10
REMARK    9  A    between atoms: N_10  and  C_11
REMARK   10  A    between atoms: N_10  and  C_18
REMARK   11  A    between atoms: C_11  and  C_12
REMARK   12  A    between atoms: C_18  and  C_19
REMARK                            x       y       z     vdW  Elec       q    Type
REMARK                         _______ _______ _______ _____ _____    ______ ____
ROOT
ATOM      1  N   UNL     1       3.429   7.281  18.178  0.00  0.00    +0.000 NA
ENDROOT
BRANCH   1   2
ATOM      2  C   UNL     1       3.249   5.873  18.611  0.00  0.00    +0.000 C 
BRANCH   2   3
ATOM      3  C   UNL     1       2.066   5.141  17.959  0.00  0.00    +0.000 C 
BRANCH   3   4
ATOM      4  C   UNL     1       2.481   3.867  17.215  0.00  0.00    +0.000 C 
BRANCH   4   5
ATOM      5  C   UNL     1       3.476   3.016  18.001  0.00  0.00    +0.000 C 
BRANCH   5   6
ATOM      6  C   UNL     1       2.815   2.268  19.130  0.00  0.00    +0.000 C 
ATOM      7  O   UNL     1       1.804   1.579  19.042  0.00  0.00    +0.000 OA
BRANCH   6   8
ATOM      8  O   UNL     1       3.475   2.545  20.288  0.00  0.00    +0.000 OA
BRANCH   8  10
ATOM      9  C   UNL     1       2.098   4.013  21.567  0.00  0.00    +0.000 C 
ATOM     10  C   UNL     1       2.652   2.602  21.461  0.00  0.00    +0.000 C 
ENDBRANCH   8  10
ENDBRANCH   6   8
ENDBRANCH   5   6
ENDBRANCH   4   5
ENDBRANCH   3   4
ENDBRANCH   2   3
ENDBRANCH   1   2
BRANCH   1  11
ATOM     11  C   UNL     1       4.309   7.352  16.979  0.00  0.00    +0.000 C 
BRANCH  11  12
ATOM     12  C   UNL     1       5.375   6.277  16.862  0.00  0.00    +0.000 A 
ATOM     13  C   UNL     1       6.349   6.085  17.853  0.00  0.00    +0.000 A 
ATOM     14  C   UNL     1       7.369   5.147  17.672  0.00  0.00    +0.000 A 
ATOM     15  C   UNL     1       7.403   4.361  16.523  0.00  0.00    +0.000 A 
ATOM     16  C   UNL     1       6.393   4.480  15.571  0.00  0.00    +0.000 A 
ATOM     17  C   UNL     1       5.379   5.424  15.745  0.00  0.00    +0.000 A 
ENDBRANCH  11  12
ENDBRANCH   1  11
BRANCH   1  18
ATOM     18  C   UNL     1       2.098   7.851  17.853  0.00  0.00    +0.000 C 
BRANCH  18  19
ATOM     19  C   UNL     1       1.570   8.892  18.823  0.00  0.00    +0.000 A 
ATOM     20  C   UNL     1       1.051  10.107  18.362  0.00  0.00    +0.000 A 
ATOM     21  C   UNL     1       0.344  10.947  19.226  0.00  0.00    +0.000 A 
ATOM     22  C   UNL     1       0.122  10.578  20.563  0.00  0.00    +0.000 A 
ATOM     23  C   UNL     1      -0.718  11.328  21.404  0.00  0.00    +0.000 A 
ATOM     24  C   UNL     1      -0.963  10.920  22.716  0.00  0.00    +0.000 A 
ATOM     25  C   UNL     1      -0.327   9.791  23.223  0.00  0.00    +0.000 A 
ATOM     26  C   UNL     1       0.523   9.043  22.406  0.00  0.00    +0.000 A 
ATOM     27  C   UNL     1       0.723   9.402  21.062  0.00  0.00    +0.000 A 
ATOM     28  C   UNL     1       1.454   8.581  20.187  0.00  0.00    +0.000 A 
ENDBRANCH  18  19
ENDBRANCH   1  18
TORSDOF 11
ENDMDL
MODEL 9
REMARK VINA RESULT:      -7.9      4.096      7.574
REMARK  Name = 
REMARK  12 active torsions:
REMARK  status: ('A' for Active; 'I' for Inactive)
REMARK    1  A    between atoms: C_1  and  C_2
REMARK    2  A    between atoms: C_2  and  O_3
REMARK    3  A    between atoms: O_3  and  C_4
REMARK    4  A    between atoms: C_4  and  C_6
REMARK    5  A    between atoms: C_6  and  C_7
REMARK    6  A    between atoms: C_7  and  C_8
REMARK    7  A    between atoms: C_8  and  C_9
REMARK    8  A    between atoms: C_9  and  N_10
REMARK    9  A    between atoms: N_10  and  C_11
REMARK   10  A    between atoms: N_10  and  C_18
REMARK   11  A    between atoms: C_11  and  C_12
REMARK   12  A    between atoms: C_18  and  C_19
REMARK                            x       y       z     vdW  Elec       q    Type
REMARK                         _______ _______ _______ _____ _____    ______ ____
ROOT
ATOM      1  N   UNL     1       3.521   5.656  17.905  0.00  0.00    +0.000 NA
ENDROOT
BRANCH   1   2
ATOM      2  C   UNL     1       4.997   5.712  17.766  0.00  0.00    +0.000 C 
BRANCH   2   3
ATOM      3  C   UNL     1       5.671   4.365  17.465  0.00  0.00    +0.000 C 
BRANCH   3   4
ATOM      4  C   UNL     1       6.811   4.476  16.446  0.00  0.00    +0.000 C 
BRANCH   4   5
ATOM      5  C   UNL     1       6.505   5.453  15.314  0.00  0.00    +0.000 C 
BRANCH   5   6
ATOM      6  C   UNL     1       6.882   4.894  13.965  0.00  0.00    +0.000 C 
ATOM      7  O   UNL     1       7.794   5.296  13.250  0.00  0.00    +0.000 OA
BRANCH   6   8
ATOM      8  O   UNL     1       5.994   3.919  13.629  0.00  0.00    +0.000 OA
BRANCH   8  10
ATOM      9  C   UNL     1       4.750   3.163  11.740  0.00  0.00    +0.000 C 
ATOM     10  C   UNL     1       6.142   3.389  12.305  0.00  0.00    +0.000 C 
ENDBRANCH   8  10
ENDBRANCH   6   8
ENDBRANCH   5   6
ENDBRANCH   4   5
ENDBRANCH   3   4
ENDBRANCH   2   3
ENDBRANCH   1   2
BRANCH   1  11
ATOM     11  C   UNL     1       3.046   4.245  17.876  0.00  0.00    +0.000 C 
BRANCH  11  12
ATOM     12  C   UNL     1       2.562   3.669  19.195  0.00  0.00    +0.000 A 
ATOM     13  C   UNL     1       3.446   3.118  20.135  0.00  0.00    +0.000 A 
ATOM     14  C   UNL     1       2.959   2.516  21.298  0.00  0.00    +0.000 A 
ATOM     15  C   UNL     1       1.590   2.498  21.558  0.00  0.00    +0.000 A 
ATOM     16  C   UNL     1       0.709   3.119  20.676  0.00  0.00    +0.000 A 
ATOM     17  C   UNL     1       1.193   3.711  19.508  0.00  0.00    +0.000 A 
ENDBRANCH  11  12
ENDBRANCH   1  11
BRANCH   1  18
ATOM     18  C   UNL     1       3.141   6.280  19.197  0.00  0.00    +0.000 C 
BRANCH  18  19
ATOM     19  C   UNL     1       2.449   7.628  19.100  0.00  0.00    +0.000 A 
ATOM     20  C   UNL     1       2.303   8.276  17.869  0.00  0.00    +0.000 A 
ATOM     21  C   UNL     1       1.456   9.380  17.746  0.00  0.00    +0.000 A 
ATOM     22  C   UNL     1       0.721   9.846  18.848  0.00  0.00    +0.000 A 
ATOM     23  C   UNL     1      -0.253  10.849  18.712  0.00  0.00    +0.000 A 
ATOM     24  C   UNL     1      -1.007  11.266  19.810  0.00  0.00    +0.000 A 
ATOM     25  C   UNL     1      -0.757  10.728  21.069  0.00  0.00    +0.000 A 
ATOM     26  C   UNL     1       0.217   9.740  21.224  0.00  0.00    +0.000 A 
ATOM     27  C   UNL     1       0.933   9.260  20.115  0.00  0.00    +0.000 A 
ATOM     28  C   UNL     1       1.809   8.167  20.228  0.00  0.00    +0.000 A 
ENDBRANCH  18  19
ENDBRANCH   1  18
TORSDOF 11
ENDMDL
