MODEL 1
REMARK VINA RESULT:      -7.3      0.000      0.000
REMARK  Name = 
REMARK  8 active torsions:
REMARK  status: ('A' for Active; 'I' for Inactive)
REMARK    1  A    between atoms: C_1  and  O_2
REMARK    2  A    between atoms: O_2  and  C_3
REMARK    3  A    between atoms: C_5  and  C_6
REMARK    4  A    between atoms: C_6  and  N_7
REMARK    5  A    between atoms: C_10  and  N_11
REMARK    6  A    between atoms: C_21  and  C_22
REMARK    7  A    between atoms: C_31  and  O_32
REMARK    8  A    between atoms: O_32  and  C_33
REMARK                            x       y       z     vdW  Elec       q    Type
REMARK                         _______ _______ _______ _____ _____    ______ ____
ROOT
ATOM      1  N   UNL     1      -0.597  11.900  20.475  0.00  0.00    +0.000 N 
ATOM      2  C   UNL     1      -0.468  10.568  20.075  0.00  0.00    +0.000 C 
ATOM      3  O   UNL     1      -0.676   9.609  20.807  0.00  0.00    +0.000 OA
ATOM      4  N   UNL     1      -0.252  10.352  18.717  0.00  0.00    +0.000 N 
ATOM      5  C   UNL     1      -1.262  10.888  17.909  0.00  0.00    +0.000 A 
ATOM      6  C   UNL     1      -1.825   9.981  17.012  0.00  0.00    +0.000 A 
ATOM      7  C   UNL     1      -3.199   9.817  17.043  0.00  0.00    +0.000 A 
ATOM      8  C   UNL     1      -3.949  10.583  17.948  0.00  0.00    +0.000 A 
ATOM      9  C   UNL     1      -3.356  11.643  18.695  0.00  0.00    +0.000 A 
ATOM     10  C   UNL     1      -1.976  11.879  18.589  0.00  0.00    +0.000 A 
ATOM     11  C   UNL     1      -0.996  12.927  19.470  0.00  0.00    +0.000 C 
ATOM     12  H   UNL     1       0.640  10.668  18.380  0.00  0.00    +0.000 HD
ENDROOT
BRANCH   1  16
ATOM     13  N   UNL     1      -2.754  13.532  23.462  0.00  0.00    +0.000 NA
ATOM     14  C   UNL     1      -2.656  12.097  23.182  0.00  0.00    +0.000 C 
ATOM     15  C   UNL     1      -1.221  11.571  22.968  0.00  0.00    +0.000 C 
ATOM     16  C   UNL     1      -0.384  12.325  21.910  0.00  0.00    +0.000 C 
ATOM     17  C   UNL     1      -0.441  13.811  22.286  0.00  0.00    +0.000 C 
ATOM     18  C   UNL     1      -1.838  14.347  22.618  0.00  0.00    +0.000 C 
BRANCH  13  19
ATOM     19  C   UNL     1      -4.126  14.065  23.177  0.00  0.00    +0.000 C 
BRANCH  19  22
ATOM     20  C   UNL     1      -6.631  12.172  20.914  0.00  0.00    +0.000 A 
ATOM     21  C   UNL     1      -5.716  12.428  21.945  0.00  0.00    +0.000 A 
ATOM     22  C   UNL     1      -4.948  13.610  21.975  0.00  0.00    +0.000 A 
ATOM     23  C   UNL     1      -5.147  14.535  20.920  0.00  0.00    +0.000 A 
ATOM     24  C   UNL     1      -6.093  14.309  19.904  0.00  0.00    +0.000 A 
ATOM     25  C   UNL     1      -6.829  13.138  19.909  0.00  0.00    +0.000 A 
BRANCH  20  27
ATOM     26  C   UNL     1      -7.114  10.039  20.032  0.00  0.00    +0.000 C 
ATOM     27  O   UNL     1      -7.367  11.033  21.025  0.00  0.00    +0.000 OA
ENDBRANCH  20  27
BRANCH  24  28
ATOM     28  O   UNL     1      -6.217  15.338  19.002  0.00  0.00    +0.000 OA
ATOM     29  C   UNL     1      -5.818  16.634  19.434  0.00  0.00    +0.000 C 
ENDBRANCH  24  28
ENDBRANCH  19  22
ENDBRANCH  13  19
ENDBRANCH   1  16
BRANCH  11  30
ATOM     30  C   UNL     1       0.513  13.552  19.060  0.00  0.00    +0.000 A 
ATOM     31  C   UNL     1       0.742  14.950  18.954  0.00  0.00    +0.000 A 
ATOM     32  C   UNL     1       1.986  15.458  18.494  0.00  0.00    +0.000 A 
ATOM     33  C   UNL     1       3.006  14.597  18.093  0.00  0.00    +0.000 A 
ATOM     34  C   UNL     1       2.823  13.237  18.242  0.00  0.00    +0.000 A 
ATOM     35  C   UNL     1       1.627  12.739  18.773  0.00  0.00    +0.000 A 
ENDBRANCH  11  30
TORSDOF 6
ENDMDL
MODEL 2
REMARK VINA RESULT:      -6.9      7.430     10.594
REMARK  Name = 
REMARK  8 active torsions:
REMARK  status: ('A' for Active; 'I' for Inactive)
REMARK    1  A    between atoms: C_1  and  O_2
REMARK    2  A    between atoms: O_2  and  C_3
REMARK    3  A    between atoms: C_5  and  C_6
REMARK    4  A    between atoms: C_6  and  N_7
REMARK    5  A    between atoms: C_10  and  N_11
REMARK    6  A    between atoms: C_21  and  C_22
REMARK    7  A    between atoms: C_31  and  O_32
REMARK    8  A    between atoms: O_32  and  C_33
REMARK                            x       y       z     vdW  Elec       q    Type
REMARK                         _______ _______ _______ _____ _____    ______ ____
ROOT
ATOM      1  N   UNL     1       5.225   4.871  16.979  0.00  0.00    +0.000 N 
ATOM      2  C   UNL     1       4.973   6.233  17.155  0.00  0.00    +0.000 C 
ATOM      3  O   UNL     1       4.144   6.681  17.937  0.00  0.00    +0.000 OA
ATOM      4  N   UNL     1       5.846   7.108  16.515  0.00  0.00    +0.000 N 
ATOM      5  C   UNL     1       7.182   6.924  16.891  0.00  0.00    +0.000 A 
ATOM      6  C   UNL     1       7.822   8.083  17.329  0.00  0.00    +0.000 A 
ATOM      7  C   UNL     1       8.421   8.053  18.576  0.00  0.00    +0.000 A 
ATOM      8  C   UNL     1       8.375   6.863  19.317  0.00  0.00    +0.000 A 
ATOM      9  C   UNL     1       7.895   5.649  18.745  0.00  0.00    +0.000 A 
ATOM     10  C   UNL     1       7.379   5.653  17.439  0.00  0.00    +0.000 A 
ATOM     11  C   UNL     1       6.596   4.428  16.591  0.00  0.00    +0.000 C 
ATOM     12  H   UNL     1       5.783   7.100  15.512  0.00  0.00    +0.000 HD
ENDROOT
BRANCH   1  16
ATOM     13  N   UNL     1       2.121   4.271  19.477  0.00  0.00    +0.000 NA
ATOM     14  C   UNL     1       2.053   5.009  18.213  0.00  0.00    +0.000 C 
ATOM     15  C   UNL     1       2.699   4.296  17.007  0.00  0.00    +0.000 C 
ATOM     16  C   UNL     1       4.158   3.826  17.211  0.00  0.00    +0.000 C 
ATOM     17  C   UNL     1       4.171   2.988  18.496  0.00  0.00    +0.000 C 
ATOM     18  C   UNL     1       3.439   3.613  19.690  0.00  0.00    +0.000 C 
BRANCH  13  19
ATOM     19  C   UNL     1       1.940   5.174  20.662  0.00  0.00    +0.000 C 
BRANCH  19  22
ATOM     20  C   UNL     1       1.668   8.754  19.216  0.00  0.00    +0.000 A 
ATOM     21  C   UNL     1       2.114   7.439  19.411  0.00  0.00    +0.000 A 
ATOM     22  C   UNL     1       1.697   6.674  20.519  0.00  0.00    +0.000 A 
ATOM     23  C   UNL     1       0.800   7.288  21.426  0.00  0.00    +0.000 A 
ATOM     24  C   UNL     1       0.312   8.592  21.219  0.00  0.00    +0.000 A 
ATOM     25  C   UNL     1       0.743   9.312  20.120  0.00  0.00    +0.000 A 
BRANCH  20  27
ATOM     26  C   UNL     1       2.062  10.799  18.109  0.00  0.00    +0.000 C 
ATOM     27  O   UNL     1       2.081   9.373  18.077  0.00  0.00    +0.000 OA
ENDBRANCH  20  27
BRANCH  24  28
ATOM     28  O   UNL     1      -0.608   9.010  22.149  0.00  0.00    +0.000 OA
ATOM     29  C   UNL     1      -0.106   9.612  23.338  0.00  0.00    +0.000 C 
ENDBRANCH  24  28
ENDBRANCH  19  22
ENDBRANCH  13  19
ENDBRANCH   1  16
BRANCH  11  30
ATOM     30  C   UNL     1       6.400   4.260  14.927  0.00  0.00    +0.000 A 
ATOM     31  C   UNL     1       5.278   3.590  14.368  0.00  0.00    +0.000 A 
ATOM     32  C   UNL     1       5.184   3.354  12.971  0.00  0.00    +0.000 A 
ATOM     33  C   UNL     1       6.212   3.735  12.110  0.00  0.00    +0.000 A 
ATOM     34  C   UNL     1       7.282   4.438  12.626  0.00  0.00    +0.000 A 
ATOM     35  C   UNL     1       7.335   4.743  13.991  0.00  0.00    +0.000 A 
ENDBRANCH  11  30
TORSDOF 6
ENDMDL
MODEL 3
REMARK VINA RESULT:      -6.6      0.895      2.282
REMARK  Name = 
REMARK  8 active torsions:
REMARK  status: ('A' for Active; 'I' for Inactive)
REMARK    1  A    between atoms: C_1  and  O_2
REMARK    2  A    between atoms: O_2  and  C_3
REMARK    3  A    between atoms: C_5  and  C_6
REMARK    4  A    between atoms: C_6  and  N_7
REMARK    5  A    between atoms: C_10  and  N_11
REMARK    6  A    between atoms: C_21  and  C_22
REMARK    7  A    between atoms: C_31  and  O_32
REMARK    8  A    between atoms: O_32  and  C_33
REMARK                            x       y       z     vdW  Elec       q    Type
REMARK                         _______ _______ _______ _____ _____    ______ ____
ROOT
ATOM      1  N   UNL     1      -0.881  12.037  20.375  0.00  0.00    +0.000 N 
ATOM      2  C   UNL     1      -0.559  10.759  19.913  0.00  0.00    +0.000 C 
ATOM      3  O   UNL     1      -0.625   9.746  20.597  0.00  0.00    +0.000 OA
ATOM      4  N   UNL     1      -0.314  10.643  18.547  0.00  0.00    +0.000 N 
ATOM      5  C   UNL     1      -1.391  11.064  17.759  0.00  0.00    +0.000 A 
ATOM      6  C   UNL     1      -1.816  10.129  16.816  0.00  0.00    +0.000 A 
ATOM      7  C   UNL     1      -3.150   9.765  16.829  0.00  0.00    +0.000 A 
ATOM      8  C   UNL     1      -4.005  10.369  17.764  0.00  0.00    +0.000 A 
ATOM      9  C   UNL     1      -3.573  11.467  18.565  0.00  0.00    +0.000 A 
ATOM     10  C   UNL     1      -2.242  11.906  18.480  0.00  0.00    +0.000 A 
ATOM     11  C   UNL     1      -1.426  13.042  19.417  0.00  0.00    +0.000 C 
ATOM     12  H   UNL     1       0.523  11.101  18.233  0.00  0.00    +0.000 HD
ENDROOT
BRANCH   1  16
ATOM     13  N   UNL     1      -3.016  13.971  23.191  0.00  0.00    +0.000 NA
ATOM     14  C   UNL     1      -3.116  12.539  22.897  0.00  0.00    +0.000 C 
ATOM     15  C   UNL     1      -1.765  11.799  22.799  0.00  0.00    +0.000 C 
ATOM     16  C   UNL     1      -0.732  12.419  21.830  0.00  0.00    +0.000 C 
ATOM     17  C   UNL     1      -0.594  13.895  22.225  0.00  0.00    +0.000 C 
ATOM     18  C   UNL     1      -1.916  14.639  22.444  0.00  0.00    +0.000 C 
BRANCH  13  19
ATOM     19  C   UNL     1      -4.260  14.711  22.798  0.00  0.00    +0.000 C 
BRANCH  19  22
ATOM     20  C   UNL     1      -6.195  13.615  19.630  0.00  0.00    +0.000 A 
ATOM     21  C   UNL     1      -5.366  14.363  20.479  0.00  0.00    +0.000 A 
ATOM     22  C   UNL     1      -5.308  14.112  21.864  0.00  0.00    +0.000 A 
ATOM     23  C   UNL     1      -6.119  13.064  22.364  0.00  0.00    +0.000 A 
ATOM     24  C   UNL     1      -6.922  12.279  21.517  0.00  0.00    +0.000 A 
ATOM     25  C   UNL     1      -6.952  12.554  20.162  0.00  0.00    +0.000 A 
BRANCH  20  27
ATOM     26  C   UNL     1      -6.873  15.030  17.869  0.00  0.00    +0.000 C 
ATOM     27  O   UNL     1      -6.118  13.899  18.302  0.00  0.00    +0.000 OA
ENDBRANCH  20  27
BRANCH  24  28
ATOM     28  O   UNL     1      -7.586  11.255  22.149  0.00  0.00    +0.000 OA
ATOM     29  C   UNL     1      -7.916  11.442  23.521  0.00  0.00    +0.000 C 
ENDBRANCH  24  28
ENDBRANCH  19  22
ENDBRANCH  13  19
ENDBRANCH   1  16
BRANCH  11  30
ATOM     30  C   UNL     1      -0.024  13.899  19.048  0.00  0.00    +0.000 A 
ATOM     31  C   UNL     1       1.238  13.258  18.933  0.00  0.00    +0.000 A 
ATOM     32  C   UNL     1       2.429  14.008  18.738  0.00  0.00    +0.000 A 
ATOM     33  C   UNL     1       2.398  15.400  18.695  0.00  0.00    +0.000 A 
ATOM     34  C   UNL     1       1.175  16.039  18.747  0.00  0.00    +0.000 A 
ATOM     35  C   UNL     1      -0.006  15.295  18.857  0.00  0.00    +0.000 A 
ENDBRANCH  11  30
TORSDOF 6
ENDMDL
MODEL 4
REMARK VINA RESULT:      -6.6      3.527      8.289
REMARK  Name = 
REMARK  8 active torsions:
REMARK  status: ('A' for Active; 'I' for Inactive)
REMARK    1  A    between atoms: C_1  and  O_2
REMARK    2  A    between atoms: O_2  and  C_3
REMARK    3  A    between atoms: C_5  and  C_6
REMARK    4  A    between atoms: C_6  and  N_7
REMARK    5  A    between atoms: C_10  and  N_11
REMARK    6  A    between atoms: C_21  and  C_22
REMARK    7  A    between atoms: C_31  and  O_32
REMARK    8  A    between atoms: O_32  and  C_33
REMARK                            x       y       z     vdW  Elec       q    Type
REMARK                         _______ _______ _______ _____ _____    ______ ____
ROOT
ATOM      1  N   UNL     1      -2.224  12.532  20.642  0.00  0.00    +0.000 N 
ATOM      2  C   UNL     1      -1.939  11.955  21.882  0.00  0.00    +0.000 C 
ATOM      3  O   UNL     1      -0.822  11.593  22.229  0.00  0.00    +0.000 OA
ATOM      4  N   UNL     1      -2.973  11.960  22.814  0.00  0.00    +0.000 N 
ATOM      5  C   UNL     1      -3.447  13.245  23.102  0.00  0.00    +0.000 A 
ATOM      6  C   UNL     1      -3.471  13.561  24.459  0.00  0.00    +0.000 A 
ATOM      7  C   UNL     1      -2.809  14.706  24.864  0.00  0.00    +0.000 A 
ATOM      8  C   UNL     1      -2.175  15.497  23.893  0.00  0.00    +0.000 A 
ATOM      9  C   UNL     1      -2.354  15.249  22.500  0.00  0.00    +0.000 A 
ATOM     10  C   UNL     1      -3.112  14.143  22.084  0.00  0.00    +0.000 A 
ATOM     11  C   UNL     1      -3.338  13.519  20.537  0.00  0.00    +0.000 C 
ATOM     12  H   UNL     1      -3.750  11.368  22.579  0.00  0.00    +0.000 HD
ENDROOT
BRANCH   1  16
ATOM     13  N   UNL     1       0.622   9.904  19.532  0.00  0.00    +0.000 NA
ATOM     14  C   UNL     1      -0.822   9.670  19.439  0.00  0.00    +0.000 C 
ATOM     15  C   UNL     1      -1.628  10.816  18.795  0.00  0.00    +0.000 C 
ATOM     16  C   UNL     1      -1.407  12.217  19.410  0.00  0.00    +0.000 C 
ATOM     17  C   UNL     1       0.108  12.460  19.411  0.00  0.00    +0.000 C 
ATOM     18  C   UNL     1       0.955  11.297  19.940  0.00  0.00    +0.000 C 
BRANCH  13  19
ATOM     19  C   UNL     1       1.265   9.030  20.567  0.00  0.00    +0.000 C 
BRANCH  19  22
ATOM     20  C   UNL     1       1.788   5.198  20.398  0.00  0.00    +0.000 A 
ATOM     21  C   UNL     1       1.425   6.461  20.888  0.00  0.00    +0.000 A 
ATOM     22  C   UNL     1       1.823   7.647  20.239  0.00  0.00    +0.000 A 
ATOM     23  C   UNL     1       2.601   7.510  19.064  0.00  0.00    +0.000 A 
ATOM     24  C   UNL     1       2.936   6.248  18.539  0.00  0.00    +0.000 A 
ATOM     25  C   UNL     1       2.526   5.106  19.203  0.00  0.00    +0.000 A 
BRANCH  20  27
ATOM     26  C   UNL     1       2.250   3.141  21.455  0.00  0.00    +0.000 C 
ATOM     27  O   UNL     1       1.290   4.123  21.066  0.00  0.00    +0.000 OA
ENDBRANCH  20  27
BRANCH  24  28
ATOM     28  O   UNL     1       3.628   6.289  17.353  0.00  0.00    +0.000 OA
ATOM     29  C   UNL     1       4.393   5.140  17.005  0.00  0.00    +0.000 C 
ENDBRANCH  24  28
ENDBRANCH  19  22
ENDBRANCH  13  19
ENDBRANCH   1  16
BRANCH  11  30
ATOM     30  C   UNL     1      -4.573  12.521  19.975  0.00  0.00    +0.000 A 
ATOM     31  C   UNL     1      -4.540  11.947  18.676  0.00  0.00    +0.000 A 
ATOM     32  C   UNL     1      -5.641  11.205  18.172  0.00  0.00    +0.000 A 
ATOM     33  C   UNL     1      -6.805  11.053  18.923  0.00  0.00    +0.000 A 
ATOM     34  C   UNL     1      -6.834  11.554  20.209  0.00  0.00    +0.000 A 
ATOM     35  C   UNL     1      -5.718  12.215  20.736  0.00  0.00    +0.000 A 
ENDBRANCH  11  30
TORSDOF 6
ENDMDL
MODEL 5
REMARK VINA RESULT:      -6.5      7.365     10.418
REMARK  Name = 
REMARK  8 active torsions:
REMARK  status: ('A' for Active; 'I' for Inactive)
REMARK    1  A    between atoms: C_1  and  O_2
REMARK    2  A    between atoms: O_2  and  C_3
REMARK    3  A    between atoms: C_5  and  C_6
REMARK    4  A    between atoms: C_6  and  N_7
REMARK    5  A    between atoms: C_10  and  N_11
REMARK    6  A    between atoms: C_21  and  C_22
REMARK    7  A    between atoms: C_31  and  O_32
REMARK    8  A    between atoms: O_32  and  C_33
REMARK                            x       y       z     vdW  Elec       q    Type
REMARK                         _______ _______ _______ _____ _____    ______ ____
ROOT
ATOM      1  N   UNL     1       5.277   4.944  17.059  0.00  0.00    +0.000 N 
ATOM      2  C   UNL     1       5.006   6.305  17.214  0.00  0.00    +0.000 C 
ATOM      3  O   UNL     1       4.183   6.754  18.002  0.00  0.00    +0.000 OA
ATOM      4  N   UNL     1       5.853   7.182  16.542  0.00  0.00    +0.000 N 
ATOM      5  C   UNL     1       7.198   7.028  16.899  0.00  0.00    +0.000 A 
ATOM      6  C   UNL     1       7.826   8.204  17.304  0.00  0.00    +0.000 A 
ATOM      7  C   UNL     1       8.447   8.208  18.540  0.00  0.00    +0.000 A 
ATOM      8  C   UNL     1       8.433   7.031  19.305  0.00  0.00    +0.000 A 
ATOM      9  C   UNL     1       7.964   5.799  18.763  0.00  0.00    +0.000 A 
ATOM     10  C   UNL     1       7.425   5.770  17.467  0.00  0.00    +0.000 A 
ATOM     11  C   UNL     1       6.649   4.517  16.655  0.00  0.00    +0.000 C 
ATOM     12  H   UNL     1       5.773   7.155  15.542  0.00  0.00    +0.000 HD
ENDROOT
BRANCH   1  16
ATOM     13  N   UNL     1       2.182   4.375  19.574  0.00  0.00    +0.000 NA
ATOM     14  C   UNL     1       2.100   5.062  18.282  0.00  0.00    +0.000 C 
ATOM     15  C   UNL     1       2.764   4.317  17.105  0.00  0.00    +0.000 C 
ATOM     16  C   UNL     1       4.232   3.887  17.329  0.00  0.00    +0.000 C 
ATOM     17  C   UNL     1       4.260   3.099  18.645  0.00  0.00    +0.000 C 
ATOM     18  C   UNL     1       3.513   3.752  19.813  0.00  0.00    +0.000 C 
BRANCH  13  19
ATOM     19  C   UNL     1       1.979   5.317  20.723  0.00  0.00    +0.000 C 
BRANCH  19  22
ATOM     20  C   UNL     1       0.180   8.679  21.389  0.00  0.00    +0.000 A 
ATOM     21  C   UNL     1       0.522   7.322  21.486  0.00  0.00    +0.000 A 
ATOM     22  C   UNL     1       1.371   6.706  20.545  0.00  0.00    +0.000 A 
ATOM     23  C   UNL     1       1.872   7.518  19.499  0.00  0.00    +0.000 A 
ATOM     24  C   UNL     1       1.571   8.890  19.415  0.00  0.00    +0.000 A 
ATOM     25  C   UNL     1       0.735   9.461  20.358  0.00  0.00    +0.000 A 
BRANCH  20  27
ATOM     26  C   UNL     1      -0.463  10.587  22.619  0.00  0.00    +0.000 C 
ATOM     27  O   UNL     1      -0.590   9.183  22.391  0.00  0.00    +0.000 OA
ENDBRANCH  20  27
BRANCH  24  28
ATOM     28  O   UNL     1       2.198   9.550  18.387  0.00  0.00    +0.000 OA
ATOM     29  C   UNL     1       1.883  10.927  18.208  0.00  0.00    +0.000 C 
ENDBRANCH  24  28
ENDBRANCH  19  22
ENDBRANCH  13  19
ENDBRANCH   1  16
BRANCH  11  30
ATOM     30  C   UNL     1       6.426   4.314  14.998  0.00  0.00    +0.000 A 
ATOM     31  C   UNL     1       5.303   3.623  14.471  0.00  0.00    +0.000 A 
ATOM     32  C   UNL     1       5.188   3.358  13.081  0.00  0.00    +0.000 A 
ATOM     33  C   UNL     1       6.197   3.733  12.196  0.00  0.00    +0.000 A 
ATOM     34  C   UNL     1       7.269   4.455  12.680  0.00  0.00    +0.000 A 
ATOM     35  C   UNL     1       7.342   4.788  14.038  0.00  0.00    +0.000 A 
ENDBRANCH  11  30
TORSDOF 6
ENDMDL
MODEL 6
REMARK VINA RESULT:      -6.4      1.086      1.698
REMARK  Name = 
REMARK  8 active torsions:
REMARK  status: ('A' for Active; 'I' for Inactive)
REMARK    1  A    between atoms: C_1  and  O_2
REMARK    2  A    between atoms: O_2  and  C_3
REMARK    3  A    between atoms: C_5  and  C_6
REMARK    4  A    between atoms: C_6  and  N_7
REMARK    5  A    between atoms: C_10  and  N_11
REMARK    6  A    between atoms: C_21  and  C_22
REMARK    7  A    between atoms: C_31  and  O_32
REMARK    8  A    between atoms: O_32  and  C_33
REMARK                            x       y       z     vdW  Elec       q    Type
REMARK                         _______ _______ _______ _____ _____    ______ ____
ROOT
ATOM      1  N   UNL     1      -0.716  11.947  20.215  0.00  0.00    +0.000 N 
ATOM      2  C   UNL     1      -0.445  10.741  19.566  0.00  0.00    +0.000 C 
ATOM      3  O   UNL     1      -0.395   9.656  20.131  0.00  0.00    +0.000 OA
ATOM      4  N   UNL     1      -0.400  10.787  18.176  0.00  0.00    +0.000 N 
ATOM      5  C   UNL     1      -1.588  11.259  17.604  0.00  0.00    +0.000 A 
ATOM      6  C   UNL     1      -2.131  10.423  16.630  0.00  0.00    +0.000 A 
ATOM      7  C   UNL     1      -3.444  10.018  16.791  0.00  0.00    +0.000 A 
ATOM      8  C   UNL     1      -4.161  10.485  17.903  0.00  0.00    +0.000 A 
ATOM      9  C   UNL     1      -3.634  11.499  18.755  0.00  0.00    +0.000 A 
ATOM     10  C   UNL     1      -2.337  11.988  18.533  0.00  0.00    +0.000 A 
ATOM     11  C   UNL     1      -1.410  13.036  19.468  0.00  0.00    +0.000 C 
ATOM     12  H   UNL     1       0.374  11.305  17.800  0.00  0.00    +0.000 HD
ENDROOT
BRANCH   1  16
ATOM     13  N   UNL     1      -2.454  13.466  23.518  0.00  0.00    +0.000 NA
ATOM     14  C   UNL     1      -2.564  12.074  23.074  0.00  0.00    +0.000 C 
ATOM     15  C   UNL     1      -1.228  11.403  22.696  0.00  0.00    +0.000 C 
ATOM     16  C   UNL     1      -0.362  12.168  21.669  0.00  0.00    +0.000 C 
ATOM     17  C   UNL     1      -0.200  13.594  22.210  0.00  0.00    +0.000 C 
ATOM     18  C   UNL     1      -1.491  14.257  22.703  0.00  0.00    +0.000 C 
BRANCH  13  19
ATOM     19  C   UNL     1      -3.758  14.197  23.398  0.00  0.00    +0.000 C 
BRANCH  19  22
ATOM     20  C   UNL     1      -5.674  14.381  20.040  0.00  0.00    +0.000 A 
ATOM     21  C   UNL     1      -4.989  13.849  21.142  0.00  0.00    +0.000 A 
ATOM     22  C   UNL     1      -4.308  14.676  22.057  0.00  0.00    +0.000 A 
ATOM     23  C   UNL     1      -4.351  16.072  21.821  0.00  0.00    +0.000 A 
ATOM     24  C   UNL     1      -5.071  16.620  20.743  0.00  0.00    +0.000 A 
ATOM     25  C   UNL     1      -5.728  15.777  19.866  0.00  0.00    +0.000 A 
BRANCH  20  27
ATOM     26  C   UNL     1      -7.604  13.049  19.784  0.00  0.00    +0.000 C 
ATOM     27  O   UNL     1      -6.353  13.494  19.262  0.00  0.00    +0.000 OA
ENDBRANCH  20  27
BRANCH  24  28
ATOM     28  O   UNL     1      -5.076  17.993  20.701  0.00  0.00    +0.000 OA
ATOM     29  C   UNL     1      -6.119  18.619  19.961  0.00  0.00    +0.000 C 
ENDBRANCH  24  28
ENDBRANCH  19  22
ENDBRANCH  13  19
ENDBRANCH   1  16
BRANCH  11  30
ATOM     30  C   UNL     1      -0.091  13.974  19.004  0.00  0.00    +0.000 A 
ATOM     31  C   UNL     1       1.172  13.396  18.708  0.00  0.00    +0.000 A 
ATOM     32  C   UNL     1       2.305  14.207  18.432  0.00  0.00    +0.000 A 
ATOM     33  C   UNL     1       2.220  15.597  18.486  0.00  0.00    +0.000 A 
ATOM     34  C   UNL     1       0.989  16.177  18.715  0.00  0.00    +0.000 A 
ATOM     35  C   UNL     1      -0.145  15.378  18.906  0.00  0.00    +0.000 A 
ENDBRANCH  11  30
TORSDOF 6
ENDMDL
MODEL 7
REMARK VINA RESULT:      -6.3      2.804      5.752
REMARK  Name = 
REMARK  8 active torsions:
REMARK  status: ('A' for Active; 'I' for Inactive)
REMARK    1  A    between atoms: C_1  and  O_2
REMARK    2  A    between atoms: O_2  and  C_3
REMARK    3  A    between atoms: C_5  and  C_6
REMARK    4  A    between atoms: C_6  and  N_7
REMARK    5  A    between atoms: C_10  and  N_11
REMARK    6  A    between atoms: C_21  and  C_22
REMARK    7  A    between atoms: C_31  and  O_32
REMARK    8  A    between atoms: O_32  and  C_33
REMARK                            x       y       z     vdW  Elec       q    Type
REMARK                         _______ _______ _______ _____ _____    ______ ____
ROOT
ATOM      1  N   UNL     1      -0.007  11.772  18.817  0.00  0.00    +0.000 N 
ATOM      2  C   UNL     1      -0.888  12.844  18.661  0.00  0.00    +0.000 C 
ATOM      3  O   UNL     1      -0.633  13.853  18.015  0.00  0.00    +0.000 OA
ATOM      4  N   UNL     1      -2.182  12.652  19.139  0.00  0.00    +0.000 N 
ATOM      5  C   UNL     1      -2.824  11.553  18.555  0.00  0.00    +0.000 A 
ATOM      6  C   UNL     1      -4.070  11.841  18.002  0.00  0.00    +0.000 A 
ATOM      7  C   UNL     1      -4.277  11.505  16.676  0.00  0.00    +0.000 A 
ATOM      8  C   UNL     1      -3.240  10.875  15.971  0.00  0.00    +0.000 A 
ATOM      9  C   UNL     1      -2.064  10.414  16.633  0.00  0.00    +0.000 A 
ATOM     10  C   UNL     1      -1.897  10.664  18.004  0.00  0.00    +0.000 A 
ATOM     11  C   UNL     1      -0.557  10.396  18.988  0.00  0.00    +0.000 C 
ATOM     12  H   UNL     1      -2.251  12.581  20.138  0.00  0.00    +0.000 HD
ENDROOT
BRANCH   1  16
ATOM     13  N   UNL     1       2.687  14.559  19.917  0.00  0.00    +0.000 NA
ATOM     14  C   UNL     1       2.185  13.488  20.782  0.00  0.00    +0.000 C 
ATOM     15  C   UNL     1       2.194  12.081  20.149  0.00  0.00    +0.000 C 
ATOM     16  C   UNL     1       1.493  11.961  18.776  0.00  0.00    +0.000 C 
ATOM     17  C   UNL     1       2.106  13.041  17.876  0.00  0.00    +0.000 C 
ATOM     18  C   UNL     1       2.219  14.432  18.510  0.00  0.00    +0.000 C 
BRANCH  13  19
ATOM     19  C   UNL     1       2.214  15.909  20.367  0.00  0.00    +0.000 C 
BRANCH  19  22
ATOM     20  C   UNL     1      -0.607  17.513  18.256  0.00  0.00    +0.000 A 
ATOM     21  C   UNL     1       0.678  17.200  18.723  0.00  0.00    +0.000 A 
ATOM     22  C   UNL     1       0.875  16.495  19.928  0.00  0.00    +0.000 A 
ATOM     23  C   UNL     1      -0.284  16.109  20.646  0.00  0.00    +0.000 A 
ATOM     24  C   UNL     1      -1.578  16.380  20.166  0.00  0.00    +0.000 A 
ATOM     25  C   UNL     1      -1.732  17.073  18.979  0.00  0.00    +0.000 A 
BRANCH  20  27
ATOM     26  C   UNL     1       0.558  18.630  16.536  0.00  0.00    +0.000 C 
ATOM     27  O   UNL     1      -0.678  18.135  17.048  0.00  0.00    +0.000 OA
ENDBRANCH  20  27
BRANCH  24  28
ATOM     28  O   UNL     1      -2.591  15.871  20.942  0.00  0.00    +0.000 OA
ATOM     29  C   UNL     1      -2.320  15.683  22.327  0.00  0.00    +0.000 C 
ENDBRANCH  24  28
ENDBRANCH  19  22
ENDBRANCH  13  19
ENDBRANCH   1  16
BRANCH  11  30
ATOM     30  C   UNL     1      -0.494  10.251  20.664  0.00  0.00    +0.000 A 
ATOM     31  C   UNL     1       0.011   9.084  21.297  0.00  0.00    +0.000 A 
ATOM     32  C   UNL     1      -0.050   8.927  22.707  0.00  0.00    +0.000 A 
ATOM     33  C   UNL     1      -0.647   9.898  23.510  0.00  0.00    +0.000 A 
ATOM     34  C   UNL     1      -1.091  11.065  22.919  0.00  0.00    +0.000 A 
ATOM     35  C   UNL     1      -0.956  11.254  21.539  0.00  0.00    +0.000 A 
ENDBRANCH  11  30
TORSDOF 6
ENDMDL
MODEL 8
REMARK VINA RESULT:      -6.3      3.340      6.941
REMARK  Name = 
REMARK  8 active torsions:
REMARK  status: ('A' for Active; 'I' for Inactive)
REMARK    1  A    between atoms: C_1  and  O_2
REMARK    2  A    between atoms: O_2  and  C_3
REMARK    3  A    between atoms: C_5  and  C_6
REMARK    4  A    between atoms: C_6  and  N_7
REMARK    5  A    between atoms: C_10  and  N_11
REMARK    6  A    between atoms: C_21  and  C_22
REMARK    7  A    between atoms: C_31  and  O_32
REMARK    8  A    between atoms: O_32  and  C_33
REMARK                            x       y       z     vdW  Elec       q    Type
REMARK                         _______ _______ _______ _____ _____    ______ ____
ROOT
ATOM      1  N   UNL     1      -0.710  11.657  19.782  0.00  0.00    +0.000 N 
ATOM      2  C   UNL     1       0.600  11.691  19.300  0.00  0.00    +0.000 C 
ATOM      3  O   UNL     1       1.491  12.377  19.784  0.00  0.00    +0.000 OA
ATOM      4  N   UNL     1       0.920  10.755  18.320  0.00  0.00    +0.000 N 
ATOM      5  C   UNL     1       0.708   9.434  18.733  0.00  0.00    +0.000 A 
ATOM      6  C   UNL     1       1.811   8.597  18.574  0.00  0.00    +0.000 A 
ATOM      7  C   UNL     1       2.260   7.907  19.686  0.00  0.00    +0.000 A 
ATOM      8  C   UNL     1       1.573   8.066  20.899  0.00  0.00    +0.000 A 
ATOM      9  C   UNL     1       0.332   8.765  20.965  0.00  0.00    +0.000 A 
ATOM     10  C   UNL     1      -0.179   9.381  19.812  0.00  0.00    +0.000 A 
ATOM     11  C   UNL     1      -1.506  10.403  19.640  0.00  0.00    +0.000 C 
ATOM     12  H   UNL     1       0.461  10.901  17.438  0.00  0.00    +0.000 HD
ENDROOT
BRANCH   1  16
ATOM     13  N   UNL     1       0.437  15.281  21.117  0.00  0.00    +0.000 NA
ATOM     14  C   UNL     1      -0.038  14.997  19.761  0.00  0.00    +0.000 C 
ATOM     15  C   UNL     1      -1.338  14.169  19.686  0.00  0.00    +0.000 C 
ATOM     16  C   UNL     1      -1.333  12.844  20.482  0.00  0.00    +0.000 C 
ATOM     17  C   UNL     1      -0.914  13.196  21.914  0.00  0.00    +0.000 C 
ATOM     18  C   UNL     1       0.310  14.112  22.030  0.00  0.00    +0.000 C 
BRANCH  13  19
ATOM     19  C   UNL     1       1.894  15.635  21.137  0.00  0.00    +0.000 C 
BRANCH  19  22
ATOM     20  C   UNL     1       4.269  15.100  18.128  0.00  0.00    +0.000 A 
ATOM     21  C   UNL     1       3.721  14.988  19.413  0.00  0.00    +0.000 A 
ATOM     22  C   UNL     1       2.701  15.853  19.860  0.00  0.00    +0.000 A 
ATOM     23  C   UNL     1       2.248  16.838  18.950  0.00  0.00    +0.000 A 
ATOM     24  C   UNL     1       2.760  16.934  17.643  0.00  0.00    +0.000 A 
ATOM     25  C   UNL     1       3.759  16.066  17.240  0.00  0.00    +0.000 A 
BRANCH  20  27
ATOM     26  C   UNL     1       6.554  14.615  17.797  0.00  0.00    +0.000 C 
ATOM     27  O   UNL     1       5.198  14.168  17.781  0.00  0.00    +0.000 OA
ENDBRANCH  20  27
BRANCH  24  28
ATOM     28  O   UNL     1       2.159  17.892  16.864  0.00  0.00    +0.000 OA
ATOM     29  C   UNL     1       0.799  18.205  17.149  0.00  0.00    +0.000 C 
ENDBRANCH  24  28
ENDBRANCH  19  22
ENDBRANCH  13  19
ENDBRANCH   1  16
BRANCH  11  30
ATOM     30  C   UNL     1      -2.387  10.759  18.250  0.00  0.00    +0.000 A 
ATOM     31  C   UNL     1      -3.608  11.485  18.301  0.00  0.00    +0.000 A 
ATOM     32  C   UNL     1      -4.398  11.677  17.137  0.00  0.00    +0.000 A 
ATOM     33  C   UNL     1      -4.020  11.122  15.916  0.00  0.00    +0.000 A 
ATOM     34  C   UNL     1      -2.809  10.463  15.834  0.00  0.00    +0.000 A 
ATOM     35  C   UNL     1      -1.991  10.345  16.963  0.00  0.00    +0.000 A 
ENDBRANCH  11  30
TORSDOF 6
ENDMDL
MODEL 9
REMARK VINA RESULT:      -6.3      4.351      8.431
REMARK  Name = 
REMARK  8 active torsions:
REMARK  status: ('A' for Active; 'I' for Inactive)
REMARK    1  A    between atoms: C_1  and  O_2
REMARK    2  A    between atoms: O_2  and  C_3
REMARK    3  A    between atoms: C_5  and  C_6
REMARK    4  A    between atoms: C_6  and  N_7
REMARK    5  A    between atoms: C_10  and  N_11
REMARK    6  A    between atoms: C_21  and  C_22
REMARK    7  A    between atoms: C_31  and  O_32
REMARK    8  A    between atoms: O_32  and  C_33
REMARK                            x       y       z     vdW  Elec       q    Type
REMARK                         _______ _______ _______ _____ _____    ______ ____
ROOT
ATOM      1  N   UNL     1      -0.281  11.613  21.502  0.00  0.00    +0.000 N 
ATOM      2  C   UNL     1      -0.618  12.805  22.147  0.00  0.00    +0.000 C 
ATOM      3  O   UNL     1      -0.586  12.959  23.361  0.00  0.00    +0.000 OA
ATOM      4  N   UNL     1      -0.837  13.908  21.327  0.00  0.00    +0.000 N 
ATOM      5  C   UNL     1       0.264  14.220  20.521  0.00  0.00    +0.000 A 
ATOM      6  C   UNL     1       0.690  15.544  20.613  0.00  0.00    +0.000 A 
ATOM      7  C   UNL     1       2.016  15.771  20.933  0.00  0.00    +0.000 A 
ATOM      8  C   UNL     1       2.863  14.668  21.121  0.00  0.00    +0.000 A 
ATOM      9  C   UNL     1       2.437  13.343  20.812  0.00  0.00    +0.000 A 
ATOM     10  C   UNL     1       1.117  13.119  20.389  0.00  0.00    +0.000 A 
ATOM     11  C   UNL     1       0.304  11.668  20.131  0.00  0.00    +0.000 C 
ATOM     12  H   UNL     1      -1.658  13.843  20.751  0.00  0.00    +0.000 HD
ENDROOT
BRANCH   1  16
ATOM     13  N   UNL     1       1.262   7.904  21.195  0.00  0.00    +0.000 NA
ATOM     14  C   UNL     1       1.818   8.980  22.020  0.00  0.00    +0.000 C 
ATOM     15  C   UNL     1       0.792   9.718  22.905  0.00  0.00    +0.000 C 
ATOM     16  C   UNL     1      -0.452  10.268  22.171  0.00  0.00    +0.000 C 
ATOM     17  C   UNL     1      -1.052   9.093  21.388  0.00  0.00    +0.000 C 
ATOM     18  C   UNL     1      -0.047   8.263  20.583  0.00  0.00    +0.000 C 
BRANCH  13  19
ATOM     19  C   UNL     1       2.155   7.567  20.038  0.00  0.00    +0.000 C 
BRANCH  19  22
ATOM     20  C   UNL     1       2.023   3.718  19.659  0.00  0.00    +0.000 A 
ATOM     21  C   UNL     1       1.859   4.997  20.210  0.00  0.00    +0.000 A 
ATOM     22  C   UNL     1       2.483   6.128  19.647  0.00  0.00    +0.000 A 
ATOM     23  C   UNL     1       3.278   5.920  18.494  0.00  0.00    +0.000 A 
ATOM     24  C   UNL     1       3.415   4.649  17.907  0.00  0.00    +0.000 A 
ATOM     25  C   UNL     1       2.787   3.562  18.487  0.00  0.00    +0.000 A 
BRANCH  20  27
ATOM     26  C   UNL     1       1.440   2.618  21.663  0.00  0.00    +0.000 C 
ATOM     27  O   UNL     1       1.320   2.710  20.244  0.00  0.00    +0.000 OA
ENDBRANCH  20  27
BRANCH  24  28
ATOM     28  O   UNL     1       4.157   4.632  16.751  0.00  0.00    +0.000 OA
ATOM     29  C   UNL     1       5.116   5.670  16.577  0.00  0.00    +0.000 C 
ENDBRANCH  24  28
ENDBRANCH  19  22
ENDBRANCH  13  19
ENDBRANCH   1  16
BRANCH  11  30
ATOM     30  C   UNL     1      -1.073  11.383  19.204  0.00  0.00    +0.000 A 
ATOM     31  C   UNL     1      -2.316  12.004  19.497  0.00  0.00    +0.000 A 
ATOM     32  C   UNL     1      -3.494  11.666  18.780  0.00  0.00    +0.000 A 
ATOM     33  C   UNL     1      -3.474  10.681  17.794  0.00  0.00    +0.000 A 
ATOM     34  C   UNL     1      -2.265  10.107  17.456  0.00  0.00    +0.000 A 
ATOM     35  C   UNL     1      -1.089  10.500  18.106  0.00  0.00    +0.000 A 
ENDBRANCH  11  30
TORSDOF 6
ENDMDL
