MODEL 1
REMARK VINA RESULT:      -8.0      0.000      0.000
REMARK  Name = 
REMARK  8 active torsions:
REMARK  status: ('A' for Active; 'I' for Inactive)
REMARK    1  A    between atoms: C_1  and  C_2
REMARK    2  A    between atoms: C_2  and  O_3
REMARK    3  A    between atoms: O_3  and  C_4
REMARK    4  A    between atoms: C_9  and  O_10
REMARK    5  A    between atoms: O_10  and  C_11
REMARK    6  A    between atoms: C_11  and  C_12
REMARK    7  A    between atoms: C_12  and  N_13
REMARK    8  A    between atoms: N_13  and  C_14
REMARK                            x       y       z     vdW  Elec       q    Type
REMARK                         _______ _______ _______ _____ _____    ______ ____
ROOT
ATOM      1  C   UNL     1       3.536   3.532  18.493  0.00  0.00    +0.000 A 
ATOM      2  C   UNL     1       3.581   4.588  17.665  0.00  0.00    +0.000 A 
ATOM      3  C   UNL     1       4.742   5.440  17.561  0.00  0.00    +0.000 A 
ATOM      4  C   UNL     1       4.783   6.503  16.657  0.00  0.00    +0.000 A 
ATOM      5  C   UNL     1       5.918   7.311  16.590  0.00  0.00    +0.000 A 
ATOM      6  C   UNL     1       7.017   7.055  17.417  0.00  0.00    +0.000 A 
ATOM      7  C   UNL     1       6.963   6.004  18.339  0.00  0.00    +0.000 A 
ATOM      8  C   UNL     1       5.829   5.199  18.385  0.00  0.00    +0.000 A 
ATOM      9  O   UNL     1       5.813   4.108  19.276  0.00  0.00    +0.000 OA
ATOM     10  C   UNL     1       4.736   3.219  19.344  0.00  0.00    +0.000 A 
ATOM     11  O   UNL     1       4.781   2.233  20.077  0.00  0.00    +0.000 OA
ENDROOT
BRANCH   1  12
ATOM     12  O   UNL     1       2.434   2.691  18.626  0.00  0.00    +0.000 OA
BRANCH  12  14
ATOM     13  C   UNL     1       1.158   2.999  20.658  0.00  0.00    +0.000 C 
ATOM     14  C   UNL     1       1.260   3.288  19.177  0.00  0.00    +0.000 C 
ENDBRANCH  12  14
ENDBRANCH   1  12
BRANCH   6  15
ATOM     15  O   UNL     1       8.088   7.889  17.240  0.00  0.00    +0.000 OA
BRANCH  15  16
ATOM     16  C   UNL     1       7.963   9.177  17.851  0.00  0.00    +0.000 C 
BRANCH  16  17
ATOM     17  C   UNL     1       8.929   9.292  19.040  0.00  0.00    +0.000 C 
BRANCH  17  18
ATOM     18  N   UNL     1       9.655  10.566  19.068  0.00  0.00    +0.000 N 
ATOM     19  C   UNL     1      10.047  11.185  17.815  0.00  0.00    +0.000 C 
ATOM     20  C   UNL     1       9.525  11.355  20.161  0.00  0.00    +0.000 A 
ATOM     21  N   UNL     1       8.902  11.094  21.292  0.00  0.00    +0.000 NA
ATOM     22  C   UNL     1       8.960  12.275  21.982  0.00  0.00    +0.000 A 
ATOM     23  C   UNL     1       8.430  12.647  23.224  0.00  0.00    +0.000 A 
ATOM     24  C   UNL     1       8.645  13.962  23.664  0.00  0.00    +0.000 A 
ATOM     25  C   UNL     1       9.370  14.878  22.889  0.00  0.00    +0.000 A 
ATOM     26  C   UNL     1       9.906  14.519  21.646  0.00  0.00    +0.000 A 
ATOM     27  C   UNL     1       9.663  13.211  21.247  0.00  0.00    +0.000 A 
ATOM     28  O   UNL     1      10.041  12.623  20.080  0.00  0.00    +0.000 OA
ENDBRANCH  17  18
ENDBRANCH  16  17
ENDBRANCH  15  16
ENDBRANCH   6  15
TORSDOF 6
ENDMDL
MODEL 2
REMARK VINA RESULT:      -8.0      2.017      3.152
REMARK  Name = 
REMARK  8 active torsions:
REMARK  status: ('A' for Active; 'I' for Inactive)
REMARK    1  A    between atoms: C_1  and  C_2
REMARK    2  A    between atoms: C_2  and  O_3
REMARK    3  A    between atoms: O_3  and  C_4
REMARK    4  A    between atoms: C_9  and  O_10
REMARK    5  A    between atoms: O_10  and  C_11
REMARK    6  A    between atoms: C_11  and  C_12
REMARK    7  A    between atoms: C_12  and  N_13
REMARK    8  A    between atoms: N_13  and  C_14
REMARK                            x       y       z     vdW  Elec       q    Type
REMARK                         _______ _______ _______ _____ _____    ______ ____
ROOT
ATOM      1  C   UNL     1       3.705   3.465  18.792  0.00  0.00    +0.000 A 
ATOM      2  C   UNL     1       4.896   3.847  19.280  0.00  0.00    +0.000 A 
ATOM      3  C   UNL     1       5.636   4.958  18.729  0.00  0.00    +0.000 A 
ATOM      4  C   UNL     1       6.849   5.367  19.284  0.00  0.00    +0.000 A 
ATOM      5  C   UNL     1       7.543   6.438  18.719  0.00  0.00    +0.000 A 
ATOM      6  C   UNL     1       7.021   7.109  17.607  0.00  0.00    +0.000 A 
ATOM      7  C   UNL     1       5.817   6.680  17.039  0.00  0.00    +0.000 A 
ATOM      8  C   UNL     1       5.132   5.619  17.620  0.00  0.00    +0.000 A 
ATOM      9  O   UNL     1       3.892   5.237  17.073  0.00  0.00    +0.000 OA
ATOM     10  C   UNL     1       3.114   4.217  17.632  0.00  0.00    +0.000 A 
ATOM     11  O   UNL     1       2.002   3.956  17.178  0.00  0.00    +0.000 OA
ENDROOT
BRANCH   1  12
ATOM     12  O   UNL     1       2.963   2.397  19.292  0.00  0.00    +0.000 OA
BRANCH  12  14
ATOM     13  C   UNL     1       1.199   3.385  20.619  0.00  0.00    +0.000 C 
ATOM     14  C   UNL     1       2.463   2.556  20.620  0.00  0.00    +0.000 C 
ENDBRANCH  12  14
ENDBRANCH   1  12
BRANCH   6  15
ATOM     15  O   UNL     1       7.768   8.166  17.161  0.00  0.00    +0.000 OA
BRANCH  15  16
ATOM     16  C   UNL     1       8.510   8.855  18.172  0.00  0.00    +0.000 C 
BRANCH  16  17
ATOM     17  C   UNL     1       8.669  10.335  17.792  0.00  0.00    +0.000 C 
BRANCH  17  18
ATOM     18  N   UNL     1       9.112  11.171  18.913  0.00  0.00    +0.000 N 
ATOM     19  C   UNL     1       9.349  10.555  20.206  0.00  0.00    +0.000 C 
ATOM     20  C   UNL     1       9.739  12.339  18.634  0.00  0.00    +0.000 A 
ATOM     21  N   UNL     1       9.927  12.910  17.462  0.00  0.00    +0.000 NA
ATOM     22  C   UNL     1      10.730  13.984  17.742  0.00  0.00    +0.000 A 
ATOM     23  C   UNL     1      11.315  14.943  16.906  0.00  0.00    +0.000 A 
ATOM     24  C   UNL     1      12.119  15.929  17.498  0.00  0.00    +0.000 A 
ATOM     25  C   UNL     1      12.330  15.959  18.883  0.00  0.00    +0.000 A 
ATOM     26  C   UNL     1      11.749  15.008  19.730  0.00  0.00    +0.000 A 
ATOM     27  C   UNL     1      10.968  14.047  19.102  0.00  0.00    +0.000 A 
ATOM     28  O   UNL     1      10.323  13.000  19.684  0.00  0.00    +0.000 OA
ENDBRANCH  17  18
ENDBRANCH  16  17
ENDBRANCH  15  16
ENDBRANCH   6  15
TORSDOF 6
ENDMDL
MODEL 3
REMARK VINA RESULT:      -8.0      5.560      9.062
REMARK  Name = 
REMARK  8 active torsions:
REMARK  status: ('A' for Active; 'I' for Inactive)
REMARK    1  A    between atoms: C_1  and  C_2
REMARK    2  A    between atoms: C_2  and  O_3
REMARK    3  A    between atoms: O_3  and  C_4
REMARK    4  A    between atoms: C_9  and  O_10
REMARK    5  A    between atoms: O_10  and  C_11
REMARK    6  A    between atoms: C_11  and  C_12
REMARK    7  A    between atoms: C_12  and  N_13
REMARK    8  A    between atoms: N_13  and  C_14
REMARK                            x       y       z     vdW  Elec       q    Type
REMARK                         _______ _______ _______ _____ _____    ______ ____
ROOT
ATOM      1  C   UNL     1       0.191  10.916  18.990  0.00  0.00    +0.000 A 
ATOM      2  C   UNL     1       1.007  10.248  18.160  0.00  0.00    +0.000 A 
ATOM      3  C   UNL     1       1.652   9.012  18.538  0.00  0.00    +0.000 A 
ATOM      4  C   UNL     1       2.458   8.310  17.641  0.00  0.00    +0.000 A 
ATOM      5  C   UNL     1       3.073   7.125  18.044  0.00  0.00    +0.000 A 
ATOM      6  C   UNL     1       2.877   6.633  19.339  0.00  0.00    +0.000 A 
ATOM      7  C   UNL     1       2.088   7.352  20.244  0.00  0.00    +0.000 A 
ATOM      8  C   UNL     1       1.472   8.526  19.823  0.00  0.00    +0.000 A 
ATOM      9  O   UNL     1       0.632   9.207  20.726  0.00  0.00    +0.000 OA
ATOM     10  C   UNL     1      -0.068  10.362  20.364  0.00  0.00    +0.000 A 
ATOM     11  O   UNL     1      -0.851  10.893  21.149  0.00  0.00    +0.000 OA
ENDROOT
BRANCH   1  12
ATOM     12  O   UNL     1      -0.445  12.112  18.664  0.00  0.00    +0.000 OA
BRANCH  12  14
ATOM     13  C   UNL     1      -0.427  14.354  19.571  0.00  0.00    +0.000 C 
ATOM     14  C   UNL     1       0.341  13.294  18.815  0.00  0.00    +0.000 C 
ENDBRANCH  12  14
ENDBRANCH   1  12
BRANCH   6  15
ATOM     15  O   UNL     1       3.499   5.444  19.613  0.00  0.00    +0.000 OA
BRANCH  15  16
ATOM     16  C   UNL     1       3.919   4.701  18.464  0.00  0.00    +0.000 C 
BRANCH  16  17
ATOM     17  C   UNL     1       5.405   4.333  18.590  0.00  0.00    +0.000 C 
BRANCH  17  18
ATOM     18  N   UNL     1       6.272   5.140  17.726  0.00  0.00    +0.000 N 
ATOM     19  C   UNL     1       7.440   5.786  18.299  0.00  0.00    +0.000 C 
ATOM     20  C   UNL     1       6.265   4.889  16.395  0.00  0.00    +0.000 A 
ATOM     21  N   UNL     1       5.490   4.066  15.719  0.00  0.00    +0.000 NA
ATOM     22  C   UNL     1       6.000   4.098  14.449  0.00  0.00    +0.000 A 
ATOM     23  C   UNL     1       5.643   3.397  13.291  0.00  0.00    +0.000 A 
ATOM     24  C   UNL     1       6.381   3.636  12.122  0.00  0.00    +0.000 A 
ATOM     25  C   UNL     1       7.443   4.551  12.108  0.00  0.00    +0.000 A 
ATOM     26  C   UNL     1       7.810   5.260  13.258  0.00  0.00    +0.000 A 
ATOM     27  C   UNL     1       7.058   4.987  14.393  0.00  0.00    +0.000 A 
ATOM     28  O   UNL     1       7.226   5.509  15.638  0.00  0.00    +0.000 OA
ENDBRANCH  17  18
ENDBRANCH  16  17
ENDBRANCH  15  16
ENDBRANCH   6  15
TORSDOF 6
ENDMDL
MODEL 4
REMARK VINA RESULT:      -7.6      5.824      9.200
REMARK  Name = 
REMARK  8 active torsions:
REMARK  status: ('A' for Active; 'I' for Inactive)
REMARK    1  A    between atoms: C_1  and  C_2
REMARK    2  A    between atoms: C_2  and  O_3
REMARK    3  A    between atoms: O_3  and  C_4
REMARK    4  A    between atoms: C_9  and  O_10
REMARK    5  A    between atoms: O_10  and  C_11
REMARK    6  A    between atoms: C_11  and  C_12
REMARK    7  A    between atoms: C_12  and  N_13
REMARK    8  A    between atoms: N_13  and  C_14
REMARK                            x       y       z     vdW  Elec       q    Type
REMARK                         _______ _______ _______ _____ _____    ______ ____
ROOT
ATOM      1  C   UNL     1       0.321  10.651  21.444  0.00  0.00    +0.000 A 
ATOM      2  C   UNL     1       0.501   9.363  21.776  0.00  0.00    +0.000 A 
ATOM      3  C   UNL     1       1.187   8.431  20.912  0.00  0.00    +0.000 A 
ATOM      4  C   UNL     1       1.405   7.108  21.300  0.00  0.00    +0.000 A 
ATOM      5  C   UNL     1       2.063   6.233  20.435  0.00  0.00    +0.000 A 
ATOM      6  C   UNL     1       2.514   6.679  19.188  0.00  0.00    +0.000 A 
ATOM      7  C   UNL     1       2.273   7.999  18.793  0.00  0.00    +0.000 A 
ATOM      8  C   UNL     1       1.626   8.862  19.671  0.00  0.00    +0.000 A 
ATOM      9  O   UNL     1       1.443  10.204  19.283  0.00  0.00    +0.000 OA
ATOM     10  C   UNL     1       0.852  11.149  20.128  0.00  0.00    +0.000 A 
ATOM     11  O   UNL     1       0.774  12.329  19.793  0.00  0.00    +0.000 OA
ENDROOT
BRANCH   1  12
ATOM     12  O   UNL     1      -0.340  11.578  22.247  0.00  0.00    +0.000 OA
BRANCH  12  14
ATOM     13  C   UNL     1      -2.491  11.972  23.280  0.00  0.00    +0.000 C 
ATOM     14  C   UNL     1      -1.307  11.041  23.149  0.00  0.00    +0.000 C 
ENDBRANCH  12  14
ENDBRANCH   1  12
BRANCH   6  15
ATOM     15  O   UNL     1       3.179   5.744  18.440  0.00  0.00    +0.000 OA
BRANCH  15  16
ATOM     16  C   UNL     1       4.012   4.851  19.185  0.00  0.00    +0.000 C 
BRANCH  16  17
ATOM     17  C   UNL     1       4.963   4.104  18.237  0.00  0.00    +0.000 C 
BRANCH  17  18
ATOM     18  N   UNL     1       5.856   5.000  17.496  0.00  0.00    +0.000 N 
ATOM     19  C   UNL     1       6.912   5.697  18.209  0.00  0.00    +0.000 C 
ATOM     20  C   UNL     1       6.004   4.802  16.164  0.00  0.00    +0.000 A 
ATOM     21  N   UNL     1       5.361   3.958  15.384  0.00  0.00    +0.000 NA
ATOM     22  C   UNL     1       5.996   4.074  14.176  0.00  0.00    +0.000 A 
ATOM     23  C   UNL     1       5.809   3.397  12.964  0.00  0.00    +0.000 A 
ATOM     24  C   UNL     1       6.645   3.731  11.888  0.00  0.00    +0.000 A 
ATOM     25  C   UNL     1       7.638   4.712  12.016  0.00  0.00    +0.000 A 
ATOM     26  C   UNL     1       7.834   5.397  13.222  0.00  0.00    +0.000 A 
ATOM     27  C   UNL     1       6.990   5.031  14.261  0.00  0.00    +0.000 A 
ATOM     28  O   UNL     1       6.992   5.513  15.534  0.00  0.00    +0.000 OA
ENDBRANCH  17  18
ENDBRANCH  16  17
ENDBRANCH  15  16
ENDBRANCH   6  15
TORSDOF 6
ENDMDL
MODEL 5
REMARK VINA RESULT:      -7.6      2.366      3.054
REMARK  Name = 
REMARK  8 active torsions:
REMARK  status: ('A' for Active; 'I' for Inactive)
REMARK    1  A    between atoms: C_1  and  C_2
REMARK    2  A    between atoms: C_2  and  O_3
REMARK    3  A    between atoms: O_3  and  C_4
REMARK    4  A    between atoms: C_9  and  O_10
REMARK    5  A    between atoms: O_10  and  C_11
REMARK    6  A    between atoms: C_11  and  C_12
REMARK    7  A    between atoms: C_12  and  N_13
REMARK    8  A    between atoms: N_13  and  C_14
REMARK                            x       y       z     vdW  Elec       q    Type
REMARK                         _______ _______ _______ _____ _____    ______ ____
ROOT
ATOM      1  C   UNL     1       3.811   3.875  18.824  0.00  0.00    +0.000 A 
ATOM      2  C   UNL     1       5.090   4.107  19.159  0.00  0.00    +0.000 A 
ATOM      3  C   UNL     1       5.836   5.226  18.634  0.00  0.00    +0.000 A 
ATOM      4  C   UNL     1       7.150   5.474  19.034  0.00  0.00    +0.000 A 
ATOM      5  C   UNL     1       7.844   6.559  18.499  0.00  0.00    +0.000 A 
ATOM      6  C   UNL     1       7.225   7.404  17.571  0.00  0.00    +0.000 A 
ATOM      7  C   UNL     1       5.917   7.138  17.153  0.00  0.00    +0.000 A 
ATOM      8  C   UNL     1       5.234   6.060  17.706  0.00  0.00    +0.000 A 
ATOM      9  O   UNL     1       3.897   5.840  17.320  0.00  0.00    +0.000 OA
ATOM     10  C   UNL     1       3.124   4.812  17.870  0.00  0.00    +0.000 A 
ATOM     11  O   UNL     1       1.938   4.691  17.570  0.00  0.00    +0.000 OA
ENDROOT
BRANCH   1  12
ATOM     12  O   UNL     1       3.060   2.805  19.305  0.00  0.00    +0.000 OA
BRANCH  12  14
ATOM     13  C   UNL     1       1.318   3.002  20.971  0.00  0.00    +0.000 C 
ATOM     14  C   UNL     1       2.794   2.813  20.708  0.00  0.00    +0.000 C 
ENDBRANCH  12  14
ENDBRANCH   1  12
BRANCH   6  15
ATOM     15  O   UNL     1       7.988   8.457  17.141  0.00  0.00    +0.000 OA
BRANCH  15  16
ATOM     16  C   UNL     1       8.508   9.294  18.179  0.00  0.00    +0.000 C 
BRANCH  16  17
ATOM     17  C   UNL     1       8.243  10.770  17.847  0.00  0.00    +0.000 C 
BRANCH  17  18
ATOM     18  N   UNL     1       9.383  11.640  18.153  0.00  0.00    +0.000 N 
ATOM     19  C   UNL     1      10.722  11.203  17.801  0.00  0.00    +0.000 C 
ATOM     20  C   UNL     1       9.158  12.968  18.293  0.00  0.00    +0.000 A 
ATOM     21  N   UNL     1       8.007  13.609  18.298  0.00  0.00    +0.000 NA
ATOM     22  C   UNL     1       8.364  14.931  18.328  0.00  0.00    +0.000 A 
ATOM     23  C   UNL     1       7.591  16.098  18.294  0.00  0.00    +0.000 A 
ATOM     24  C   UNL     1       8.259  17.331  18.319  0.00  0.00    +0.000 A 
ATOM     25  C   UNL     1       9.658  17.398  18.380  0.00  0.00    +0.000 A 
ATOM     26  C   UNL     1      10.443  16.239  18.416  0.00  0.00    +0.000 A 
ATOM     27  C   UNL     1       9.741  15.042  18.381  0.00  0.00    +0.000 A 
ATOM     28  O   UNL     1      10.258  13.783  18.373  0.00  0.00    +0.000 OA
ENDBRANCH  17  18
ENDBRANCH  16  17
ENDBRANCH  15  16
ENDBRANCH   6  15
TORSDOF 6
ENDMDL
MODEL 6
REMARK VINA RESULT:      -7.6      6.157      9.264
REMARK  Name = 
REMARK  8 active torsions:
REMARK  status: ('A' for Active; 'I' for Inactive)
REMARK    1  A    between atoms: C_1  and  C_2
REMARK    2  A    between atoms: C_2  and  O_3
REMARK    3  A    between atoms: O_3  and  C_4
REMARK    4  A    between atoms: C_9  and  O_10
REMARK    5  A    between atoms: O_10  and  C_11
REMARK    6  A    between atoms: C_11  and  C_12
REMARK    7  A    between atoms: C_12  and  N_13
REMARK    8  A    between atoms: N_13  and  C_14
REMARK                            x       y       z     vdW  Elec       q    Type
REMARK                         _______ _______ _______ _____ _____    ______ ____
ROOT
ATOM      1  C   UNL     1      -0.485  11.224  20.222  0.00  0.00    +0.000 A 
ATOM      2  C   UNL     1       0.248  10.668  19.243  0.00  0.00    +0.000 A 
ATOM      3  C   UNL     1       0.979   9.437  19.430  0.00  0.00    +0.000 A 
ATOM      4  C   UNL     1       1.694   8.853  18.384  0.00  0.00    +0.000 A 
ATOM      5  C   UNL     1       2.397   7.668  18.602  0.00  0.00    +0.000 A 
ATOM      6  C   UNL     1       2.380   7.060  19.862  0.00  0.00    +0.000 A 
ATOM      7  C   UNL     1       1.683   7.661  20.915  0.00  0.00    +0.000 A 
ATOM      8  C   UNL     1       0.977   8.836  20.678  0.00  0.00    +0.000 A 
ATOM      9  O   UNL     1       0.230   9.397  21.732  0.00  0.00    +0.000 OA
ATOM     10  C   UNL     1      -0.551  10.545  21.562  0.00  0.00    +0.000 A 
ATOM     11  O   UNL     1      -1.251  10.969  22.479  0.00  0.00    +0.000 OA
ENDROOT
BRANCH   1  12
ATOM     12  O   UNL     1      -1.199  12.412  20.083  0.00  0.00    +0.000 OA
BRANCH  12  14
ATOM     13  C   UNL     1      -3.208  11.833  18.867  0.00  0.00    +0.000 C 
ATOM     14  C   UNL     1      -1.893  12.578  18.846  0.00  0.00    +0.000 C 
ENDBRANCH  12  14
ENDBRANCH   1  12
BRANCH   6  15
ATOM     15  O   UNL     1       3.075   5.883  19.951  0.00  0.00    +0.000 OA
BRANCH  15  16
ATOM     16  C   UNL     1       2.418   4.845  20.686  0.00  0.00    +0.000 C 
BRANCH  16  17
ATOM     17  C   UNL     1       2.847   3.470  20.152  0.00  0.00    +0.000 C 
BRANCH  17  18
ATOM     18  N   UNL     1       2.764   3.370  18.691  0.00  0.00    +0.000 N 
ATOM     19  C   UNL     1       1.472   3.507  18.044  0.00  0.00    +0.000 C 
ATOM     20  C   UNL     1       3.878   3.635  17.966  0.00  0.00    +0.000 A 
ATOM     21  N   UNL     1       5.099   3.878  18.397  0.00  0.00    +0.000 NA
ATOM     22  C   UNL     1       5.789   4.216  17.262  0.00  0.00    +0.000 A 
ATOM     23  C   UNL     1       7.113   4.629  17.075  0.00  0.00    +0.000 A 
ATOM     24  C   UNL     1       7.531   4.928  15.769  0.00  0.00    +0.000 A 
ATOM     25  C   UNL     1       6.653   4.815  14.682  0.00  0.00    +0.000 A 
ATOM     26  C   UNL     1       5.326   4.401  14.856  0.00  0.00    +0.000 A 
ATOM     27  C   UNL     1       4.954   4.123  16.164  0.00  0.00    +0.000 A 
ATOM     28  O   UNL     1       3.727   3.737  16.607  0.00  0.00    +0.000 OA
ENDBRANCH  17  18
ENDBRANCH  16  17
ENDBRANCH  15  16
ENDBRANCH   6  15
TORSDOF 6
ENDMDL
MODEL 7
REMARK VINA RESULT:      -7.6      6.099      9.556
REMARK  Name = 
REMARK  8 active torsions:
REMARK  status: ('A' for Active; 'I' for Inactive)
REMARK    1  A    between atoms: C_1  and  C_2
REMARK    2  A    between atoms: C_2  and  O_3
REMARK    3  A    between atoms: O_3  and  C_4
REMARK    4  A    between atoms: C_9  and  O_10
REMARK    5  A    between atoms: O_10  and  C_11
REMARK    6  A    between atoms: C_11  and  C_12
REMARK    7  A    between atoms: C_12  and  N_13
REMARK    8  A    between atoms: N_13  and  C_14
REMARK                            x       y       z     vdW  Elec       q    Type
REMARK                         _______ _______ _______ _____ _____    ______ ____
ROOT
ATOM      1  C   UNL     1      -0.365  11.835  20.494  0.00  0.00    +0.000 A 
ATOM      2  C   UNL     1       0.319  11.271  19.486  0.00  0.00    +0.000 A 
ATOM      3  C   UNL     1       0.915   9.960  19.595  0.00  0.00    +0.000 A 
ATOM      4  C   UNL     1       1.580   9.374  18.518  0.00  0.00    +0.000 A 
ATOM      5  C   UNL     1       2.152   8.110  18.662  0.00  0.00    +0.000 A 
ATOM      6  C   UNL     1       2.054   7.425  19.878  0.00  0.00    +0.000 A 
ATOM      7  C   UNL     1       1.408   8.026  20.963  0.00  0.00    +0.000 A 
ATOM      8  C   UNL     1       0.832   9.281  20.800  0.00  0.00    +0.000 A 
ATOM      9  O   UNL     1       0.133   9.848  21.884  0.00  0.00    +0.000 OA
ATOM     10  C   UNL     1      -0.522  11.080  21.785  0.00  0.00    +0.000 A 
ATOM     11  O   UNL     1      -1.187  11.514  22.723  0.00  0.00    +0.000 OA
ENDROOT
BRANCH   1  12
ATOM     12  O   UNL     1      -0.950  13.098  20.430  0.00  0.00    +0.000 OA
BRANCH  12  14
ATOM     13  C   UNL     1      -0.637  15.355  19.620  0.00  0.00    +0.000 C 
ATOM     14  C   UNL     1      -0.044  14.200  20.395  0.00  0.00    +0.000 C 
ENDBRANCH  12  14
ENDBRANCH   1  12
BRANCH   6  15
ATOM     15  O   UNL     1       2.620   6.178  19.894  0.00  0.00    +0.000 OA
BRANCH  15  16
ATOM     16  C   UNL     1       1.940   5.213  20.702  0.00  0.00    +0.000 C 
BRANCH  16  17
ATOM     17  C   UNL     1       2.513   3.811  20.442  0.00  0.00    +0.000 C 
BRANCH  17  18
ATOM     18  N   UNL     1       2.566   3.468  19.018  0.00  0.00    +0.000 N 
ATOM     19  C   UNL     1       1.330   3.395  18.260  0.00  0.00    +0.000 C 
ATOM     20  C   UNL     1       3.719   3.699  18.345  0.00  0.00    +0.000 A 
ATOM     21  N   UNL     1       4.879   4.105  18.820  0.00  0.00    +0.000 NA
ATOM     22  C   UNL     1       5.643   4.307  17.700  0.00  0.00    +0.000 A 
ATOM     23  C   UNL     1       6.948   4.788  17.547  0.00  0.00    +0.000 A 
ATOM     24  C   UNL     1       7.459   4.902  16.245  0.00  0.00    +0.000 A 
ATOM     25  C   UNL     1       6.690   4.544  15.129  0.00  0.00    +0.000 A 
ATOM     26  C   UNL     1       5.384   4.060  15.269  0.00  0.00    +0.000 A 
ATOM     27  C   UNL     1       4.916   3.970  16.573  0.00  0.00    +0.000 A 
ATOM     28  O   UNL     1       3.683   3.566  16.981  0.00  0.00    +0.000 OA
ENDBRANCH  17  18
ENDBRANCH  16  17
ENDBRANCH  15  16
ENDBRANCH   6  15
TORSDOF 6
ENDMDL
MODEL 8
REMARK VINA RESULT:      -7.5      7.783     10.146
REMARK  Name = 
REMARK  8 active torsions:
REMARK  status: ('A' for Active; 'I' for Inactive)
REMARK    1  A    between atoms: C_1  and  C_2
REMARK    2  A    between atoms: C_2  and  O_3
REMARK    3  A    between atoms: O_3  and  C_4
REMARK    4  A    between atoms: C_9  and  O_10
REMARK    5  A    between atoms: O_10  and  C_11
REMARK    6  A    between atoms: C_11  and  C_12
REMARK    7  A    between atoms: C_12  and  N_13
REMARK    8  A    between atoms: N_13  and  C_14
REMARK                            x       y       z     vdW  Elec       q    Type
REMARK                         _______ _______ _______ _____ _____    ______ ____
ROOT
ATOM      1  C   UNL     1       3.059   4.895  19.673  0.00  0.00    +0.000 A 
ATOM      2  C   UNL     1       2.455   5.812  20.445  0.00  0.00    +0.000 A 
ATOM      3  C   UNL     1       2.041   7.098  19.937  0.00  0.00    +0.000 A 
ATOM      4  C   UNL     1       1.371   8.017  20.747  0.00  0.00    +0.000 A 
ATOM      5  C   UNL     1       0.994   9.254  20.225  0.00  0.00    +0.000 A 
ATOM      6  C   UNL     1       1.275   9.573  18.893  0.00  0.00    +0.000 A 
ATOM      7  C   UNL     1       1.968   8.660  18.091  0.00  0.00    +0.000 A 
ATOM      8  C   UNL     1       2.326   7.426  18.622  0.00  0.00    +0.000 A 
ATOM      9  O   UNL     1       2.970   6.494  17.785  0.00  0.00    +0.000 OA
ATOM     10  C   UNL     1       3.313   5.211  18.225  0.00  0.00    +0.000 A 
ATOM     11  O   UNL     1       3.806   4.393  17.451  0.00  0.00    +0.000 OA
ENDROOT
BRANCH   1  12
ATOM     12  O   UNL     1       3.478   3.646  20.127  0.00  0.00    +0.000 OA
BRANCH  12  14
ATOM     13  C   UNL     1       1.514   2.657  21.134  0.00  0.00    +0.000 C 
ATOM     14  C   UNL     1       2.523   2.591  20.010  0.00  0.00    +0.000 C 
ENDBRANCH  12  14
ENDBRANCH   1  12
BRANCH   6  15
ATOM     15  O   UNL     1       0.826  10.799  18.479  0.00  0.00    +0.000 OA
BRANCH  15  16
ATOM     16  C   UNL     1      -0.401  11.230  19.076  0.00  0.00    +0.000 C 
BRANCH  16  17
ATOM     17  C   UNL     1      -1.202  12.080  18.079  0.00  0.00    +0.000 C 
BRANCH  17  18
ATOM     18  N   UNL     1      -2.408  11.404  17.588  0.00  0.00    +0.000 N 
ATOM     19  C   UNL     1      -2.268  10.231  16.744  0.00  0.00    +0.000 C 
ATOM     20  C   UNL     1      -3.560  11.561  18.284  0.00  0.00    +0.000 A 
ATOM     21  N   UNL     1      -3.794  12.344  19.317  0.00  0.00    +0.000 NA
ATOM     22  C   UNL     1      -5.063  12.006  19.707  0.00  0.00    +0.000 A 
ATOM     23  C   UNL     1      -5.850  12.449  20.777  0.00  0.00    +0.000 A 
ATOM     24  C   UNL     1      -7.128  11.891  20.930  0.00  0.00    +0.000 A 
ATOM     25  C   UNL     1      -7.608  10.921  20.039  0.00  0.00    +0.000 A 
ATOM     26  C   UNL     1      -6.833  10.471  18.963  0.00  0.00    +0.000 A 
ATOM     27  C   UNL     1      -5.573  11.044  18.855  0.00  0.00    +0.000 A 
ATOM     28  O   UNL     1      -4.616  10.762  17.929  0.00  0.00    +0.000 OA
ENDBRANCH  17  18
ENDBRANCH  16  17
ENDBRANCH  15  16
ENDBRANCH   6  15
TORSDOF 6
ENDMDL
MODEL 9
REMARK VINA RESULT:      -7.5      0.963      1.675
REMARK  Name = 
REMARK  8 active torsions:
REMARK  status: ('A' for Active; 'I' for Inactive)
REMARK    1  A    between atoms: C_1  and  C_2
REMARK    2  A    between atoms: C_2  and  O_3
REMARK    3  A    between atoms: O_3  and  C_4
REMARK    4  A    between atoms: C_9  and  O_10
REMARK    5  A    between atoms: O_10  and  C_11
REMARK    6  A    between atoms: C_11  and  C_12
REMARK    7  A    between atoms: C_12  and  N_13
REMARK    8  A    between atoms: N_13  and  C_14
REMARK                            x       y       z     vdW  Elec       q    Type
REMARK                         _______ _______ _______ _____ _____    ______ ____
ROOT
ATOM      1  C   UNL     1       3.552   3.834  18.790  0.00  0.00    +0.000 A 
ATOM      2  C   UNL     1       4.832   3.979  19.168  0.00  0.00    +0.000 A 
ATOM      3  C   UNL     1       5.670   5.043  18.668  0.00  0.00    +0.000 A 
ATOM      4  C   UNL     1       6.983   5.203  19.113  0.00  0.00    +0.000 A 
ATOM      5  C   UNL     1       7.767   6.237  18.601  0.00  0.00    +0.000 A 
ATOM      6  C   UNL     1       7.238   7.120  17.653  0.00  0.00    +0.000 A 
ATOM      7  C   UNL     1       5.930   6.943  17.192  0.00  0.00    +0.000 A 
ATOM      8  C   UNL     1       5.157   5.914  17.720  0.00  0.00    +0.000 A 
ATOM      9  O   UNL     1       3.822   5.785  17.290  0.00  0.00    +0.000 OA
ATOM     10  C   UNL     1       2.962   4.814  17.813  0.00  0.00    +0.000 A 
ATOM     11  O   UNL     1       1.782   4.772  17.474  0.00  0.00    +0.000 OA
ENDROOT
BRANCH   1  12
ATOM     12  O   UNL     1       2.714   2.818  19.245  0.00  0.00    +0.000 OA
BRANCH  12  14
ATOM     13  C   UNL     1       2.115   3.612  21.449  0.00  0.00    +0.000 C 
ATOM     14  C   UNL     1       1.626   3.234  20.070  0.00  0.00    +0.000 C 
ENDBRANCH  12  14
ENDBRANCH   1  12
BRANCH   6  15
ATOM     15  O   UNL     1       8.085   8.118  17.249  0.00  0.00    +0.000 OA
BRANCH  15  16
ATOM     16  C   UNL     1       7.915   9.368  17.924  0.00  0.00    +0.000 C 
BRANCH  16  17
ATOM     17  C   UNL     1       9.047   9.574  18.943  0.00  0.00    +0.000 C 
BRANCH  17  18
ATOM     18  N   UNL     1       9.554  10.950  18.966  0.00  0.00    +0.000 N 
ATOM     19  C   UNL     1       9.671  11.683  17.719  0.00  0.00    +0.000 C 
ATOM     20  C   UNL     1       9.443  11.655  20.118  0.00  0.00    +0.000 A 
ATOM     21  N   UNL     1       9.027  11.241  21.297  0.00  0.00    +0.000 NA
ATOM     22  C   UNL     1       8.983  12.383  22.052  0.00  0.00    +0.000 A 
ATOM     23  C   UNL     1       8.569  12.603  23.371  0.00  0.00    +0.000 A 
ATOM     24  C   UNL     1       8.624  13.913  23.869  0.00  0.00    +0.000 A 
ATOM     25  C   UNL     1       9.082  14.973  23.074  0.00  0.00    +0.000 A 
ATOM     26  C   UNL     1       9.501  14.767  21.754  0.00  0.00    +0.000 A 
ATOM     27  C   UNL     1       9.422  13.457  21.301  0.00  0.00    +0.000 A 
ATOM     28  O   UNL     1       9.733  12.994  20.059  0.00  0.00    +0.000 OA
ENDBRANCH  17  18
ENDBRANCH  16  17
ENDBRANCH  15  16
ENDBRANCH   6  15
TORSDOF 6
ENDMDL
