MODEL 1
REMARK VINA RESULT:      -7.5      0.000      0.000
REMARK  Name = 
REMARK  8 active torsions:
REMARK  status: ('A' for Active; 'I' for Inactive)
REMARK    1  A    between atoms: C_1  and  O_2
REMARK    2  A    between atoms: O_2  and  C_3
REMARK    3  A    between atoms: C_3  and  C_4
REMARK    4  A    between atoms: C_7  and  C_8
REMARK    5  A    between atoms: N_19  and  C_20
REMARK    6  A    between atoms: C_23  and  O_24
REMARK    7  A    between atoms: O_24  and  C_25
REMARK    8  A    between atoms: N_30  and  C_31
REMARK                            x       y       z     vdW  Elec       q    Type
REMARK                         _______ _______ _______ _____ _____    ______ ____
ROOT
ATOM      1  C   UNL     1      -0.733  10.426  18.572  0.00  0.00    +0.000 A 
ATOM      2  C   UNL     1       0.269   9.495  17.965  0.00  0.00    +0.000 A 
ATOM      3  C   UNL     1       1.565   8.878  18.625  0.00  0.00    +0.000 A 
ATOM      4  C   UNL     1       1.553   9.336  19.964  0.00  0.00    +0.000 A 
ATOM      5  C   UNL     1       0.794  10.347  20.488  0.00  0.00    +0.000 A 
ATOM      6  C   UNL     1      -0.367  10.843  19.861  0.00  0.00    +0.000 A 
ATOM      7  F   UNL     1      -1.179  11.563  20.626  0.00  0.00    +0.000 F 
ATOM      8  N   UNL     1       1.777   8.477  20.920  0.00  0.00    +0.000 NA
ATOM      9  C   UNL     1       1.556   7.207  20.548  0.00  0.00    +0.000 A 
ATOM     10  C   UNL     1       1.590   6.746  19.202  0.00  0.00    +0.000 A 
ATOM     11  C   UNL     1       2.298   7.565  18.342  0.00  0.00    +0.000 A 
ATOM     12  N   UNL     1       3.814   6.823  18.683  0.00  0.00    +0.000 N 
ATOM     13  C   UNL     1       3.342   5.581  19.453  0.00  0.00    +0.000 A 
ATOM     14  O   UNL     1       3.997   4.785  20.108  0.00  0.00    +0.000 OA
ATOM     15  N   UNL     1       1.989   5.418  19.092  0.00  0.00    +0.000 N 
ATOM     16  C   UNL     1       1.807   4.884  17.730  0.00  0.00    +0.000 C 
ENDROOT
BRANCH   1  20
ATOM     17  C   UNL     1      -4.879  11.726  17.434  0.00  0.00    +0.000 A 
ATOM     18  C   UNL     1      -4.116  10.987  16.531  0.00  0.00    +0.000 A 
ATOM     19  C   UNL     1      -2.773  10.577  16.854  0.00  0.00    +0.000 A 
ATOM     20  C   UNL     1      -2.153  10.898  18.074  0.00  0.00    +0.000 A 
ATOM     21  C   UNL     1      -3.048  11.636  18.897  0.00  0.00    +0.000 A 
ATOM     22  N   UNL     1      -4.341  12.052  18.625  0.00  0.00    +0.000 NA
BRANCH  17  23
ATOM     23  C   UNL     1      -6.283  12.248  17.113  0.00  0.00    +0.000 C 
BRANCH  23  25
ATOM     24  C   UNL     1      -7.371  14.211  17.917  0.00  0.00    +0.000 C 
ATOM     25  O   UNL     1      -6.405  13.675  17.019  0.00  0.00    +0.000 OA
ENDBRANCH  23  25
ENDBRANCH  17  23
ENDBRANCH   1  20
BRANCH  12  26
ATOM     26  C   UNL     1       5.054   6.068  17.974  0.00  0.00    +0.000 C 
ATOM     27  C   UNL     1       6.224   5.151  18.471  0.00  0.00    +0.000 C 
ATOM     28  C   UNL     1       7.383   4.978  17.349  0.00  0.00    +0.000 C 
ATOM     29  C   UNL     1       6.918   4.435  15.983  0.00  0.00    +0.000 C 
ATOM     30  C   UNL     1       5.756   5.309  15.510  0.00  0.00    +0.000 C 
ATOM     31  C   UNL     1       4.622   5.504  16.548  0.00  0.00    +0.000 C 
BRANCH  29  32
ATOM     32  O   UNL     1       7.911   4.526  14.934  0.00  0.00    +0.000 OA
ATOM     33  C   UNL     1       7.525   5.103  13.693  0.00  0.00    +0.000 C 
ENDBRANCH  29  32
ENDBRANCH  12  26
TORSDOF 5
ENDMDL
MODEL 2
REMARK VINA RESULT:      -7.5      0.860      1.087
REMARK  Name = 
REMARK  8 active torsions:
REMARK  status: ('A' for Active; 'I' for Inactive)
REMARK    1  A    between atoms: C_1  and  O_2
REMARK    2  A    between atoms: O_2  and  C_3
REMARK    3  A    between atoms: C_3  and  C_4
REMARK    4  A    between atoms: C_7  and  C_8
REMARK    5  A    between atoms: N_19  and  C_20
REMARK    6  A    between atoms: C_23  and  O_24
REMARK    7  A    between atoms: O_24  and  C_25
REMARK    8  A    between atoms: N_30  and  C_31
REMARK                            x       y       z     vdW  Elec       q    Type
REMARK                         _______ _______ _______ _____ _____    ______ ____
ROOT
ATOM      1  C   UNL     1      -0.615  10.134  19.229  0.00  0.00    +0.000 A 
ATOM      2  C   UNL     1       0.371   9.280  18.496  0.00  0.00    +0.000 A 
ATOM      3  C   UNL     1       1.654   8.551  19.061  0.00  0.00    +0.000 A 
ATOM      4  C   UNL     1       1.646   8.814  20.451  0.00  0.00    +0.000 A 
ATOM      5  C   UNL     1       0.906   9.755  21.114  0.00  0.00    +0.000 A 
ATOM      6  C   UNL     1      -0.244  10.357  20.564  0.00  0.00    +0.000 A 
ATOM      7  F   UNL     1      -1.044  10.977  21.423  0.00  0.00    +0.000 F 
ATOM      8  N   UNL     1       1.852   7.824  21.275  0.00  0.00    +0.000 NA
ATOM      9  C   UNL     1       1.608   6.625  20.727  0.00  0.00    +0.000 A 
ATOM     10  C   UNL     1       1.636   6.359  19.330  0.00  0.00    +0.000 A 
ATOM     11  C   UNL     1       2.362   7.277  18.594  0.00  0.00    +0.000 A 
ATOM     12  N   UNL     1       3.862   6.465  18.826  0.00  0.00    +0.000 N 
ATOM     13  C   UNL     1       3.365   5.136  19.412  0.00  0.00    +0.000 A 
ATOM     14  O   UNL     1       4.002   4.243  19.947  0.00  0.00    +0.000 OA
ATOM     15  N   UNL     1       2.010   5.052  19.032  0.00  0.00    +0.000 N 
ATOM     16  C   UNL     1       1.821   4.720  17.608  0.00  0.00    +0.000 C 
ENDROOT
BRANCH   1  20
ATOM     17  C   UNL     1      -4.559  11.673  17.729  0.00  0.00    +0.000 A 
ATOM     18  C   UNL     1      -3.901  12.349  18.756  0.00  0.00    +0.000 A 
ATOM     19  C   UNL     1      -2.647  11.867  19.279  0.00  0.00    +0.000 A 
ATOM     20  C   UNL     1      -2.024  10.700  18.803  0.00  0.00    +0.000 A 
ATOM     21  C   UNL     1      -2.794  10.128  17.753  0.00  0.00    +0.000 A 
ATOM     22  N   UNL     1      -4.002  10.556  17.225  0.00  0.00    +0.000 NA
BRANCH  17  23
ATOM     23  C   UNL     1      -5.927  12.101  17.188  0.00  0.00    +0.000 C 
BRANCH  23  25
ATOM     24  C   UNL     1      -7.524  12.615  18.881  0.00  0.00    +0.000 C 
ATOM     25  O   UNL     1      -7.060  11.649  17.944  0.00  0.00    +0.000 OA
ENDBRANCH  23  25
ENDBRANCH  17  23
ENDBRANCH   1  20
BRANCH  12  26
ATOM     26  C   UNL     1       5.090   5.795  18.016  0.00  0.00    +0.000 C 
ATOM     27  C   UNL     1       6.208   4.752  18.363  0.00  0.00    +0.000 C 
ATOM     28  C   UNL     1       7.389   4.732  17.251  0.00  0.00    +0.000 C 
ATOM     29  C   UNL     1       6.939   4.463  15.800  0.00  0.00    +0.000 C 
ATOM     30  C   UNL     1       5.826   5.458  15.470  0.00  0.00    +0.000 C 
ATOM     31  C   UNL     1       4.673   5.515  16.504  0.00  0.00    +0.000 C 
BRANCH  29  32
ATOM     32  O   UNL     1       7.962   4.696  14.804  0.00  0.00    +0.000 OA
ATOM     33  C   UNL     1       7.551   4.990  13.475  0.00  0.00    +0.000 C 
ENDBRANCH  29  32
ENDBRANCH  12  26
TORSDOF 5
ENDMDL
MODEL 3
REMARK VINA RESULT:      -7.1      6.596      8.382
REMARK  Name = 
REMARK  8 active torsions:
REMARK  status: ('A' for Active; 'I' for Inactive)
REMARK    1  A    between atoms: C_1  and  O_2
REMARK    2  A    between atoms: O_2  and  C_3
REMARK    3  A    between atoms: C_3  and  C_4
REMARK    4  A    between atoms: C_7  and  C_8
REMARK    5  A    between atoms: N_19  and  C_20
REMARK    6  A    between atoms: C_23  and  O_24
REMARK    7  A    between atoms: O_24  and  C_25
REMARK    8  A    between atoms: N_30  and  C_31
REMARK                            x       y       z     vdW  Elec       q    Type
REMARK                         _______ _______ _______ _____ _____    ______ ____
ROOT
ATOM      1  C   UNL     1      -0.932  12.706  21.826  0.00  0.00    +0.000 A 
ATOM      2  C   UNL     1       0.154  13.728  21.713  0.00  0.00    +0.000 A 
ATOM      3  C   UNL     1       1.543  13.611  20.968  0.00  0.00    +0.000 A 
ATOM      4  C   UNL     1       1.526  12.337  20.352  0.00  0.00    +0.000 A 
ATOM      5  C   UNL     1       0.667  11.303  20.609  0.00  0.00    +0.000 A 
ATOM      6  C   UNL     1      -0.571  11.473  21.261  0.00  0.00    +0.000 A 
ATOM      7  F   UNL     1      -1.436  10.473  21.138  0.00  0.00    +0.000 F 
ATOM      8  N   UNL     1       1.894  12.241  19.105  0.00  0.00    +0.000 NA
ATOM      9  C   UNL     1       1.820  13.406  18.445  0.00  0.00    +0.000 A 
ATOM     10  C   UNL     1       1.858  14.686  19.066  0.00  0.00    +0.000 A 
ATOM     11  C   UNL     1       2.423  14.685  20.328  0.00  0.00    +0.000 A 
ATOM     12  N   UNL     1       4.032  14.869  19.744  0.00  0.00    +0.000 N 
ATOM     13  C   UNL     1       3.752  15.216  18.275  0.00  0.00    +0.000 A 
ATOM     14  O   UNL     1       4.526  15.265  17.332  0.00  0.00    +0.000 OA
ATOM     15  N   UNL     1       2.417  15.668  18.254  0.00  0.00    +0.000 N 
ATOM     16  C   UNL     1       2.249  17.024  18.809  0.00  0.00    +0.000 C 
ENDROOT
BRANCH   1  20
ATOM     17  C   UNL     1      -5.136  12.741  23.409  0.00  0.00    +0.000 A 
ATOM     18  C   UNL     1      -4.858  13.334  22.178  0.00  0.00    +0.000 A 
ATOM     19  C   UNL     1      -3.516  13.364  21.654  0.00  0.00    +0.000 A 
ATOM     20  C   UNL     1      -2.419  12.816  22.342  0.00  0.00    +0.000 A 
ATOM     21  C   UNL     1      -2.851  12.235  23.566  0.00  0.00    +0.000 A 
ATOM     22  N   UNL     1      -4.126  12.188  24.106  0.00  0.00    +0.000 NA
BRANCH  17  23
ATOM     23  C   UNL     1      -6.530  12.746  24.044  0.00  0.00    +0.000 C 
BRANCH  23  25
ATOM     24  C   UNL     1      -7.907  11.524  22.530  0.00  0.00    +0.000 C 
ATOM     25  O   UNL     1      -7.314  11.564  23.823  0.00  0.00    +0.000 OA
ENDBRANCH  23  25
ENDBRANCH  17  23
ENDBRANCH   1  20
BRANCH  12  26
ATOM     26  C   UNL     1       5.329  15.828  19.855  0.00  0.00    +0.000 C 
ATOM     27  C   UNL     1       5.596  17.271  20.406  0.00  0.00    +0.000 C 
ATOM     28  C   UNL     1       7.030  17.854  19.921  0.00  0.00    +0.000 C 
ATOM     29  C   UNL     1       8.258  16.990  20.272  0.00  0.00    +0.000 C 
ATOM     30  C   UNL     1       7.987  15.573  19.763  0.00  0.00    +0.000 C 
ATOM     31  C   UNL     1       6.627  14.972  20.200  0.00  0.00    +0.000 C 
BRANCH  29  32
ATOM     32  O   UNL     1       9.483  17.398  19.618  0.00  0.00    +0.000 OA
ATOM     33  C   UNL     1       9.434  17.697  18.228  0.00  0.00    +0.000 C 
ENDBRANCH  29  32
ENDBRANCH  12  26
TORSDOF 5
ENDMDL
MODEL 4
REMARK VINA RESULT:      -7.1      5.928     11.578
REMARK  Name = 
REMARK  8 active torsions:
REMARK  status: ('A' for Active; 'I' for Inactive)
REMARK    1  A    between atoms: C_1  and  O_2
REMARK    2  A    between atoms: O_2  and  C_3
REMARK    3  A    between atoms: C_3  and  C_4
REMARK    4  A    between atoms: C_7  and  C_8
REMARK    5  A    between atoms: N_19  and  C_20
REMARK    6  A    between atoms: C_23  and  O_24
REMARK    7  A    between atoms: O_24  and  C_25
REMARK    8  A    between atoms: N_30  and  C_31
REMARK                            x       y       z     vdW  Elec       q    Type
REMARK                         _______ _______ _______ _____ _____    ______ ____
ROOT
ATOM      1  C   UNL     1       3.718  15.314  19.341  0.00  0.00    +0.000 A 
ATOM      2  C   UNL     1       2.735  14.635  20.242  0.00  0.00    +0.000 A 
ATOM      3  C   UNL     1       1.158  14.738  20.234  0.00  0.00    +0.000 A 
ATOM      4  C   UNL     1       0.847  15.568  19.131  0.00  0.00    +0.000 A 
ATOM      5  C   UNL     1       1.704  16.374  18.432  0.00  0.00    +0.000 A 
ATOM      6  C   UNL     1       3.105  16.219  18.462  0.00  0.00    +0.000 A 
ATOM      7  F   UNL     1       3.779  16.827  17.493  0.00  0.00    +0.000 F 
ATOM      8  N   UNL     1      -0.094  15.191  18.311  0.00  0.00    +0.000 NA
ATOM      9  C   UNL     1      -0.341  13.874  18.365  0.00  0.00    +0.000 A 
ATOM     10  C   UNL     1      -0.046  13.046  19.484  0.00  0.00    +0.000 A 
ATOM     11  C   UNL     1       0.092  13.734  20.675  0.00  0.00    +0.000 A 
ATOM     12  N   UNL     1      -1.592  13.699  21.034  0.00  0.00    +0.000 N 
ATOM     13  C   UNL     1      -2.074  12.688  19.985  0.00  0.00    +0.000 A 
ATOM     14  O   UNL     1      -3.214  12.415  19.643  0.00  0.00    +0.000 OA
ATOM     15  N   UNL     1      -0.920  11.970  19.610  0.00  0.00    +0.000 N 
ATOM     16  C   UNL     1      -0.478  10.999  20.628  0.00  0.00    +0.000 C 
ENDROOT
BRANCH   1  20
ATOM     17  C   UNL     1       8.057  14.435  18.581  0.00  0.00    +0.000 A 
ATOM     18  C   UNL     1       7.662  14.939  19.820  0.00  0.00    +0.000 A 
ATOM     19  C   UNL     1       6.282  15.257  20.088  0.00  0.00    +0.000 A 
ATOM     20  C   UNL     1       5.265  15.092  19.131  0.00  0.00    +0.000 A 
ATOM     21  C   UNL     1       5.807  14.559  17.929  0.00  0.00    +0.000 A 
ATOM     22  N   UNL     1       7.123  14.244  17.630  0.00  0.00    +0.000 NA
BRANCH  17  23
ATOM     23  C   UNL     1       9.518  14.150  18.221  0.00  0.00    +0.000 C 
BRANCH  23  25
ATOM     24  C   UNL     1       9.803  11.792  18.017  0.00  0.00    +0.000 C 
ATOM     25  O   UNL     1      10.073  12.955  18.791  0.00  0.00    +0.000 OA
ENDBRANCH  23  25
ENDBRANCH  17  23
ENDBRANCH   1  20
BRANCH  12  26
ATOM     26  C   UNL     1      -2.647  13.223  22.163  0.00  0.00    +0.000 C 
ATOM     27  C   UNL     1      -2.532  12.687  23.631  0.00  0.00    +0.000 C 
ATOM     28  C   UNL     1      -3.921  12.029  24.151  0.00  0.00    +0.000 C 
ATOM     29  C   UNL     1      -5.161  12.943  24.088  0.00  0.00    +0.000 C 
ATOM     30  C   UNL     1      -5.258  13.492  22.664  0.00  0.00    +0.000 C 
ATOM     31  C   UNL     1      -3.954  14.133  22.122  0.00  0.00    +0.000 C 
BRANCH  29  32
ATOM     32  O   UNL     1      -6.417  12.262  24.316  0.00  0.00    +0.000 OA
ATOM     33  C   UNL     1      -7.607  12.865  23.820  0.00  0.00    +0.000 C 
ENDBRANCH  29  32
ENDBRANCH  12  26
TORSDOF 5
ENDMDL
MODEL 5
REMARK VINA RESULT:      -7.1      2.946     10.561
REMARK  Name = 
REMARK  8 active torsions:
REMARK  status: ('A' for Active; 'I' for Inactive)
REMARK    1  A    between atoms: C_1  and  O_2
REMARK    2  A    between atoms: O_2  and  C_3
REMARK    3  A    between atoms: C_3  and  C_4
REMARK    4  A    between atoms: C_7  and  C_8
REMARK    5  A    between atoms: N_19  and  C_20
REMARK    6  A    between atoms: C_23  and  O_24
REMARK    7  A    between atoms: O_24  and  C_25
REMARK    8  A    between atoms: N_30  and  C_31
REMARK                            x       y       z     vdW  Elec       q    Type
REMARK                         _______ _______ _______ _____ _____    ______ ____
ROOT
ATOM      1  C   UNL     1       2.082   7.419  18.914  0.00  0.00    +0.000 A 
ATOM      2  C   UNL     1       1.245   8.656  18.818  0.00  0.00    +0.000 A 
ATOM      3  C   UNL     1       0.369   9.342  19.939  0.00  0.00    +0.000 A 
ATOM      4  C   UNL     1       0.594   8.573  21.106  0.00  0.00    +0.000 A 
ATOM      5  C   UNL     1       1.161   7.330  21.184  0.00  0.00    +0.000 A 
ATOM      6  C   UNL     1       1.953   6.779  20.155  0.00  0.00    +0.000 A 
ATOM      7  F   UNL     1       2.708   5.741  20.495  0.00  0.00    +0.000 F 
ATOM      8  N   UNL     1       0.853   9.193  22.223  0.00  0.00    +0.000 NA
ATOM      9  C   UNL     1       1.304  10.443  22.037  0.00  0.00    +0.000 A 
ATOM     10  C   UNL     1       1.059  11.221  20.871  0.00  0.00    +0.000 A 
ATOM     11  C   UNL     1      -0.034  10.804  20.134  0.00  0.00    +0.000 A 
ATOM     12  N   UNL     1      -1.161  11.732  21.046  0.00  0.00    +0.000 N 
ATOM     13  C   UNL     1      -0.198  12.620  21.847  0.00  0.00    +0.000 A 
ATOM     14  O   UNL     1      -0.431  13.345  22.802  0.00  0.00    +0.000 OA
ATOM     15  N   UNL     1       1.014  12.587  21.129  0.00  0.00    +0.000 N 
ATOM     16  C   UNL     1       0.986  13.395  19.895  0.00  0.00    +0.000 C 
ENDROOT
BRANCH   1  20
ATOM     17  C   UNL     1       5.157   5.437  16.308  0.00  0.00    +0.000 A 
ATOM     18  C   UNL     1       5.156   6.825  16.439  0.00  0.00    +0.000 A 
ATOM     19  C   UNL     1       4.166   7.495  17.245  0.00  0.00    +0.000 A 
ATOM     20  C   UNL     1       3.152   6.805  17.931  0.00  0.00    +0.000 A 
ATOM     21  C   UNL     1       3.286   5.405  17.722  0.00  0.00    +0.000 A 
ATOM     22  N   UNL     1       4.216   4.723  16.955  0.00  0.00    +0.000 NA
BRANCH  17  23
ATOM     23  C   UNL     1       6.140   4.683  15.408  0.00  0.00    +0.000 C 
BRANCH  23  25
ATOM     24  C   UNL     1       7.633   4.535  17.260  0.00  0.00    +0.000 C 
ATOM     25  O   UNL     1       7.506   4.678  15.850  0.00  0.00    +0.000 OA
ENDBRANCH  23  25
ENDBRANCH  17  23
ENDBRANCH   1  20
BRANCH  12  26
ATOM     26  C   UNL     1      -2.292  12.877  20.895  0.00  0.00    +0.000 C 
ATOM     27  C   UNL     1      -2.276  14.421  20.621  0.00  0.00    +0.000 C 
ATOM     28  C   UNL     1      -3.711  15.110  20.934  0.00  0.00    +0.000 C 
ATOM     29  C   UNL     1      -4.918  14.519  20.178  0.00  0.00    +0.000 C 
ATOM     30  C   UNL     1      -4.918  13.009  20.417  0.00  0.00    +0.000 C 
ATOM     31  C   UNL     1      -3.567  12.303  20.132  0.00  0.00    +0.000 C 
BRANCH  29  32
ATOM     32  O   UNL     1      -6.205  14.977  20.656  0.00  0.00    +0.000 OA
ATOM     33  C   UNL     1      -6.611  14.591  21.963  0.00  0.00    +0.000 C 
ENDBRANCH  29  32
ENDBRANCH  12  26
TORSDOF 5
ENDMDL
MODEL 6
REMARK VINA RESULT:      -7.0      4.366     10.650
REMARK  Name = 
REMARK  8 active torsions:
REMARK  status: ('A' for Active; 'I' for Inactive)
REMARK    1  A    between atoms: C_1  and  O_2
REMARK    2  A    between atoms: O_2  and  C_3
REMARK    3  A    between atoms: C_3  and  C_4
REMARK    4  A    between atoms: C_7  and  C_8
REMARK    5  A    between atoms: N_19  and  C_20
REMARK    6  A    between atoms: C_23  and  O_24
REMARK    7  A    between atoms: O_24  and  C_25
REMARK    8  A    between atoms: N_30  and  C_31
REMARK                            x       y       z     vdW  Elec       q    Type
REMARK                         _______ _______ _______ _____ _____    ______ ____
ROOT
ATOM      1  C   UNL     1       2.054   8.034  19.703  0.00  0.00    +0.000 A 
ATOM      2  C   UNL     1       1.670   9.062  20.719  0.00  0.00    +0.000 A 
ATOM      3  C   UNL     1       1.081  10.510  20.482  0.00  0.00    +0.000 A 
ATOM      4  C   UNL     1       0.918  10.617  19.080  0.00  0.00    +0.000 A 
ATOM      5  C   UNL     1       1.453   9.805  18.118  0.00  0.00    +0.000 A 
ATOM      6  C   UNL     1       1.945   8.511  18.388  0.00  0.00    +0.000 A 
ATOM      7  F   UNL     1       2.111   7.720  17.335  0.00  0.00    +0.000 F 
ATOM      8  N   UNL     1      -0.207  11.086  18.617  0.00  0.00    +0.000 NA
ATOM      9  C   UNL     1      -1.217  10.994  19.495  0.00  0.00    +0.000 A 
ATOM     10  C   UNL     1      -1.049  10.907  20.906  0.00  0.00    +0.000 A 
ATOM     11  C   UNL     1       0.171  11.371  21.360  0.00  0.00    +0.000 A 
ATOM     12  N   UNL     1      -0.353  13.007  21.477  0.00  0.00    +0.000 N 
ATOM     13  C   UNL     1      -1.867  12.821  21.305  0.00  0.00    +0.000 A 
ATOM     14  O   UNL     1      -2.730  13.662  21.110  0.00  0.00    +0.000 OA
ATOM     15  N   UNL     1      -2.107  11.467  21.615  0.00  0.00    +0.000 N 
ATOM     16  C   UNL     1      -2.038  11.175  23.058  0.00  0.00    +0.000 C 
ENDROOT
BRANCH   1  20
ATOM     17  C   UNL     1       3.222   3.699  19.847  0.00  0.00    +0.000 A 
ATOM     18  C   UNL     1       2.027   4.111  20.435  0.00  0.00    +0.000 A 
ATOM     19  C   UNL     1       1.635   5.498  20.430  0.00  0.00    +0.000 A 
ATOM     20  C   UNL     1       2.423   6.508  19.852  0.00  0.00    +0.000 A 
ATOM     21  C   UNL     1       3.597   5.944  19.279  0.00  0.00    +0.000 A 
ATOM     22  N   UNL     1       4.012   4.622  19.265  0.00  0.00    +0.000 NA
BRANCH  17  23
ATOM     23  C   UNL     1       3.720   2.251  19.887  0.00  0.00    +0.000 C 
BRANCH  23  25
ATOM     24  C   UNL     1       2.640   2.068  17.769  0.00  0.00    +0.000 C 
ATOM     25  O   UNL     1       3.619   1.528  18.651  0.00  0.00    +0.000 OA
ENDBRANCH  23  25
ENDBRANCH  17  23
ENDBRANCH   1  20
BRANCH  12  26
ATOM     26  C   UNL     1      -0.494  14.231  22.523  0.00  0.00    +0.000 C 
ATOM     27  C   UNL     1      -0.968  14.367  24.011  0.00  0.00    +0.000 C 
ATOM     28  C   UNL     1      -1.232  15.913  24.427  0.00  0.00    +0.000 C 
ATOM     29  C   UNL     1      -0.042  16.873  24.231  0.00  0.00    +0.000 C 
ATOM     30  C   UNL     1       0.442  16.719  22.788  0.00  0.00    +0.000 C 
ATOM     31  C   UNL     1       0.710  15.259  22.342  0.00  0.00    +0.000 C 
BRANCH  29  32
ATOM     32  O   UNL     1      -0.376  18.275  24.369  0.00  0.00    +0.000 OA
ATOM     33  C   UNL     1      -1.421  18.630  25.266  0.00  0.00    +0.000 C 
ENDBRANCH  29  32
ENDBRANCH  12  26
TORSDOF 5
ENDMDL
MODEL 7
REMARK VINA RESULT:      -7.0      2.766     10.322
REMARK  Name = 
REMARK  8 active torsions:
REMARK  status: ('A' for Active; 'I' for Inactive)
REMARK    1  A    between atoms: C_1  and  O_2
REMARK    2  A    between atoms: O_2  and  C_3
REMARK    3  A    between atoms: C_3  and  C_4
REMARK    4  A    between atoms: C_7  and  C_8
REMARK    5  A    between atoms: N_19  and  C_20
REMARK    6  A    between atoms: C_23  and  O_24
REMARK    7  A    between atoms: O_24  and  C_25
REMARK    8  A    between atoms: N_30  and  C_31
REMARK                            x       y       z     vdW  Elec       q    Type
REMARK                         _______ _______ _______ _____ _____    ______ ____
ROOT
ATOM      1  C   UNL     1       2.498   6.956  18.719  0.00  0.00    +0.000 A 
ATOM      2  C   UNL     1       1.587   8.136  18.597  0.00  0.00    +0.000 A 
ATOM      3  C   UNL     1       0.692   8.808  19.712  0.00  0.00    +0.000 A 
ATOM      4  C   UNL     1       0.984   8.096  20.900  0.00  0.00    +0.000 A 
ATOM      5  C   UNL     1       1.627   6.893  21.009  0.00  0.00    +0.000 A 
ATOM      6  C   UNL     1       2.431   6.354  19.984  0.00  0.00    +0.000 A 
ATOM      7  F   UNL     1       3.253   5.375  20.344  0.00  0.00    +0.000 F 
ATOM      8  N   UNL     1       1.226   8.771  21.989  0.00  0.00    +0.000 NA
ATOM      9  C   UNL     1       1.598  10.038  21.751  0.00  0.00    +0.000 A 
ATOM     10  C   UNL     1       1.285  10.758  20.564  0.00  0.00    +0.000 A 
ATOM     11  C   UNL     1       0.206  10.251  19.864  0.00  0.00    +0.000 A 
ATOM     12  N   UNL     1      -0.958  11.142  20.767  0.00  0.00    +0.000 N 
ATOM     13  C   UNL     1      -0.036  12.114  21.516  0.00  0.00    +0.000 A 
ATOM     14  O   UNL     1      -0.294  12.857  22.450  0.00  0.00    +0.000 OA
ATOM     15  N   UNL     1       1.163  12.127  20.775  0.00  0.00    +0.000 N 
ATOM     16  C   UNL     1       1.063  12.887  19.515  0.00  0.00    +0.000 C 
ENDROOT
BRANCH   1  20
ATOM     17  C   UNL     1       5.549   5.535  15.744  0.00  0.00    +0.000 A 
ATOM     18  C   UNL     1       4.719   4.609  16.376  0.00  0.00    +0.000 A 
ATOM     19  C   UNL     1       3.748   5.029  17.355  0.00  0.00    +0.000 A 
ATOM     20  C   UNL     1       3.585   6.372  17.736  0.00  0.00    +0.000 A 
ATOM     21  C   UNL     1       4.480   7.200  17.004  0.00  0.00    +0.000 A 
ATOM     22  N   UNL     1       5.428   6.838  16.060  0.00  0.00    +0.000 NA
BRANCH  17  23
ATOM     23  C   UNL     1       6.645   5.135  14.751  0.00  0.00    +0.000 C 
BRANCH  23  25
ATOM     24  C   UNL     1       6.003   3.706  12.954  0.00  0.00    +0.000 C 
ATOM     25  O   UNL     1       6.570   3.789  14.257  0.00  0.00    +0.000 OA
ENDBRANCH  23  25
ENDBRANCH  17  23
ENDBRANCH   1  20
BRANCH  12  26
ATOM     26  C   UNL     1      -2.158  12.211  20.599  0.00  0.00    +0.000 C 
ATOM     27  C   UNL     1      -2.277  13.771  20.711  0.00  0.00    +0.000 C 
ATOM     28  C   UNL     1      -3.821  14.261  20.791  0.00  0.00    +0.000 C 
ATOM     29  C   UNL     1      -4.729  13.810  19.628  0.00  0.00    +0.000 C 
ATOM     30  C   UNL     1      -4.591  12.293  19.497  0.00  0.00    +0.000 C 
ATOM     31  C   UNL     1      -3.133  11.774  19.417  0.00  0.00    +0.000 C 
BRANCH  29  32
ATOM     32  O   UNL     1      -6.140  14.044  19.847  0.00  0.00    +0.000 OA
ATOM     33  C   UNL     1      -6.891  13.039  20.519  0.00  0.00    +0.000 C 
ENDBRANCH  29  32
ENDBRANCH  12  26
TORSDOF 5
ENDMDL
MODEL 8
REMARK VINA RESULT:      -6.8      7.387      8.626
REMARK  Name = 
REMARK  8 active torsions:
REMARK  status: ('A' for Active; 'I' for Inactive)
REMARK    1  A    between atoms: C_1  and  O_2
REMARK    2  A    between atoms: O_2  and  C_3
REMARK    3  A    between atoms: C_3  and  C_4
REMARK    4  A    between atoms: C_7  and  C_8
REMARK    5  A    between atoms: N_19  and  C_20
REMARK    6  A    between atoms: C_23  and  O_24
REMARK    7  A    between atoms: O_24  and  C_25
REMARK    8  A    between atoms: N_30  and  C_31
REMARK                            x       y       z     vdW  Elec       q    Type
REMARK                         _______ _______ _______ _____ _____    ______ ____
ROOT
ATOM      1  C   UNL     1       0.801  13.556  20.764  0.00  0.00    +0.000 A 
ATOM      2  C   UNL     1       2.263  13.766  21.001  0.00  0.00    +0.000 A 
ATOM      3  C   UNL     1       3.385  14.149  19.956  0.00  0.00    +0.000 A 
ATOM      4  C   UNL     1       2.702  14.329  18.730  0.00  0.00    +0.000 A 
ATOM      5  C   UNL     1       1.427  13.938  18.425  0.00  0.00    +0.000 A 
ATOM      6  C   UNL     1       0.462  13.627  19.404  0.00  0.00    +0.000 A 
ATOM      7  F   UNL     1      -0.800  13.601  18.990  0.00  0.00    +0.000 F 
ATOM      8  N   UNL     1       2.969  15.387  18.015  0.00  0.00    +0.000 NA
ATOM      9  C   UNL     1       3.522  16.378  18.730  0.00  0.00    +0.000 A 
ATOM     10  C   UNL     1       4.226  16.191  19.953  0.00  0.00    +0.000 A 
ATOM     11  C   UNL     1       4.701  14.907  20.141  0.00  0.00    +0.000 A 
ATOM     12  N   UNL     1       6.168  15.191  19.286  0.00  0.00    +0.000 N 
ATOM     13  C   UNL     1       6.117  16.720  19.157  0.00  0.00    +0.000 A 
ATOM     14  O   UNL     1       6.805  17.460  18.471  0.00  0.00    +0.000 OA
ATOM     15  N   UNL     1       5.220  17.142  20.159  0.00  0.00    +0.000 N 
ATOM     16  C   UNL     1       5.789  17.081  21.518  0.00  0.00    +0.000 C 
ENDROOT
BRANCH   1  20
ATOM     17  C   UNL     1      -2.755  12.914  23.431  0.00  0.00    +0.000 A 
ATOM     18  C   UNL     1      -2.225  14.195  23.285  0.00  0.00    +0.000 A 
ATOM     19  C   UNL     1      -1.069  14.432  22.459  0.00  0.00    +0.000 A 
ATOM     20  C   UNL     1      -0.406  13.403  21.767  0.00  0.00    +0.000 A 
ATOM     21  C   UNL     1      -1.062  12.161  21.993  0.00  0.00    +0.000 A 
ATOM     22  N   UNL     1      -2.170  11.891  22.780  0.00  0.00    +0.000 NA
BRANCH  17  23
ATOM     23  C   UNL     1      -3.937  12.597  24.353  0.00  0.00    +0.000 C 
BRANCH  23  25
ATOM     24  C   UNL     1      -6.316  12.631  24.199  0.00  0.00    +0.000 C 
ATOM     25  O   UNL     1      -5.114  13.392  24.145  0.00  0.00    +0.000 OA
ENDBRANCH  23  25
ENDBRANCH  17  23
ENDBRANCH   1  20
BRANCH  12  26
ATOM     26  C   UNL     1       7.775  15.132  19.452  0.00  0.00    +0.000 C 
ATOM     27  C   UNL     1       8.764  15.130  20.669  0.00  0.00    +0.000 C 
ATOM     28  C   UNL     1      10.293  15.420  20.212  0.00  0.00    +0.000 C 
ATOM     29  C   UNL     1      10.868  14.463  19.148  0.00  0.00    +0.000 C 
ATOM     30  C   UNL     1       9.890  14.439  17.972  0.00  0.00    +0.000 C 
ATOM     31  C   UNL     1       8.413  14.165  18.358  0.00  0.00    +0.000 C 
BRANCH  29  32
ATOM     32  O   UNL     1      12.129  14.889  18.580  0.00  0.00    +0.000 OA
ATOM     33  C   UNL     1      12.111  15.532  17.311  0.00  0.00    +0.000 C 
ENDBRANCH  29  32
ENDBRANCH  12  26
TORSDOF 5
ENDMDL
MODEL 9
REMARK VINA RESULT:      -6.8      4.423     10.797
REMARK  Name = 
REMARK  8 active torsions:
REMARK  status: ('A' for Active; 'I' for Inactive)
REMARK    1  A    between atoms: C_1  and  O_2
REMARK    2  A    between atoms: O_2  and  C_3
REMARK    3  A    between atoms: C_3  and  C_4
REMARK    4  A    between atoms: C_7  and  C_8
REMARK    5  A    between atoms: N_19  and  C_20
REMARK    6  A    between atoms: C_23  and  O_24
REMARK    7  A    between atoms: O_24  and  C_25
REMARK    8  A    between atoms: N_30  and  C_31
REMARK                            x       y       z     vdW  Elec       q    Type
REMARK                         _______ _______ _______ _____ _____    ______ ____
ROOT
ATOM      1  C   UNL     1       1.736   8.490  19.800  0.00  0.00    +0.000 A 
ATOM      2  C   UNL     1       1.369   9.585  20.751  0.00  0.00    +0.000 A 
ATOM      3  C   UNL     1       0.800  11.023  20.426  0.00  0.00    +0.000 A 
ATOM      4  C   UNL     1       0.635  11.046  19.020  0.00  0.00    +0.000 A 
ATOM      5  C   UNL     1       1.157  10.168  18.109  0.00  0.00    +0.000 A 
ATOM      6  C   UNL     1       1.631   8.887  18.458  0.00  0.00    +0.000 A 
ATOM      7  F   UNL     1       1.783   8.030  17.456  0.00  0.00    +0.000 F 
ATOM      8  N   UNL     1      -0.484  11.501  18.530  0.00  0.00    +0.000 NA
ATOM      9  C   UNL     1      -1.493  11.478  19.413  0.00  0.00    +0.000 A 
ATOM     10  C   UNL     1      -1.324  11.476  20.827  0.00  0.00    +0.000 A 
ATOM     11  C   UNL     1      -0.096  11.949  21.250  0.00  0.00    +0.000 A 
ATOM     12  N   UNL     1      -0.596  13.597  21.266  0.00  0.00    +0.000 N 
ATOM     13  C   UNL     1      -2.113  13.422  21.108  0.00  0.00    +0.000 A 
ATOM     14  O   UNL     1      -2.965  14.262  20.862  0.00  0.00    +0.000 OA
ATOM     15  N   UNL     1      -2.372  12.094  21.501  0.00  0.00    +0.000 N 
ATOM     16  C   UNL     1      -2.305  11.891  22.959  0.00  0.00    +0.000 C 
ENDROOT
BRANCH   1  20
ATOM     17  C   UNL     1       2.842   4.156  20.210  0.00  0.00    +0.000 A 
ATOM     18  C   UNL     1       1.655   4.621  20.775  0.00  0.00    +0.000 A 
ATOM     19  C   UNL     1       1.283   6.010  20.685  0.00  0.00    +0.000 A 
ATOM     20  C   UNL     1       2.084   6.971  20.043  0.00  0.00    +0.000 A 
ATOM     21  C   UNL     1       3.247   6.355  19.503  0.00  0.00    +0.000 A 
ATOM     22  N   UNL     1       3.642   5.029  19.570  0.00  0.00    +0.000 NA
BRANCH  17  23
ATOM     23  C   UNL     1       3.318   2.706  20.339  0.00  0.00    +0.000 C 
BRANCH  23  25
ATOM     24  C   UNL     1       2.577   2.088  18.159  0.00  0.00    +0.000 C 
ATOM     25  O   UNL     1       3.641   2.049  19.104  0.00  0.00    +0.000 OA
ENDBRANCH  23  25
ENDBRANCH  17  23
ENDBRANCH   1  20
BRANCH  12  26
ATOM     26  C   UNL     1      -0.718  14.885  22.234  0.00  0.00    +0.000 C 
ATOM     27  C   UNL     1      -1.184  16.371  22.049  0.00  0.00    +0.000 C 
ATOM     28  C   UNL     1      -0.745  17.308  23.298  0.00  0.00    +0.000 C 
ATOM     29  C   UNL     1      -1.227  16.841  24.687  0.00  0.00    +0.000 C 
ATOM     30  C   UNL     1      -0.801  15.383  24.858  0.00  0.00    +0.000 C 
ATOM     31  C   UNL     1      -1.197  14.446  23.688  0.00  0.00    +0.000 C 
BRANCH  29  32
ATOM     32  O   UNL     1      -0.620  17.544  25.797  0.00  0.00    +0.000 OA
ATOM     33  C   UNL     1      -0.666  16.936  27.083  0.00  0.00    +0.000 C 
ENDBRANCH  29  32
ENDBRANCH  12  26
TORSDOF 5
ENDMDL
