MODEL 1
REMARK VINA RESULT:      -6.9      0.000      0.000
REMARK  Name = 
REMARK  5 active torsions:
REMARK  status: ('A' for Active; 'I' for Inactive)
REMARK    1  A    between atoms: S_2  and  N_4
REMARK    2  A    between atoms: S_2  and  C_12
REMARK    3  A    between atoms: N_4  and  C_5
REMARK    4  A    between atoms: C_5  and  C_6
REMARK    5  A    between atoms: C_6  and  C_7
REMARK                            x       y       z     vdW  Elec       q    Type
REMARK                         _______ _______ _______ _____ _____    ______ ____
ROOT
ATOM      1  O   UNL     1       4.251   5.735  19.265  0.00  0.00    +0.000 OA
ATOM      2  S   UNL     1       5.468   4.972  19.109  0.00  0.00    +0.000 S 
ATOM      3  O   UNL     1       6.645   5.207  19.911  0.00  0.00    +0.000 OA
ENDROOT
BRANCH   2   4
ATOM      4  C   UNL     1       5.937   5.051  17.394  0.00  0.00    +0.000 A 
ATOM      5  C   UNL     1       4.995   5.487  16.456  0.00  0.00    +0.000 A 
ATOM      6  C   UNL     1       5.293   5.399  15.096  0.00  0.00    +0.000 A 
ATOM      7  C   UNL     1       6.529   4.893  14.688  0.00  0.00    +0.000 A 
ATOM      8 CL   UNL     1       6.877   4.744  13.011  0.00  0.00    +0.000 Cl
ATOM      9  C   UNL     1       7.480   4.489  15.629  0.00  0.00    +0.000 A 
ATOM     10  C   UNL     1       7.186   4.568  16.992  0.00  0.00    +0.000 A 
ENDBRANCH   2   4
BRANCH   2  11
ATOM     11  N   UNL     1       5.054   3.342  19.267  0.00  0.00    +0.000 NA
ATOM     12  H   UNL     1       4.792   3.105  20.224  0.00  0.00    +0.000 HD
BRANCH  11  13
ATOM     13  C   UNL     1       4.365   2.696  18.142  0.00  0.00    +0.000 C 
BRANCH  13  14
ATOM     14  C   UNL     1       3.037   2.078  18.580  0.00  0.00    +0.000 C 
BRANCH  14  15
ATOM     15  C   UNL     1       1.993   3.120  18.880  0.00  0.00    +0.000 C 
ATOM     16  C   UNL     1       0.629   2.697  19.360  0.00  0.00    +0.000 C 
ATOM     17  C   UNL     1       1.543   3.454  20.285  0.00  0.00    +0.000 C 
ATOM     18 CL   UNL     1       2.178   2.598  21.676  0.00  0.00    +0.000 Cl
ATOM     19 CL   UNL     1       1.186   5.146  20.611  0.00  0.00    +0.000 Cl
ENDBRANCH  14  15
ENDBRANCH  13  14
ENDBRANCH  11  13
ENDBRANCH   2  11
TORSDOF 5
ENDMDL
MODEL 2
REMARK VINA RESULT:      -6.8      2.376      6.413
REMARK  Name = 
REMARK  5 active torsions:
REMARK  status: ('A' for Active; 'I' for Inactive)
REMARK    1  A    between atoms: S_2  and  N_4
REMARK    2  A    between atoms: S_2  and  C_12
REMARK    3  A    between atoms: N_4  and  C_5
REMARK    4  A    between atoms: C_5  and  C_6
REMARK    5  A    between atoms: C_6  and  C_7
REMARK                            x       y       z     vdW  Elec       q    Type
REMARK                         _______ _______ _______ _____ _____    ______ ____
ROOT
ATOM      1  O   UNL     1       8.134   4.242  17.628  0.00  0.00    +0.000 OA
ATOM      2  S   UNL     1       7.354   5.455  17.523  0.00  0.00    +0.000 S 
ATOM      3  O   UNL     1       7.714   6.677  18.201  0.00  0.00    +0.000 OA
ENDROOT
BRANCH   2   4
ATOM      4  C   UNL     1       5.674   5.052  17.952  0.00  0.00    +0.000 A 
ATOM      5  C   UNL     1       4.653   5.932  17.582  0.00  0.00    +0.000 A 
ATOM      6  C   UNL     1       3.357   5.713  18.052  0.00  0.00    +0.000 A 
ATOM      7  C   UNL     1       3.094   4.613  18.871  0.00  0.00    +0.000 A 
ATOM      8 CL   UNL     1       1.506   4.370  19.485  0.00  0.00    +0.000 Cl
ATOM      9  C   UNL     1       4.110   3.718  19.213  0.00  0.00    +0.000 A 
ATOM     10  C   UNL     1       5.411   3.935  18.751  0.00  0.00    +0.000 A 
ENDBRANCH   2   4
BRANCH   2  11
ATOM     11  N   UNL     1       7.202   5.804  15.877  0.00  0.00    +0.000 NA
ATOM     12  H   UNL     1       7.670   6.675  15.626  0.00  0.00    +0.000 HD
BRANCH  11  13
ATOM     13  C   UNL     1       7.203   4.679  14.932  0.00  0.00    +0.000 C 
BRANCH  13  14
ATOM     14  C   UNL     1       5.839   4.508  14.265  0.00  0.00    +0.000 C 
BRANCH  14  15
ATOM     15  C   UNL     1       5.824   3.373  13.277  0.00  0.00    +0.000 C 
ATOM     16  C   UNL     1       5.034   3.501  12.001  0.00  0.00    +0.000 C 
ATOM     17  C   UNL     1       6.536   3.434  11.943  0.00  0.00    +0.000 C 
ATOM     18 CL   UNL     1       7.392   4.873  11.429  0.00  0.00    +0.000 Cl
ATOM     19 CL   UNL     1       7.284   1.942  11.386  0.00  0.00    +0.000 Cl
ENDBRANCH  14  15
ENDBRANCH  13  14
ENDBRANCH  11  13
ENDBRANCH   2  11
TORSDOF 5
ENDMDL
MODEL 3
REMARK VINA RESULT:      -6.6      2.009      6.420
REMARK  Name = 
REMARK  5 active torsions:
REMARK  status: ('A' for Active; 'I' for Inactive)
REMARK    1  A    between atoms: S_2  and  N_4
REMARK    2  A    between atoms: S_2  and  C_12
REMARK    3  A    between atoms: N_4  and  C_5
REMARK    4  A    between atoms: C_5  and  C_6
REMARK    5  A    between atoms: C_6  and  C_7
REMARK                            x       y       z     vdW  Elec       q    Type
REMARK                         _______ _______ _______ _____ _____    ______ ____
ROOT
ATOM      1  O   UNL     1       6.596   4.878  19.222  0.00  0.00    +0.000 OA
ATOM      2  S   UNL     1       5.943   5.104  17.952  0.00  0.00    +0.000 S 
ATOM      3  O   UNL     1       5.826   6.414  17.356  0.00  0.00    +0.000 OA
ENDROOT
BRANCH   2   4
ATOM      4  C   UNL     1       4.316   4.388  18.049  0.00  0.00    +0.000 A 
ATOM      5  C   UNL     1       3.380   4.953  18.922  0.00  0.00    +0.000 A 
ATOM      6  C   UNL     1       2.161   4.307  19.129  0.00  0.00    +0.000 A 
ATOM      7  C   UNL     1       1.884   3.116  18.454  0.00  0.00    +0.000 A 
ATOM      8 CL   UNL     1       0.400   2.299  18.744  0.00  0.00    +0.000 Cl
ATOM      9  C   UNL     1       2.808   2.572  17.559  0.00  0.00    +0.000 A 
ATOM     10  C   UNL     1       4.033   3.210  17.351  0.00  0.00    +0.000 A 
ENDBRANCH   2   4
BRANCH   2  11
ATOM     11  N   UNL     1       6.686   4.089  16.825  0.00  0.00    +0.000 NA
ATOM     12  H   UNL     1       6.281   3.153  16.828  0.00  0.00    +0.000 HD
BRANCH  11  13
ATOM     13  C   UNL     1       7.141   4.682  15.561  0.00  0.00    +0.000 C 
BRANCH  13  14
ATOM     14  C   UNL     1       5.994   4.808  14.558  0.00  0.00    +0.000 C 
BRANCH  14  15
ATOM     15  C   UNL     1       5.948   3.652  13.596  0.00  0.00    +0.000 C 
ATOM     16  C   UNL     1       5.074   3.731  12.372  0.00  0.00    +0.000 C 
ATOM     17  C   UNL     1       6.571   3.702  12.218  0.00  0.00    +0.000 C 
ATOM     18 CL   UNL     1       7.352   5.152  11.621  0.00  0.00    +0.000 Cl
ATOM     19 CL   UNL     1       7.322   2.218  11.643  0.00  0.00    +0.000 Cl
ENDBRANCH  14  15
ENDBRANCH  13  14
ENDBRANCH  11  13
ENDBRANCH   2  11
TORSDOF 5
ENDMDL
MODEL 4
REMARK VINA RESULT:      -6.6      2.311      6.612
REMARK  Name = 
REMARK  5 active torsions:
REMARK  status: ('A' for Active; 'I' for Inactive)
REMARK    1  A    between atoms: S_2  and  N_4
REMARK    2  A    between atoms: S_2  and  C_12
REMARK    3  A    between atoms: N_4  and  C_5
REMARK    4  A    between atoms: C_5  and  C_6
REMARK    5  A    between atoms: C_6  and  C_7
REMARK                            x       y       z     vdW  Elec       q    Type
REMARK                         _______ _______ _______ _____ _____    ______ ____
ROOT
ATOM      1  O   UNL     1       7.854   4.471  18.550  0.00  0.00    +0.000 OA
ATOM      2  S   UNL     1       6.844   5.055  17.697  0.00  0.00    +0.000 S 
ATOM      3  O   UNL     1       6.961   6.382  17.143  0.00  0.00    +0.000 OA
ENDROOT
BRANCH   2   4
ATOM      4  C   UNL     1       5.287   4.942  18.553  0.00  0.00    +0.000 A 
ATOM      5  C   UNL     1       4.969   3.757  19.223  0.00  0.00    +0.000 A 
ATOM      6  C   UNL     1       3.690   3.595  19.758  0.00  0.00    +0.000 A 
ATOM      7  C   UNL     1       2.751   4.622  19.631  0.00  0.00    +0.000 A 
ATOM      8 CL   UNL     1       1.163   4.403  20.252  0.00  0.00    +0.000 Cl
ATOM      9  C   UNL     1       3.083   5.817  18.990  0.00  0.00    +0.000 A 
ATOM     10  C   UNL     1       4.359   5.983  18.447  0.00  0.00    +0.000 A 
ENDBRANCH   2   4
BRANCH   2  11
ATOM     11  N   UNL     1       6.598   3.981  16.417  0.00  0.00    +0.000 NA
ATOM     12  H   UNL     1       5.818   3.347  16.594  0.00  0.00    +0.000 HD
BRANCH  11  13
ATOM     13  C   UNL     1       6.844   4.468  15.053  0.00  0.00    +0.000 C 
BRANCH  13  14
ATOM     14  C   UNL     1       5.591   4.358  14.185  0.00  0.00    +0.000 C 
BRANCH  14  15
ATOM     15  C   UNL     1       5.712   3.280  13.142  0.00  0.00    +0.000 C 
ATOM     16  C   UNL     1       5.037   3.451  11.806  0.00  0.00    +0.000 C 
ATOM     17  C   UNL     1       6.540   3.440  11.886  0.00  0.00    +0.000 C 
ATOM     18 CL   UNL     1       7.381   4.936  11.530  0.00  0.00    +0.000 Cl
ATOM     19 CL   UNL     1       7.395   2.009  11.323  0.00  0.00    +0.000 Cl
ENDBRANCH  14  15
ENDBRANCH  13  14
ENDBRANCH  11  13
ENDBRANCH   2  11
TORSDOF 5
ENDMDL
MODEL 5
REMARK VINA RESULT:      -6.5      2.015      2.410
REMARK  Name = 
REMARK  5 active torsions:
REMARK  status: ('A' for Active; 'I' for Inactive)
REMARK    1  A    between atoms: S_2  and  N_4
REMARK    2  A    between atoms: S_2  and  C_12
REMARK    3  A    between atoms: N_4  and  C_5
REMARK    4  A    between atoms: C_5  and  C_6
REMARK    5  A    between atoms: C_6  and  C_7
REMARK                            x       y       z     vdW  Elec       q    Type
REMARK                         _______ _______ _______ _____ _____    ______ ____
ROOT
ATOM      1  O   UNL     1       7.570   7.113  17.276  0.00  0.00    +0.000 OA
ATOM      2  S   UNL     1       6.979   5.810  17.480  0.00  0.00    +0.000 S 
ATOM      3  O   UNL     1       7.624   4.770  18.244  0.00  0.00    +0.000 OA
ENDROOT
BRANCH   2   4
ATOM      4  C   UNL     1       6.565   5.151  15.879  0.00  0.00    +0.000 A 
ATOM      5  C   UNL     1       5.402   4.386  15.743  0.00  0.00    +0.000 A 
ATOM      6  C   UNL     1       5.152   3.730  14.537  0.00  0.00    +0.000 A 
ATOM      7  C   UNL     1       6.054   3.856  13.479  0.00  0.00    +0.000 A 
ATOM      8 CL   UNL     1       5.767   3.011  12.010  0.00  0.00    +0.000 Cl
ATOM      9  C   UNL     1       7.199   4.647  13.607  0.00  0.00    +0.000 A 
ATOM     10  C   UNL     1       7.459   5.301  14.814  0.00  0.00    +0.000 A 
ENDBRANCH   2   4
BRANCH   2  11
ATOM     11  N   UNL     1       5.445   6.062  18.142  0.00  0.00    +0.000 NA
ATOM     12  H   UNL     1       4.768   6.354  17.438  0.00  0.00    +0.000 HD
BRANCH  11  13
ATOM     13  C   UNL     1       5.020   5.188  19.243  0.00  0.00    +0.000 C 
BRANCH  13  14
ATOM     14  C   UNL     1       3.627   4.611  18.993  0.00  0.00    +0.000 C 
BRANCH  14  15
ATOM     15  C   UNL     1       2.867   4.378  20.271  0.00  0.00    +0.000 C 
ATOM     16  C   UNL     1       1.526   5.032  20.476  0.00  0.00    +0.000 C 
ATOM     17  C   UNL     1       1.612   3.536  20.341  0.00  0.00    +0.000 C 
ATOM     18 CL   UNL     1       0.918   2.811  18.905  0.00  0.00    +0.000 Cl
ATOM     19 CL   UNL     1       1.407   2.554  21.786  0.00  0.00    +0.000 Cl
ENDBRANCH  14  15
ENDBRANCH  13  14
ENDBRANCH  11  13
ENDBRANCH   2  11
TORSDOF 5
ENDMDL
MODEL 6
REMARK VINA RESULT:      -6.5      2.810      3.372
REMARK  Name = 
REMARK  5 active torsions:
REMARK  status: ('A' for Active; 'I' for Inactive)
REMARK    1  A    between atoms: S_2  and  N_4
REMARK    2  A    between atoms: S_2  and  C_12
REMARK    3  A    between atoms: N_4  and  C_5
REMARK    4  A    between atoms: C_5  and  C_6
REMARK    5  A    between atoms: C_6  and  C_7
REMARK                            x       y       z     vdW  Elec       q    Type
REMARK                         _______ _______ _______ _____ _____    ______ ____
ROOT
ATOM      1  O   UNL     1       5.544   3.755  19.560  0.00  0.00    +0.000 OA
ATOM      2  S   UNL     1       5.789   4.479  18.333  0.00  0.00    +0.000 S 
ATOM      3  O   UNL     1       7.098   4.953  17.954  0.00  0.00    +0.000 OA
ENDROOT
BRANCH   2   4
ATOM      4  C   UNL     1       4.662   5.856  18.288  0.00  0.00    +0.000 A 
ATOM      5  C   UNL     1       3.684   5.961  19.282  0.00  0.00    +0.000 A 
ATOM      6  C   UNL     1       2.695   6.940  19.168  0.00  0.00    +0.000 A 
ATOM      7  C   UNL     1       2.703   7.808  18.074  0.00  0.00    +0.000 A 
ATOM      8 CL   UNL     1       1.459   8.984  17.913  0.00  0.00    +0.000 Cl
ATOM      9  C   UNL     1       3.701   7.721  17.100  0.00  0.00    +0.000 A 
ATOM     10  C   UNL     1       4.689   6.740  17.205  0.00  0.00    +0.000 A 
ENDBRANCH   2   4
BRANCH   2  11
ATOM     11  N   UNL     1       5.200   3.525  17.070  0.00  0.00    +0.000 NA
ATOM     12  H   UNL     1       5.734   2.662  16.961  0.00  0.00    +0.000 HD
BRANCH  11  13
ATOM     13  C   UNL     1       3.750   3.518  16.832  0.00  0.00    +0.000 C 
BRANCH  13  14
ATOM     14  C   UNL     1       3.042   2.498  17.723  0.00  0.00    +0.000 C 
BRANCH  14  15
ATOM     15  C   UNL     1       1.774   3.045  18.321  0.00  0.00    +0.000 C 
ATOM     16  C   UNL     1       0.771   2.106  18.939  0.00  0.00    +0.000 C 
ATOM     17  C   UNL     1       1.516   3.081  19.811  0.00  0.00    +0.000 C 
ATOM     18 CL   UNL     1       2.670   2.426  20.955  0.00  0.00    +0.000 Cl
ATOM     19 CL   UNL     1       0.649   4.484  20.423  0.00  0.00    +0.000 Cl
ENDBRANCH  14  15
ENDBRANCH  13  14
ENDBRANCH  11  13
ENDBRANCH   2  11
TORSDOF 5
ENDMDL
MODEL 7
REMARK VINA RESULT:      -6.5      2.044      2.537
REMARK  Name = 
REMARK  5 active torsions:
REMARK  status: ('A' for Active; 'I' for Inactive)
REMARK    1  A    between atoms: S_2  and  N_4
REMARK    2  A    between atoms: S_2  and  C_12
REMARK    3  A    between atoms: N_4  and  C_5
REMARK    4  A    between atoms: C_5  and  C_6
REMARK    5  A    between atoms: C_6  and  C_7
REMARK                            x       y       z     vdW  Elec       q    Type
REMARK                         _______ _______ _______ _____ _____    ______ ____
ROOT
ATOM      1  O   UNL     1       7.429   7.325  17.030  0.00  0.00    +0.000 OA
ATOM      2  S   UNL     1       7.042   5.988  17.420  0.00  0.00    +0.000 S 
ATOM      3  O   UNL     1       7.841   5.167  18.298  0.00  0.00    +0.000 OA
ENDROOT
BRANCH   2   4
ATOM      4  C   UNL     1       6.722   5.066  15.931  0.00  0.00    +0.000 A 
ATOM      5  C   UNL     1       7.512   5.310  14.803  0.00  0.00    +0.000 A 
ATOM      6  C   UNL     1       7.169   4.716  13.587  0.00  0.00    +0.000 A 
ATOM      7  C   UNL     1       6.055   3.877  13.515  0.00  0.00    +0.000 A 
ATOM      8 CL   UNL     1       5.610   3.182  12.007  0.00  0.00    +0.000 Cl
ATOM      9  C   UNL     1       5.288   3.610  14.651  0.00  0.00    +0.000 A 
ATOM     10  C   UNL     1       5.620   4.206  15.870  0.00  0.00    +0.000 A 
ENDBRANCH   2   4
BRANCH   2  11
ATOM     11  N   UNL     1       5.492   6.096  18.084  0.00  0.00    +0.000 NA
ATOM     12  H   UNL     1       4.779   6.240  17.368  0.00  0.00    +0.000 HD
BRANCH  11  13
ATOM     13  C   UNL     1       5.188   5.269  19.258  0.00  0.00    +0.000 C 
BRANCH  13  14
ATOM     14  C   UNL     1       3.698   5.308  19.599  0.00  0.00    +0.000 C 
BRANCH  14  15
ATOM     15  C   UNL     1       2.921   4.236  18.883  0.00  0.00    +0.000 C 
ATOM     16  C   UNL     1       3.508   2.857  18.735  0.00  0.00    +0.000 C 
ATOM     17  C   UNL     1       2.292   3.060  19.598  0.00  0.00    +0.000 C 
ATOM     18 CL   UNL     1       2.477   2.834  21.325  0.00  0.00    +0.000 Cl
ATOM     19 CL   UNL     1       0.735   2.513  18.986  0.00  0.00    +0.000 Cl
ENDBRANCH  14  15
ENDBRANCH  13  14
ENDBRANCH  11  13
ENDBRANCH   2  11
TORSDOF 5
ENDMDL
MODEL 8
REMARK VINA RESULT:      -6.3      2.048      6.806
REMARK  Name = 
REMARK  5 active torsions:
REMARK  status: ('A' for Active; 'I' for Inactive)
REMARK    1  A    between atoms: S_2  and  N_4
REMARK    2  A    between atoms: S_2  and  C_12
REMARK    3  A    between atoms: N_4  and  C_5
REMARK    4  A    between atoms: C_5  and  C_6
REMARK    5  A    between atoms: C_6  and  C_7
REMARK                            x       y       z     vdW  Elec       q    Type
REMARK                         _______ _______ _______ _____ _____    ______ ____
ROOT
ATOM      1  O   UNL     1       6.360   6.038  18.164  0.00  0.00    +0.000 OA
ATOM      2  S   UNL     1       4.968   6.016  17.773  0.00  0.00    +0.000 S 
ATOM      3  O   UNL     1       4.219   7.215  17.483  0.00  0.00    +0.000 OA
ENDROOT
BRANCH   2   4
ATOM      4  C   UNL     1       4.079   5.087  19.005  0.00  0.00    +0.000 A 
ATOM      5  C   UNL     1       4.366   3.727  19.163  0.00  0.00    +0.000 A 
ATOM      6  C   UNL     1       3.568   2.953  20.006  0.00  0.00    +0.000 A 
ATOM      7  C   UNL     1       2.504   3.546  20.690  0.00  0.00    +0.000 A 
ATOM      8 CL   UNL     1       1.495   2.581  21.693  0.00  0.00    +0.000 Cl
ATOM      9  C   UNL     1       2.241   4.911  20.555  0.00  0.00    +0.000 A 
ATOM     10  C   UNL     1       3.032   5.691  19.708  0.00  0.00    +0.000 A 
ENDBRANCH   2   4
BRANCH   2  11
ATOM     11  N   UNL     1       4.847   4.995  16.434  0.00  0.00    +0.000 NA
ATOM     12  H   UNL     1       3.944   4.521  16.395  0.00  0.00    +0.000 HD
BRANCH  11  13
ATOM     13  C   UNL     1       5.503   5.413  15.188  0.00  0.00    +0.000 C 
BRANCH  13  14
ATOM     14  C   UNL     1       6.621   4.447  14.795  0.00  0.00    +0.000 C 
BRANCH  14  15
ATOM     15  C   UNL     1       6.179   3.456  13.752  0.00  0.00    +0.000 C 
ATOM     16  C   UNL     1       5.131   3.848  12.743  0.00  0.00    +0.000 C 
ATOM     17  C   UNL     1       6.542   3.584  12.289  0.00  0.00    +0.000 C 
ATOM     18 CL   UNL     1       7.469   4.947  11.693  0.00  0.00    +0.000 Cl
ATOM     19 CL   UNL     1       6.876   2.085  11.430  0.00  0.00    +0.000 Cl
ENDBRANCH  14  15
ENDBRANCH  13  14
ENDBRANCH  11  13
ENDBRANCH   2  11
TORSDOF 5
ENDMDL
MODEL 9
REMARK VINA RESULT:      -6.3      2.191      2.757
REMARK  Name = 
REMARK  5 active torsions:
REMARK  status: ('A' for Active; 'I' for Inactive)
REMARK    1  A    between atoms: S_2  and  N_4
REMARK    2  A    between atoms: S_2  and  C_12
REMARK    3  A    between atoms: N_4  and  C_5
REMARK    4  A    between atoms: C_5  and  C_6
REMARK    5  A    between atoms: C_6  and  C_7
REMARK                            x       y       z     vdW  Elec       q    Type
REMARK                         _______ _______ _______ _____ _____    ______ ____
ROOT
ATOM      1  O   UNL     1       6.887   7.536  17.059  0.00  0.00    +0.000 OA
ATOM      2  S   UNL     1       6.095   6.360  17.339  0.00  0.00    +0.000 S 
ATOM      3  O   UNL     1       6.285   5.553  18.520  0.00  0.00    +0.000 OA
ENDROOT
BRANCH   2   4
ATOM      4  C   UNL     1       6.189   5.296  15.915  0.00  0.00    +0.000 A 
ATOM      5  C   UNL     1       7.266   5.440  15.034  0.00  0.00    +0.000 A 
ATOM      6  C   UNL     1       7.268   4.729  13.834  0.00  0.00    +0.000 A 
ATOM      7  C   UNL     1       6.205   3.874  13.533  0.00  0.00    +0.000 A 
ATOM      8 CL   UNL     1       6.188   3.032  12.034  0.00  0.00    +0.000 Cl
ATOM      9  C   UNL     1       5.147   3.708  14.429  0.00  0.00    +0.000 A 
ATOM     10  C   UNL     1       5.135   4.421  15.630  0.00  0.00    +0.000 A 
ENDBRANCH   2   4
BRANCH   2  11
ATOM     11  N   UNL     1       4.474   6.833  17.294  0.00  0.00    +0.000 NA
ATOM     12  H   UNL     1       4.076   6.745  16.358  0.00  0.00    +0.000 HD
BRANCH  11  13
ATOM     13  C   UNL     1       3.641   6.547  18.469  0.00  0.00    +0.000 C 
BRANCH  13  14
ATOM     14  C   UNL     1       2.247   6.069  18.063  0.00  0.00    +0.000 C 
BRANCH  14  15
ATOM     15  C   UNL     1       2.162   4.569  17.973  0.00  0.00    +0.000 C 
ATOM     16  C   UNL     1       3.116   3.716  18.766  0.00  0.00    +0.000 C 
ATOM     17  C   UNL     1       1.650   3.705  19.104  0.00  0.00    +0.000 C 
ATOM     18 CL   UNL     1       1.167   4.399  20.638  0.00  0.00    +0.000 Cl
ATOM     19 CL   UNL     1       0.698   2.297  18.646  0.00  0.00    +0.000 Cl
ENDBRANCH  14  15
ENDBRANCH  13  14
ENDBRANCH  11  13
ENDBRANCH   2  11
TORSDOF 5
ENDMDL
