MODEL 1
REMARK VINA RESULT:      -5.4      0.000      0.000
REMARK  Name = 
REMARK  7 active torsions:
REMARK  status: ('A' for Active; 'I' for Inactive)
REMARK    1  A    between atoms: N_1  and  C_2
REMARK    2  A    between atoms: C_2  and  C_3
REMARK    3  A    between atoms: C_3  and  O_5
REMARK    4  A    between atoms: C_7  and  C_9
REMARK    5  A    between atoms: C_9  and  C_10
REMARK    6  A    between atoms: C_10  and  C_11
REMARK    7  A    between atoms: C_11  and  O_13
REMARK                            x       y       z     vdW  Elec       q    Type
REMARK                         _______ _______ _______ _____ _____    ______ ____
ROOT
ATOM      1  C   UNL     1       7.190   5.049  17.324  0.00  0.00    +0.000 C 
ATOM      2  C   UNL     1       7.307   6.522  17.651  0.00  0.00    +0.000 C 
ATOM      3  C   UNL     1       6.349   5.671  18.442  0.00  0.00    +0.000 C 
ATOM      4  F   UNL     1       6.799   5.434  19.745  0.00  0.00    +0.000 F 
ENDROOT
BRANCH   1   5
ATOM      5  N   UNL     1       8.288   4.109  17.731  0.00  0.00    +0.000 NA
ATOM      6  H   UNL     1       7.905   3.446  18.418  0.00  0.00    +0.000 HD
ATOM      7  H   UNL     1       9.013   4.616  18.244  0.00  0.00    +0.000 HD
ENDBRANCH   1   5
BRANCH   1   8
ATOM      8  C   UNL     1       6.585   4.680  15.987  0.00  0.00    +0.000 C 
ATOM      9  O   UNL     1       6.591   5.427  15.018  0.00  0.00    +0.000 OA
BRANCH   8  10
ATOM     10  O   UNL     1       6.070   3.427  15.971  0.00  0.00    +0.000 OA
ATOM     11  H   UNL     1       5.121   3.492  15.718  0.00  0.00    +0.000 HD
ENDBRANCH   8  10
ENDBRANCH   1   8
BRANCH   3  12
ATOM     12  C   UNL     1       4.861   5.864  18.321  0.00  0.00    +0.000 C 
BRANCH  12  13
ATOM     13  C   UNL     1       4.121   4.989  19.340  0.00  0.00    +0.000 C 
BRANCH  13  14
ATOM     14  C   UNL     1       4.335   3.517  19.078  0.00  0.00    +0.000 C 
ATOM     15  O   UNL     1       4.891   2.745  19.837  0.00  0.00    +0.000 OA
BRANCH  14  16
ATOM     16  O   UNL     1       3.860   3.133  17.872  0.00  0.00    +0.000 OA
ATOM     17  H   UNL     1       4.266   3.597  17.114  0.00  0.00    +0.000 HD
ENDBRANCH  14  16
ENDBRANCH  13  14
ENDBRANCH  12  13
ENDBRANCH   3  12
TORSDOF 7
ENDMDL
MODEL 2
REMARK VINA RESULT:      -5.3      2.494      4.300
REMARK  Name = 
REMARK  7 active torsions:
REMARK  status: ('A' for Active; 'I' for Inactive)
REMARK    1  A    between atoms: N_1  and  C_2
REMARK    2  A    between atoms: C_2  and  C_3
REMARK    3  A    between atoms: C_3  and  O_5
REMARK    4  A    between atoms: C_7  and  C_9
REMARK    5  A    between atoms: C_9  and  C_10
REMARK    6  A    between atoms: C_10  and  C_11
REMARK    7  A    between atoms: C_11  and  O_13
REMARK                            x       y       z     vdW  Elec       q    Type
REMARK                         _______ _______ _______ _____ _____    ______ ____
ROOT
ATOM      1  C   UNL     1       4.493   3.654  18.907  0.00  0.00    +0.000 C 
ATOM      2  C   UNL     1       3.094   3.651  18.330  0.00  0.00    +0.000 C 
ATOM      3  C   UNL     1       4.259   3.339  17.427  0.00  0.00    +0.000 C 
ATOM      4  F   UNL     1       4.312   1.985  17.078  0.00  0.00    +0.000 F 
ENDROOT
BRANCH   1   5
ATOM      5  N   UNL     1       4.935   2.522  19.790  0.00  0.00    +0.000 NA
ATOM      6  H   UNL     1       4.454   2.614  20.695  0.00  0.00    +0.000 HD
ATOM      7  H   UNL     1       5.927   2.621  20.018  0.00  0.00    +0.000 HD
ENDBRANCH   1   5
BRANCH   1   8
ATOM      8  C   UNL     1       5.058   4.985  19.355  0.00  0.00    +0.000 C 
ATOM      9  O   UNL     1       4.377   5.992  19.488  0.00  0.00    +0.000 OA
BRANCH   8  10
ATOM     10  O   UNL     1       6.385   4.929  19.625  0.00  0.00    +0.000 OA
ATOM     11  H   UNL     1       6.829   5.642  19.112  0.00  0.00    +0.000 HD
ENDBRANCH   8  10
ENDBRANCH   1   8
BRANCH   3  12
ATOM     12  C   UNL     1       4.660   4.283  16.327  0.00  0.00    +0.000 C 
BRANCH  12  13
ATOM     13  C   UNL     1       5.984   3.839  15.693  0.00  0.00    +0.000 C 
BRANCH  13  14
ATOM     14  C   UNL     1       7.138   4.711  16.130  0.00  0.00    +0.000 C 
ATOM     15  O   UNL     1       7.399   5.807  15.670  0.00  0.00    +0.000 OA
BRANCH  14  16
ATOM     16  O   UNL     1       7.889   4.129  17.091  0.00  0.00    +0.000 OA
ATOM     17  H   UNL     1       8.498   3.439  16.761  0.00  0.00    +0.000 HD
ENDBRANCH  14  16
ENDBRANCH  13  14
ENDBRANCH  12  13
ENDBRANCH   3  12
TORSDOF 7
ENDMDL
MODEL 3
REMARK VINA RESULT:      -5.3      2.033      2.476
REMARK  Name = 
REMARK  7 active torsions:
REMARK  status: ('A' for Active; 'I' for Inactive)
REMARK    1  A    between atoms: N_1  and  C_2
REMARK    2  A    between atoms: C_2  and  C_3
REMARK    3  A    between atoms: C_3  and  O_5
REMARK    4  A    between atoms: C_7  and  C_9
REMARK    5  A    between atoms: C_9  and  C_10
REMARK    6  A    between atoms: C_10  and  C_11
REMARK    7  A    between atoms: C_11  and  O_13
REMARK                            x       y       z     vdW  Elec       q    Type
REMARK                         _______ _______ _______ _____ _____    ______ ____
ROOT
ATOM      1  C   UNL     1       6.332   5.152  18.433  0.00  0.00    +0.000 C 
ATOM      2  C   UNL     1       5.110   5.970  18.075  0.00  0.00    +0.000 C 
ATOM      3  C   UNL     1       4.938   4.517  18.434  0.00  0.00    +0.000 C 
ATOM      4  F   UNL     1       4.348   4.346  19.690  0.00  0.00    +0.000 F 
ENDROOT
BRANCH   1   5
ATOM      5  N   UNL     1       6.996   5.353  19.765  0.00  0.00    +0.000 NA
ATOM      6  H   UNL     1       6.417   4.901  20.485  0.00  0.00    +0.000 HD
ATOM      7  H   UNL     1       6.986   6.345  20.016  0.00  0.00    +0.000 HD
ENDBRANCH   1   5
BRANCH   1   8
ATOM      8  C   UNL     1       7.330   4.873  17.331  0.00  0.00    +0.000 C 
ATOM      9  O   UNL     1       7.295   5.423  16.239  0.00  0.00    +0.000 OA
BRANCH   8  10
ATOM     10  O   UNL     1       8.282   3.980  17.696  0.00  0.00    +0.000 OA
ATOM     11  H   UNL     1       9.150   4.311  17.370  0.00  0.00    +0.000 HD
ENDBRANCH   8  10
ENDBRANCH   1   8
BRANCH   3  12
ATOM     12  C   UNL     1       4.509   3.510  17.401  0.00  0.00    +0.000 C 
BRANCH  12  13
ATOM     13  C   UNL     1       2.995   3.585  17.173  0.00  0.00    +0.000 C 
BRANCH  13  14
ATOM     14  C   UNL     1       2.261   2.479  17.895  0.00  0.00    +0.000 C 
ATOM     15  O   UNL     1       1.087   2.511  18.214  0.00  0.00    +0.000 OA
BRANCH  14  16
ATOM     16  O   UNL     1       3.065   1.432  18.186  0.00  0.00    +0.000 OA
ATOM     17  H   UNL     1       3.105   0.750  17.486  0.00  0.00    +0.000 HD
ENDBRANCH  14  16
ENDBRANCH  13  14
ENDBRANCH  12  13
ENDBRANCH   3  12
TORSDOF 7
ENDMDL
MODEL 4
REMARK VINA RESULT:      -5.3      2.571      4.036
REMARK  Name = 
REMARK  7 active torsions:
REMARK  status: ('A' for Active; 'I' for Inactive)
REMARK    1  A    between atoms: N_1  and  C_2
REMARK    2  A    between atoms: C_2  and  C_3
REMARK    3  A    between atoms: C_3  and  O_5
REMARK    4  A    between atoms: C_7  and  C_9
REMARK    5  A    between atoms: C_9  and  C_10
REMARK    6  A    between atoms: C_10  and  C_11
REMARK    7  A    between atoms: C_11  and  O_13
REMARK                            x       y       z     vdW  Elec       q    Type
REMARK                         _______ _______ _______ _____ _____    ______ ____
ROOT
ATOM      1  C   UNL     1       5.876   4.730  18.155  0.00  0.00    +0.000 C 
ATOM      2  C   UNL     1       4.878   5.860  18.288  0.00  0.00    +0.000 C 
ATOM      3  C   UNL     1       4.863   5.014  17.042  0.00  0.00    +0.000 C 
ATOM      4  F   UNL     1       3.757   4.158  16.994  0.00  0.00    +0.000 F 
ENDROOT
BRANCH   1   5
ATOM      5  N   UNL     1       5.685   3.473  18.954  0.00  0.00    +0.000 NA
ATOM      6  H   UNL     1       4.951   2.912  18.501  0.00  0.00    +0.000 HD
ATOM      7  H   UNL     1       5.302   3.697  19.875  0.00  0.00    +0.000 HD
ENDBRANCH   1   5
BRANCH   1   8
ATOM      8  C   UNL     1       7.335   5.104  18.014  0.00  0.00    +0.000 C 
ATOM      9  O   UNL     1       7.773   6.213  18.284  0.00  0.00    +0.000 OA
BRANCH   8  10
ATOM     10  O   UNL     1       8.104   4.071  17.590  0.00  0.00    +0.000 OA
ATOM     11  H   UNL     1       8.697   3.810  18.332  0.00  0.00    +0.000 HD
ENDBRANCH   8  10
ENDBRANCH   1   8
BRANCH   3  12
ATOM     12  C   UNL     1       5.265   5.588  15.711  0.00  0.00    +0.000 C 
BRANCH  12  13
ATOM     13  C   UNL     1       5.594   4.467  14.718  0.00  0.00    +0.000 C 
BRANCH  13  14
ATOM     14  C   UNL     1       6.891   4.724  13.987  0.00  0.00    +0.000 C 
ATOM     15  O   UNL     1       7.827   5.365  14.429  0.00  0.00    +0.000 OA
BRANCH  14  16
ATOM     16  O   UNL     1       6.902   4.182  12.749  0.00  0.00    +0.000 OA
ATOM     17  H   UNL     1       6.053   4.256  12.271  0.00  0.00    +0.000 HD
ENDBRANCH  14  16
ENDBRANCH  13  14
ENDBRANCH  12  13
ENDBRANCH   3  12
TORSDOF 7
ENDMDL
MODEL 5
REMARK VINA RESULT:      -5.3      2.432      2.800
REMARK  Name = 
REMARK  7 active torsions:
REMARK  status: ('A' for Active; 'I' for Inactive)
REMARK    1  A    between atoms: N_1  and  C_2
REMARK    2  A    between atoms: C_2  and  C_3
REMARK    3  A    between atoms: C_3  and  O_5
REMARK    4  A    between atoms: C_7  and  C_9
REMARK    5  A    between atoms: C_9  and  C_10
REMARK    6  A    between atoms: C_10  and  C_11
REMARK    7  A    between atoms: C_11  and  O_13
REMARK                            x       y       z     vdW  Elec       q    Type
REMARK                         _______ _______ _______ _____ _____    ______ ____
ROOT
ATOM      1  C   UNL     1       6.905   5.793  16.897  0.00  0.00    +0.000 C 
ATOM      2  C   UNL     1       6.834   5.099  15.553  0.00  0.00    +0.000 C 
ATOM      3  C   UNL     1       5.553   5.475  16.251  0.00  0.00    +0.000 C 
ATOM      4  F   UNL     1       4.907   6.551  15.633  0.00  0.00    +0.000 F 
ENDROOT
BRANCH   1   5
ATOM      5  N   UNL     1       7.312   7.236  16.966  0.00  0.00    +0.000 NA
ATOM      6  H   UNL     1       6.757   7.692  17.702  0.00  0.00    +0.000 HD
ATOM      7  H   UNL     1       7.041   7.719  16.106  0.00  0.00    +0.000 HD
ENDBRANCH   1   5
BRANCH   1   8
ATOM      8  C   UNL     1       7.434   4.991  18.066  0.00  0.00    +0.000 C 
ATOM      9  O   UNL     1       7.097   5.191  19.225  0.00  0.00    +0.000 OA
BRANCH   8  10
ATOM     10  O   UNL     1       8.291   4.011  17.688  0.00  0.00    +0.000 OA
ATOM     11  H   UNL     1       8.542   3.501  18.491  0.00  0.00    +0.000 HD
ENDBRANCH   8  10
ENDBRANCH   1   8
BRANCH   3  12
ATOM     12  C   UNL     1       4.628   4.419  16.793  0.00  0.00    +0.000 C 
BRANCH  12  13
ATOM     13  C   UNL     1       3.482   5.063  17.582  0.00  0.00    +0.000 C 
BRANCH  13  14
ATOM     14  C   UNL     1       3.544   4.714  19.051  0.00  0.00    +0.000 C 
ATOM     15  O   UNL     1       3.021   3.741  19.561  0.00  0.00    +0.000 OA
BRANCH  14  16
ATOM     16  O   UNL     1       4.234   5.628  19.769  0.00  0.00    +0.000 OA
ATOM     17  H   UNL     1       4.413   6.462  19.291  0.00  0.00    +0.000 HD
ENDBRANCH  14  16
ENDBRANCH  13  14
ENDBRANCH  12  13
ENDBRANCH   3  12
TORSDOF 7
ENDMDL
MODEL 6
REMARK VINA RESULT:      -5.3      3.049      3.793
REMARK  Name = 
REMARK  7 active torsions:
REMARK  status: ('A' for Active; 'I' for Inactive)
REMARK    1  A    between atoms: N_1  and  C_2
REMARK    2  A    between atoms: C_2  and  C_3
REMARK    3  A    between atoms: C_3  and  O_5
REMARK    4  A    between atoms: C_7  and  C_9
REMARK    5  A    between atoms: C_9  and  C_10
REMARK    6  A    between atoms: C_10  and  C_11
REMARK    7  A    between atoms: C_11  and  O_13
REMARK                            x       y       z     vdW  Elec       q    Type
REMARK                         _______ _______ _______ _____ _____    ______ ____
ROOT
ATOM      1  C   UNL     1       4.506   3.663  18.450  0.00  0.00    +0.000 C 
ATOM      2  C   UNL     1       3.825   4.195  17.208  0.00  0.00    +0.000 C 
ATOM      3  C   UNL     1       3.501   4.815  18.543  0.00  0.00    +0.000 C 
ATOM      4  F   UNL     1       4.053   6.092  18.683  0.00  0.00    +0.000 F 
ENDROOT
BRANCH   1   5
ATOM      5  N   UNL     1       5.950   3.988  18.703  0.00  0.00    +0.000 NA
ATOM      6  H   UNL     1       6.523   3.219  18.328  0.00  0.00    +0.000 HD
ATOM      7  H   UNL     1       6.141   3.981  19.707  0.00  0.00    +0.000 HD
ENDBRANCH   1   5
BRANCH   1   8
ATOM      8  C   UNL     1       4.148   2.260  18.892  0.00  0.00    +0.000 C 
ATOM      9  O   UNL     1       3.309   1.572  18.328  0.00  0.00    +0.000 OA
BRANCH   8  10
ATOM     10  O   UNL     1       4.880   1.840  19.953  0.00  0.00    +0.000 OA
ATOM     11  H   UNL     1       4.259   1.484  20.628  0.00  0.00    +0.000 HD
ENDBRANCH   8  10
ENDBRANCH   1   8
BRANCH   3  12
ATOM     12  C   UNL     1       2.140   4.651  19.162  0.00  0.00    +0.000 C 
BRANCH  12  13
ATOM     13  C   UNL     1       2.226   4.770  20.688  0.00  0.00    +0.000 C 
BRANCH  13  14
ATOM     14  C   UNL     1       1.815   3.490  21.377  0.00  0.00    +0.000 C 
ATOM     15  O   UNL     1       2.438   2.944  22.268  0.00  0.00    +0.000 OA
BRANCH  14  16
ATOM     16  O   UNL     1       0.669   2.978  20.875  0.00  0.00    +0.000 OA
ATOM     17  H   UNL     1       0.078   3.642  20.466  0.00  0.00    +0.000 HD
ENDBRANCH  14  16
ENDBRANCH  13  14
ENDBRANCH  12  13
ENDBRANCH   3  12
TORSDOF 7
ENDMDL
MODEL 7
REMARK VINA RESULT:      -5.2      3.017      3.906
REMARK  Name = 
REMARK  7 active torsions:
REMARK  status: ('A' for Active; 'I' for Inactive)
REMARK    1  A    between atoms: N_1  and  C_2
REMARK    2  A    between atoms: C_2  and  C_3
REMARK    3  A    between atoms: C_3  and  O_5
REMARK    4  A    between atoms: C_7  and  C_9
REMARK    5  A    between atoms: C_9  and  C_10
REMARK    6  A    between atoms: C_10  and  C_11
REMARK    7  A    between atoms: C_11  and  O_13
REMARK                            x       y       z     vdW  Elec       q    Type
REMARK                         _______ _______ _______ _____ _____    ______ ____
ROOT
ATOM      1  C   UNL     1       4.104   4.980  18.095  0.00  0.00    +0.000 C 
ATOM      2  C   UNL     1       3.050   3.939  17.786  0.00  0.00    +0.000 C 
ATOM      3  C   UNL     1       2.665   5.156  18.587  0.00  0.00    +0.000 C 
ATOM      4  F   UNL     1       1.876   6.048  17.853  0.00  0.00    +0.000 F 
ENDROOT
BRANCH   1   5
ATOM      5  N   UNL     1       4.577   5.903  17.009  0.00  0.00    +0.000 NA
ATOM      6  H   UNL     1       5.073   6.689  17.448  0.00  0.00    +0.000 HD
ATOM      7  H   UNL     1       3.777   6.335  16.542  0.00  0.00    +0.000 HD
ENDBRANCH   1   5
BRANCH   1   8
ATOM      8  C   UNL     1       5.221   4.581  19.035  0.00  0.00    +0.000 C 
ATOM      9  O   UNL     1       5.924   5.390  19.625  0.00  0.00    +0.000 OA
BRANCH   8  10
ATOM     10  O   UNL     1       5.334   3.238  19.176  0.00  0.00    +0.000 OA
ATOM     11  H   UNL     1       5.004   2.998  20.072  0.00  0.00    +0.000 HD
ENDBRANCH   8  10
ENDBRANCH   1   8
BRANCH   3  12
ATOM     12  C   UNL     1       2.288   5.039  20.039  0.00  0.00    +0.000 C 
BRANCH  12  13
ATOM     13  C   UNL     1       1.391   3.817  20.265  0.00  0.00    +0.000 C 
BRANCH  13  14
ATOM     14  C   UNL     1       1.961   2.885  21.309  0.00  0.00    +0.000 C 
ATOM     15  O   UNL     1       1.382   2.526  22.317  0.00  0.00    +0.000 OA
BRANCH  14  16
ATOM     16  O   UNL     1       3.224   2.499  21.021  0.00  0.00    +0.000 OA
ATOM     17  H   UNL     1       3.866   2.655  21.741  0.00  0.00    +0.000 HD
ENDBRANCH  14  16
ENDBRANCH  13  14
ENDBRANCH  12  13
ENDBRANCH   3  12
TORSDOF 7
ENDMDL
MODEL 8
REMARK VINA RESULT:      -5.2      0.719      1.121
REMARK  Name = 
REMARK  7 active torsions:
REMARK  status: ('A' for Active; 'I' for Inactive)
REMARK    1  A    between atoms: N_1  and  C_2
REMARK    2  A    between atoms: C_2  and  C_3
REMARK    3  A    between atoms: C_3  and  O_5
REMARK    4  A    between atoms: C_7  and  C_9
REMARK    5  A    between atoms: C_9  and  C_10
REMARK    6  A    between atoms: C_10  and  C_11
REMARK    7  A    between atoms: C_11  and  O_13
REMARK                            x       y       z     vdW  Elec       q    Type
REMARK                         _______ _______ _______ _____ _____    ______ ____
ROOT
ATOM      1  C   UNL     1       7.246   5.111  17.129  0.00  0.00    +0.000 C 
ATOM      2  C   UNL     1       7.406   6.592  17.398  0.00  0.00    +0.000 C 
ATOM      3  C   UNL     1       6.245   5.857  18.016  0.00  0.00    +0.000 C 
ATOM      4  F   UNL     1       6.404   5.678  19.395  0.00  0.00    +0.000 F 
ENDROOT
BRANCH   1   5
ATOM      5  N   UNL     1       8.164   4.131  17.801  0.00  0.00    +0.000 NA
ATOM      6  H   UNL     1       8.063   3.221  17.331  0.00  0.00    +0.000 HD
ATOM      7  H   UNL     1       7.853   3.958  18.760  0.00  0.00    +0.000 HD
ENDBRANCH   1   5
BRANCH   1   8
ATOM      8  C   UNL     1       6.897   4.694  15.716  0.00  0.00    +0.000 C 
ATOM      9  O   UNL     1       6.161   3.753  15.457  0.00  0.00    +0.000 OA
BRANCH   8  10
ATOM     10  O   UNL     1       7.459   5.495  14.778  0.00  0.00    +0.000 OA
ATOM     11  H   UNL     1       7.408   5.029  13.912  0.00  0.00    +0.000 HD
ENDBRANCH   8  10
ENDBRANCH   1   8
BRANCH   3  12
ATOM     12  C   UNL     1       4.832   6.136  17.582  0.00  0.00    +0.000 C 
BRANCH  12  13
ATOM     13  C   UNL     1       3.838   5.365  18.459  0.00  0.00    +0.000 C 
BRANCH  13  14
ATOM     14  C   UNL     1       3.937   3.873  18.243  0.00  0.00    +0.000 C 
ATOM     15  O   UNL     1       4.277   3.065  19.088  0.00  0.00    +0.000 OA
BRANCH  14  16
ATOM     16  O   UNL     1       3.629   3.513  16.977  0.00  0.00    +0.000 OA
ATOM     17  H   UNL     1       4.337   3.687  16.326  0.00  0.00    +0.000 HD
ENDBRANCH  14  16
ENDBRANCH  13  14
ENDBRANCH  12  13
ENDBRANCH   3  12
TORSDOF 7
ENDMDL
MODEL 9
REMARK VINA RESULT:      -5.2      2.396      2.860
REMARK  Name = 
REMARK  7 active torsions:
REMARK  status: ('A' for Active; 'I' for Inactive)
REMARK    1  A    between atoms: N_1  and  C_2
REMARK    2  A    between atoms: C_2  and  C_3
REMARK    3  A    between atoms: C_3  and  O_5
REMARK    4  A    between atoms: C_7  and  C_9
REMARK    5  A    between atoms: C_9  and  C_10
REMARK    6  A    between atoms: C_10  and  C_11
REMARK    7  A    between atoms: C_11  and  O_13
REMARK                            x       y       z     vdW  Elec       q    Type
REMARK                         _______ _______ _______ _____ _____    ______ ____
ROOT
ATOM      1  C   UNL     1       6.472   5.897  17.126  0.00  0.00    +0.000 C 
ATOM      2  C   UNL     1       5.738   5.256  15.968  0.00  0.00    +0.000 C 
ATOM      3  C   UNL     1       4.967   5.628  17.207  0.00  0.00    +0.000 C 
ATOM      4  F   UNL     1       4.139   6.737  17.005  0.00  0.00    +0.000 F 
ENDROOT
BRANCH   1   5
ATOM      5  N   UNL     1       6.910   7.330  17.025  0.00  0.00    +0.000 NA
ATOM      6  H   UNL     1       7.851   7.408  17.435  0.00  0.00    +0.000 HD
ATOM      7  H   UNL     1       6.324   7.919  17.620  0.00  0.00    +0.000 HD
ENDBRANCH   1   5
BRANCH   1   8
ATOM      8  C   UNL     1       7.473   5.042  17.874  0.00  0.00    +0.000 C 
ATOM      9  O   UNL     1       7.704   5.170  19.068  0.00  0.00    +0.000 OA
BRANCH   8  10
ATOM     10  O   UNL     1       8.055   4.105  17.088  0.00  0.00    +0.000 OA
ATOM     11  H   UNL     1       8.985   3.992  17.388  0.00  0.00    +0.000 HD
ENDBRANCH   8  10
ENDBRANCH   1   8
BRANCH   3  12
ATOM     12  C   UNL     1       4.383   4.569  18.103  0.00  0.00    +0.000 C 
BRANCH  12  13
ATOM     13  C   UNL     1       3.985   3.334  17.287  0.00  0.00    +0.000 C 
BRANCH  13  14
ATOM     14  C   UNL     1       2.522   2.995  17.455  0.00  0.00    +0.000 C 
ATOM     15  O   UNL     1       1.601   3.773  17.292  0.00  0.00    +0.000 OA
BRANCH  14  16
ATOM     16  O   UNL     1       2.330   1.714  17.843  0.00  0.00    +0.000 OA
ATOM     17  H   UNL     1       3.087   1.322  18.322  0.00  0.00    +0.000 HD
ENDBRANCH  14  16
ENDBRANCH  13  14
ENDBRANCH  12  13
ENDBRANCH   3  12
TORSDOF 7
ENDMDL
