MODEL 1
REMARK VINA RESULT:      -9.0      0.000      0.000
REMARK  Name = 
REMARK  12 active torsions:
REMARK  status: ('A' for Active; 'I' for Inactive)
REMARK    1  A    between atoms: C_1  and  C_2
REMARK    2  A    between atoms: C_6  and  O_7
REMARK    3  A    between atoms: O_7  and  C_8
REMARK    4  A    between atoms: C_8  and  C_9
REMARK    5  A    between atoms: C_9  and  N_10
REMARK    6  A    between atoms: C_13  and  C_14
REMARK    7  A    between atoms: C_14  and  C_15
REMARK    8  A    between atoms: C_19  and  N_20
REMARK    9  A    between atoms: N_20  and  S_21
REMARK   10  A    between atoms: S_21  and  C_24
REMARK   11  A    between atoms: C_24  and  C_25
REMARK   12  A    between atoms: C_24  and  C_26
REMARK                            x       y       z     vdW  Elec       q    Type
REMARK                         _______ _______ _______ _____ _____    ______ ____
ROOT
ATOM      1  N   UNL     1       2.216   2.378  19.690  0.00  0.00    +0.000 NA
ATOM      2  C   UNL     1       3.122   2.958  20.698  0.00  0.00    +0.000 C 
ATOM      3  C   UNL     1       2.406   3.915  21.644  0.00  0.00    +0.000 C 
ATOM      4  C   UNL     1       1.737   5.059  20.885  0.00  0.00    +0.000 C 
ATOM      5  C   UNL     1       0.781   4.421  19.860  0.00  0.00    +0.000 C 
ATOM      6  C   UNL     1       1.486   3.406  18.938  0.00  0.00    +0.000 C 
ENDROOT
BRANCH   1   7
ATOM      7  C   UNL     1       2.922   1.427  18.785  0.00  0.00    +0.000 C 
BRANCH   7   8
ATOM      8  C   UNL     1       3.908   2.208  17.909  0.00  0.00    +0.000 C 
BRANCH   8   9
ATOM      9  O   UNL     1       3.801   3.615  17.863  0.00  0.00    +0.000 OA
BRANCH   9  15
ATOM     10  C   UNL     1       8.032   5.327  12.793  0.00  0.00    +0.000 C 
ATOM     11  C   UNL     1       7.191   5.027  13.992  0.00  0.00    +0.000 A 
ATOM     12  C   UNL     1       6.026   4.314  13.855  0.00  0.00    +0.000 A 
ATOM     13  C   UNL     1       5.281   4.051  14.999  0.00  0.00    +0.000 A 
ATOM     14  C   UNL     1       5.666   4.481  16.305  0.00  0.00    +0.000 A 
ATOM     15  C   UNL     1       4.996   4.277  17.583  0.00  0.00    +0.000 A 
ATOM     16  C   UNL     1       5.560   4.788  18.760  0.00  0.00    +0.000 A 
ATOM     17  C   UNL     1       6.749   5.499  18.719  0.00  0.00    +0.000 A 
ATOM     18  C   UNL     1       7.387   5.701  17.497  0.00  0.00    +0.000 A 
ATOM     19  C   UNL     1       6.885   5.209  16.302  0.00  0.00    +0.000 A 
ATOM     20  N   UNL     1       7.613   5.472  15.197  0.00  0.00    +0.000 NA
ENDBRANCH   9  15
ENDBRANCH   8   9
ENDBRANCH   7   8
ENDBRANCH   1   7
BRANCH   4  21
ATOM     21  C   UNL     1       2.725   6.016  20.178  0.00  0.00    +0.000 C 
BRANCH  21  22
ATOM     22  C   UNL     1       2.146   7.304  19.645  0.00  0.00    +0.000 A 
ATOM     23  C   UNL     1       2.540   7.833  18.410  0.00  0.00    +0.000 A 
ATOM     24  C   UNL     1       1.994   9.037  17.955  0.00  0.00    +0.000 A 
ATOM     25  C   UNL     1       1.056   9.726  18.725  0.00  0.00    +0.000 A 
ATOM     26  C   UNL     1       0.680   9.219  19.968  0.00  0.00    +0.000 A 
ATOM     27  C   UNL     1       1.219   8.018  20.423  0.00  0.00    +0.000 A 
BRANCH  26  28
ATOM     28  N   UNL     1      -0.283   9.893  20.780  0.00  0.00    +0.000 N 
ATOM     29  H   UNL     1      -0.704   9.312  21.507  0.00  0.00    +0.000 HD
BRANCH  28  30
ATOM     30  S   UNL     1       0.180  11.367  21.474  0.00  0.00    +0.000 S 
ATOM     31  O   UNL     1      -0.273  11.285  22.851  0.00  0.00    +0.000 OA
ATOM     32  O   UNL     1       1.565  11.636  21.164  0.00  0.00    +0.000 OA
BRANCH  30  33
ATOM     33  C   UNL     1      -0.861  12.573  20.612  0.00  0.00    +0.000 C 
ATOM     34  C   UNL     1      -0.042  13.563  19.793  0.00  0.00    +0.000 C 
ATOM     35  C   UNL     1      -1.854  11.839  19.709  0.00  0.00    +0.000 C 
ENDBRANCH  30  33
ENDBRANCH  28  30
ENDBRANCH  26  28
ENDBRANCH  21  22
ENDBRANCH   4  21
TORSDOF 9
ENDMDL
MODEL 2
REMARK VINA RESULT:      -8.8      1.110      2.290
REMARK  Name = 
REMARK  12 active torsions:
REMARK  status: ('A' for Active; 'I' for Inactive)
REMARK    1  A    between atoms: C_1  and  C_2
REMARK    2  A    between atoms: C_6  and  O_7
REMARK    3  A    between atoms: O_7  and  C_8
REMARK    4  A    between atoms: C_8  and  C_9
REMARK    5  A    between atoms: C_9  and  N_10
REMARK    6  A    between atoms: C_13  and  C_14
REMARK    7  A    between atoms: C_14  and  C_15
REMARK    8  A    between atoms: C_19  and  N_20
REMARK    9  A    between atoms: N_20  and  S_21
REMARK   10  A    between atoms: S_21  and  C_24
REMARK   11  A    between atoms: C_24  and  C_25
REMARK   12  A    between atoms: C_24  and  C_26
REMARK                            x       y       z     vdW  Elec       q    Type
REMARK                         _______ _______ _______ _____ _____    ______ ____
ROOT
ATOM      1  N   UNL     1       2.368   2.356  19.324  0.00  0.00    +0.000 NA
ATOM      2  C   UNL     1       3.148   2.770  20.505  0.00  0.00    +0.000 C 
ATOM      3  C   UNL     1       2.322   3.586  21.492  0.00  0.00    +0.000 C 
ATOM      4  C   UNL     1       1.741   4.838  20.838  0.00  0.00    +0.000 C 
ATOM      5  C   UNL     1       0.914   4.369  19.626  0.00  0.00    +0.000 C 
ATOM      6  C   UNL     1       1.726   3.493  18.652  0.00  0.00    +0.000 C 
ENDROOT
BRANCH   1   7
ATOM      7  C   UNL     1       3.180   1.540  18.376  0.00  0.00    +0.000 C 
BRANCH   7   8
ATOM      8  C   UNL     1       4.283   2.419  17.776  0.00  0.00    +0.000 C 
BRANCH   8   9
ATOM      9  O   UNL     1       3.956   3.273  16.701  0.00  0.00    +0.000 OA
BRANCH   9  15
ATOM     10  C   UNL     1       8.282   8.397  17.958  0.00  0.00    +0.000 C 
ATOM     11  C   UNL     1       7.408   7.249  17.561  0.00  0.00    +0.000 A 
ATOM     12  C   UNL     1       6.401   6.832  18.394  0.00  0.00    +0.000 A 
ATOM     13  C   UNL     1       5.608   5.767  17.979  0.00  0.00    +0.000 A 
ATOM     14  C   UNL     1       5.786   5.091  16.734  0.00  0.00    +0.000 A 
ATOM     15  C   UNL     1       5.038   3.975  16.170  0.00  0.00    +0.000 A 
ATOM     16  C   UNL     1       5.385   3.462  14.913  0.00  0.00    +0.000 A 
ATOM     17  C   UNL     1       6.446   4.001  14.202  0.00  0.00    +0.000 A 
ATOM     18  C   UNL     1       7.168   5.063  14.743  0.00  0.00    +0.000 A 
ATOM     19  C   UNL     1       6.863   5.621  15.976  0.00  0.00    +0.000 A 
ATOM     20  N   UNL     1       7.640   6.651  16.371  0.00  0.00    +0.000 NA
ENDBRANCH   9  15
ENDBRANCH   8   9
ENDBRANCH   7   8
ENDBRANCH   1   7
BRANCH   4  21
ATOM     21  C   UNL     1       2.799   5.876  20.399  0.00  0.00    +0.000 C 
BRANCH  21  22
ATOM     22  C   UNL     1       2.290   7.070  19.630  0.00  0.00    +0.000 A 
ATOM     23  C   UNL     1       2.694   7.327  18.315  0.00  0.00    +0.000 A 
ATOM     24  C   UNL     1       2.214   8.452  17.638  0.00  0.00    +0.000 A 
ATOM     25  C   UNL     1       1.331   9.332  18.264  0.00  0.00    +0.000 A 
ATOM     26  C   UNL     1       0.944   9.097  19.584  0.00  0.00    +0.000 A 
ATOM     27  C   UNL     1       1.418   7.975  20.260  0.00  0.00    +0.000 A 
BRANCH  26  28
ATOM     28  N   UNL     1       0.036   9.972  20.254  0.00  0.00    +0.000 N 
ATOM     29  H   UNL     1      -0.715   9.496  20.757  0.00  0.00    +0.000 HD
BRANCH  28  30
ATOM     30  S   UNL     1       0.698  11.153  21.271  0.00  0.00    +0.000 S 
ATOM     31  O   UNL     1       1.454  10.406  22.260  0.00  0.00    +0.000 OA
ATOM     32  O   UNL     1       1.331  12.179  20.475  0.00  0.00    +0.000 OA
BRANCH  30  33
ATOM     33  C   UNL     1      -0.756  11.855  22.089  0.00  0.00    +0.000 C 
ATOM     34  C   UNL     1      -1.854  12.226  21.099  0.00  0.00    +0.000 C 
ATOM     35  C   UNL     1      -1.293  10.863  23.121  0.00  0.00    +0.000 C 
ENDBRANCH  30  33
ENDBRANCH  28  30
ENDBRANCH  26  28
ENDBRANCH  21  22
ENDBRANCH   4  21
TORSDOF 9
ENDMDL
MODEL 3
REMARK VINA RESULT:      -8.3      3.230     10.606
REMARK  Name = 
REMARK  12 active torsions:
REMARK  status: ('A' for Active; 'I' for Inactive)
REMARK    1  A    between atoms: C_1  and  C_2
REMARK    2  A    between atoms: C_6  and  O_7
REMARK    3  A    between atoms: O_7  and  C_8
REMARK    4  A    between atoms: C_8  and  C_9
REMARK    5  A    between atoms: C_9  and  N_10
REMARK    6  A    between atoms: C_13  and  C_14
REMARK    7  A    between atoms: C_14  and  C_15
REMARK    8  A    between atoms: C_19  and  N_20
REMARK    9  A    between atoms: N_20  and  S_21
REMARK   10  A    between atoms: S_21  and  C_24
REMARK   11  A    between atoms: C_24  and  C_25
REMARK   12  A    between atoms: C_24  and  C_26
REMARK                            x       y       z     vdW  Elec       q    Type
REMARK                         _______ _______ _______ _____ _____    ______ ____
ROOT
ATOM      1  N   UNL     1       0.833   9.882  18.830  0.00  0.00    +0.000 NA
ATOM      2  C   UNL     1       0.614   8.896  19.904  0.00  0.00    +0.000 C 
ATOM      3  C   UNL     1       1.895   8.167  20.295  0.00  0.00    +0.000 C 
ATOM      4  C   UNL     1       2.519   7.447  19.102  0.00  0.00    +0.000 C 
ATOM      5  C   UNL     1       2.756   8.507  18.010  0.00  0.00    +0.000 C 
ATOM      6  C   UNL     1       1.477   9.291  17.651  0.00  0.00    +0.000 C 
ENDROOT
BRANCH   1   7
ATOM      7  C   UNL     1      -0.422  10.604  18.471  0.00  0.00    +0.000 C 
BRANCH   7   8
ATOM      8  C   UNL     1      -0.360  12.026  19.043  0.00  0.00    +0.000 C 
BRANCH   8   9
ATOM      9  O   UNL     1      -1.555  12.772  19.126  0.00  0.00    +0.000 OA
BRANCH   9  15
ATOM     10  C   UNL     1      -7.685  12.479  22.106  0.00  0.00    +0.000 C 
ATOM     11  C   UNL     1      -6.284  12.531  21.585  0.00  0.00    +0.000 A 
ATOM     12  C   UNL     1      -6.055  12.585  20.233  0.00  0.00    +0.000 A 
ATOM     13  C   UNL     1      -4.736  12.642  19.795  0.00  0.00    +0.000 A 
ATOM     14  C   UNL     1      -3.613  12.650  20.677  0.00  0.00    +0.000 A 
ATOM     15  C   UNL     1      -2.191  12.711  20.366  0.00  0.00    +0.000 A 
ATOM     16  C   UNL     1      -1.246  12.712  21.401  0.00  0.00    +0.000 A 
ATOM     17  C   UNL     1      -1.653  12.644  22.725  0.00  0.00    +0.000 A 
ATOM     18  C   UNL     1      -3.012  12.578  23.023  0.00  0.00    +0.000 A 
ATOM     19  C   UNL     1      -3.993  12.586  22.043  0.00  0.00    +0.000 A 
ATOM     20  N   UNL     1      -5.269  12.528  22.478  0.00  0.00    +0.000 NA
ENDBRANCH   9  15
ENDBRANCH   8   9
ENDBRANCH   7   8
ENDBRANCH   1   7
BRANCH   4  21
ATOM     21  C   UNL     1       1.667   6.283  18.546  0.00  0.00    +0.000 C 
BRANCH  21  22
ATOM     22  C   UNL     1       2.410   5.019  18.186  0.00  0.00    +0.000 A 
ATOM     23  C   UNL     1       1.737   3.855  17.796  0.00  0.00    +0.000 A 
ATOM     24  C   UNL     1       2.457   2.698  17.486  0.00  0.00    +0.000 A 
ATOM     25  C   UNL     1       3.851   2.688  17.562  0.00  0.00    +0.000 A 
ATOM     26  C   UNL     1       4.526   3.836  17.975  0.00  0.00    +0.000 A 
ATOM     27  C   UNL     1       3.811   4.992  18.283  0.00  0.00    +0.000 A 
BRANCH  26  28
ATOM     28  N   UNL     1       5.951   3.865  18.058  0.00  0.00    +0.000 N 
ATOM     29  H   UNL     1       6.392   2.944  18.073  0.00  0.00    +0.000 HD
BRANCH  28  30
ATOM     30  S   UNL     1       6.777   4.837  16.944  0.00  0.00    +0.000 S 
ATOM     31  O   UNL     1       7.814   3.977  16.402  0.00  0.00    +0.000 OA
ATOM     32  O   UNL     1       5.828   5.491  16.073  0.00  0.00    +0.000 OA
BRANCH  30  33
ATOM     33  C   UNL     1       7.571   6.082  17.992  0.00  0.00    +0.000 C 
ATOM     34  C   UNL     1       7.259   7.503  17.539  0.00  0.00    +0.000 C 
ATOM     35  C   UNL     1       7.132   5.885  19.443  0.00  0.00    +0.000 C 
ENDBRANCH  30  33
ENDBRANCH  28  30
ENDBRANCH  26  28
ENDBRANCH  21  22
ENDBRANCH   4  21
TORSDOF 9
ENDMDL
MODEL 4
REMARK VINA RESULT:      -8.3      0.779      2.158
REMARK  Name = 
REMARK  12 active torsions:
REMARK  status: ('A' for Active; 'I' for Inactive)
REMARK    1  A    between atoms: C_1  and  C_2
REMARK    2  A    between atoms: C_6  and  O_7
REMARK    3  A    between atoms: O_7  and  C_8
REMARK    4  A    between atoms: C_8  and  C_9
REMARK    5  A    between atoms: C_9  and  N_10
REMARK    6  A    between atoms: C_13  and  C_14
REMARK    7  A    between atoms: C_14  and  C_15
REMARK    8  A    between atoms: C_19  and  N_20
REMARK    9  A    between atoms: N_20  and  S_21
REMARK   10  A    between atoms: S_21  and  C_24
REMARK   11  A    between atoms: C_24  and  C_25
REMARK   12  A    between atoms: C_24  and  C_26
REMARK                            x       y       z     vdW  Elec       q    Type
REMARK                         _______ _______ _______ _____ _____    ______ ____
ROOT
ATOM      1  N   UNL     1       2.408   2.554  19.430  0.00  0.00    +0.000 NA
ATOM      2  C   UNL     1       3.175   3.057  20.584  0.00  0.00    +0.000 C 
ATOM      3  C   UNL     1       2.317   3.869  21.546  0.00  0.00    +0.000 C 
ATOM      4  C   UNL     1       1.664   5.060  20.848  0.00  0.00    +0.000 C 
ATOM      5  C   UNL     1       0.851   4.499  19.665  0.00  0.00    +0.000 C 
ATOM      6  C   UNL     1       1.700   3.626  18.719  0.00  0.00    +0.000 C 
ENDROOT
BRANCH   1   7
ATOM      7  C   UNL     1       3.252   1.742  18.507  0.00  0.00    +0.000 C 
BRANCH   7   8
ATOM      8  C   UNL     1       4.348   2.637  17.915  0.00  0.00    +0.000 C 
BRANCH   8   9
ATOM      9  O   UNL     1       4.631   2.533  16.536  0.00  0.00    +0.000 OA
BRANCH   9  15
ATOM     10  C   UNL     1       8.245   8.025  18.359  0.00  0.00    +0.000 C 
ATOM     11  C   UNL     1       7.504   6.840  17.825  0.00  0.00    +0.000 A 
ATOM     12  C   UNL     1       6.771   6.049  18.673  0.00  0.00    +0.000 A 
ATOM     13  C   UNL     1       6.090   4.964  18.131  0.00  0.00    +0.000 A 
ATOM     14  C   UNL     1       6.113   4.635  16.742  0.00  0.00    +0.000 A 
ATOM     15  C   UNL     1       5.453   3.544  16.037  0.00  0.00    +0.000 A 
ATOM     16  C   UNL     1       5.610   3.407  14.651  0.00  0.00    +0.000 A 
ATOM     17  C   UNL     1       6.402   4.298  13.942  0.00  0.00    +0.000 A 
ATOM     18  C   UNL     1       7.040   5.337  14.616  0.00  0.00    +0.000 A 
ATOM     19  C   UNL     1       6.911   5.530  15.983  0.00  0.00    +0.000 A 
ATOM     20  N   UNL     1       7.577   6.584  16.500  0.00  0.00    +0.000 NA
ENDBRANCH   9  15
ENDBRANCH   8   9
ENDBRANCH   7   8
ENDBRANCH   1   7
BRANCH   4  21
ATOM     21  C   UNL     1       2.662   6.133  20.354  0.00  0.00    +0.000 C 
BRANCH  21  22
ATOM     22  C   UNL     1       2.063   7.394  19.780  0.00  0.00    +0.000 A 
ATOM     23  C   UNL     1       2.406   7.858  18.504  0.00  0.00    +0.000 A 
ATOM     24  C   UNL     1       1.843   9.038  18.011  0.00  0.00    +0.000 A 
ATOM     25  C   UNL     1       0.937   9.768  18.781  0.00  0.00    +0.000 A 
ATOM     26  C   UNL     1       0.609   9.325  20.062  0.00  0.00    +0.000 A 
ATOM     27  C   UNL     1       1.166   8.148  20.556  0.00  0.00    +0.000 A 
BRANCH  26  28
ATOM     28  N   UNL     1      -0.320  10.042  20.876  0.00  0.00    +0.000 N 
ATOM     29  H   UNL     1      -0.698   9.504  21.659  0.00  0.00    +0.000 HD
BRANCH  28  30
ATOM     30  S   UNL     1       0.157  11.562  21.450  0.00  0.00    +0.000 S 
ATOM     31  O   UNL     1      -0.371  11.629  22.801  0.00  0.00    +0.000 OA
ATOM     32  O   UNL     1       1.566  11.756  21.195  0.00  0.00    +0.000 OA
BRANCH  30  33
ATOM     33  C   UNL     1      -0.792  12.708  20.419  0.00  0.00    +0.000 C 
ATOM     34  C   UNL     1       0.061  13.348  19.330  0.00  0.00    +0.000 C 
ATOM     35  C   UNL     1      -1.978  11.973  19.794  0.00  0.00    +0.000 C 
ENDBRANCH  30  33
ENDBRANCH  28  30
ENDBRANCH  26  28
ENDBRANCH  21  22
ENDBRANCH   4  21
TORSDOF 9
ENDMDL
MODEL 5
REMARK VINA RESULT:      -8.3      2.911     10.264
REMARK  Name = 
REMARK  12 active torsions:
REMARK  status: ('A' for Active; 'I' for Inactive)
REMARK    1  A    between atoms: C_1  and  C_2
REMARK    2  A    between atoms: C_6  and  O_7
REMARK    3  A    between atoms: O_7  and  C_8
REMARK    4  A    between atoms: C_8  and  C_9
REMARK    5  A    between atoms: C_9  and  N_10
REMARK    6  A    between atoms: C_13  and  C_14
REMARK    7  A    between atoms: C_14  and  C_15
REMARK    8  A    between atoms: C_19  and  N_20
REMARK    9  A    between atoms: N_20  and  S_21
REMARK   10  A    between atoms: S_21  and  C_24
REMARK   11  A    between atoms: C_24  and  C_25
REMARK   12  A    between atoms: C_24  and  C_26
REMARK                            x       y       z     vdW  Elec       q    Type
REMARK                         _______ _______ _______ _____ _____    ______ ____
ROOT
ATOM      1  N   UNL     1       0.965  10.240  19.859  0.00  0.00    +0.000 NA
ATOM      2  C   UNL     1       1.377  10.394  18.452  0.00  0.00    +0.000 C 
ATOM      3  C   UNL     1       1.060   9.161  17.613  0.00  0.00    +0.000 C 
ATOM      4  C   UNL     1       1.732   7.911  18.176  0.00  0.00    +0.000 C 
ATOM      5  C   UNL     1       1.262   7.766  19.636  0.00  0.00    +0.000 C 
ATOM      6  C   UNL     1       1.525   9.032  20.476  0.00  0.00    +0.000 C 
ENDROOT
BRANCH   1   7
ATOM      7  C   UNL     1       1.259  11.460  20.664  0.00  0.00    +0.000 C 
BRANCH   7   8
ATOM      8  C   UNL     1      -0.052  12.207  20.936  0.00  0.00    +0.000 C 
BRANCH   8   9
ATOM      9  O   UNL     1      -0.597  13.010  19.912  0.00  0.00    +0.000 OA
BRANCH   9  15
ATOM     10  C   UNL     1      -7.252  12.177  21.157  0.00  0.00    +0.000 C 
ATOM     11  C   UNL     1      -5.818  12.307  20.752  0.00  0.00    +0.000 A 
ATOM     12  C   UNL     1      -4.909  12.871  21.611  0.00  0.00    +0.000 A 
ATOM     13  C   UNL     1      -3.585  12.962  21.195  0.00  0.00    +0.000 A 
ATOM     14  C   UNL     1      -3.125  12.497  19.926  0.00  0.00    +0.000 A 
ATOM     15  C   UNL     1      -1.782  12.522  19.362  0.00  0.00    +0.000 A 
ATOM     16  C   UNL     1      -1.550  12.001  18.082  0.00  0.00    +0.000 A 
ATOM     17  C   UNL     1      -2.593  11.471  17.338  0.00  0.00    +0.000 A 
ATOM     18  C   UNL     1      -3.879  11.454  17.873  0.00  0.00    +0.000 A 
ATOM     19  C   UNL     1      -4.167  11.942  19.139  0.00  0.00    +0.000 A 
ATOM     20  N   UNL     1      -5.455  11.852  19.532  0.00  0.00    +0.000 NA
ENDBRANCH   9  15
ENDBRANCH   8   9
ENDBRANCH   7   8
ENDBRANCH   1   7
BRANCH   4  21
ATOM     21  C   UNL     1       3.277   7.934  18.107  0.00  0.00    +0.000 C 
BRANCH  21  22
ATOM     22  C   UNL     1       3.941   6.709  17.529  0.00  0.00    +0.000 A 
ATOM     23  C   UNL     1       5.110   6.796  16.764  0.00  0.00    +0.000 A 
ATOM     24  C   UNL     1       5.690   5.641  16.231  0.00  0.00    +0.000 A 
ATOM     25  C   UNL     1       5.112   4.390  16.453  0.00  0.00    +0.000 A 
ATOM     26  C   UNL     1       3.933   4.299  17.193  0.00  0.00    +0.000 A 
ATOM     27  C   UNL     1       3.354   5.447  17.728  0.00  0.00    +0.000 A 
BRANCH  26  28
ATOM     28  N   UNL     1       3.317   3.035  17.446  0.00  0.00    +0.000 N 
ATOM     29  H   UNL     1       3.474   2.335  16.718  0.00  0.00    +0.000 HD
BRANCH  28  30
ATOM     30  S   UNL     1       3.605   2.316  18.952  0.00  0.00    +0.000 S 
ATOM     31  O   UNL     1       3.817   0.910  18.655  0.00  0.00    +0.000 OA
ATOM     32  O   UNL     1       4.597   3.079  19.673  0.00  0.00    +0.000 OA
BRANCH  30  33
ATOM     33  C   UNL     1       2.011   2.476  19.797  0.00  0.00    +0.000 C 
ATOM     34  C   UNL     1       1.948   3.715  20.682  0.00  0.00    +0.000 C 
ATOM     35  C   UNL     1       0.885   2.512  18.763  0.00  0.00    +0.000 C 
ENDBRANCH  30  33
ENDBRANCH  28  30
ENDBRANCH  26  28
ENDBRANCH  21  22
ENDBRANCH   4  21
TORSDOF 9
ENDMDL
MODEL 6
REMARK VINA RESULT:      -8.2      3.004      9.249
REMARK  Name = 
REMARK  12 active torsions:
REMARK  status: ('A' for Active; 'I' for Inactive)
REMARK    1  A    between atoms: C_1  and  C_2
REMARK    2  A    between atoms: C_6  and  O_7
REMARK    3  A    between atoms: O_7  and  C_8
REMARK    4  A    between atoms: C_8  and  C_9
REMARK    5  A    between atoms: C_9  and  N_10
REMARK    6  A    between atoms: C_13  and  C_14
REMARK    7  A    between atoms: C_14  and  C_15
REMARK    8  A    between atoms: C_19  and  N_20
REMARK    9  A    between atoms: N_20  and  S_21
REMARK   10  A    between atoms: S_21  and  C_24
REMARK   11  A    between atoms: C_24  and  C_25
REMARK   12  A    between atoms: C_24  and  C_26
REMARK                            x       y       z     vdW  Elec       q    Type
REMARK                         _______ _______ _______ _____ _____    ______ ____
ROOT
ATOM      1  N   UNL     1       0.394   9.778  19.492  0.00  0.00    +0.000 NA
ATOM      2  C   UNL     1       0.519   8.592  20.358  0.00  0.00    +0.000 C 
ATOM      3  C   UNL     1       1.937   8.033  20.379  0.00  0.00    +0.000 C 
ATOM      4  C   UNL     1       2.414   7.658  18.977  0.00  0.00    +0.000 C 
ATOM      5  C   UNL     1       2.294   8.923  18.107  0.00  0.00    +0.000 C 
ATOM      6  C   UNL     1       0.876   9.529  18.128  0.00  0.00    +0.000 C 
ENDROOT
BRANCH   1   7
ATOM      7  C   UNL     1      -0.992  10.330  19.497  0.00  0.00    +0.000 C 
BRANCH   7   8
ATOM      8  C   UNL     1      -1.122  11.363  18.371  0.00  0.00    +0.000 C 
BRANCH   8   9
ATOM      9  O   UNL     1      -1.451  12.693  18.711  0.00  0.00    +0.000 OA
BRANCH   9  15
ATOM     10  C   UNL     1       4.921  14.959  19.607  0.00  0.00    +0.000 C 
ATOM     11  C   UNL     1       3.495  14.510  19.544  0.00  0.00    +0.000 A 
ATOM     12  C   UNL     1       3.000  13.953  18.392  0.00  0.00    +0.000 A 
ATOM     13  C   UNL     1       1.671  13.542  18.383  0.00  0.00    +0.000 A 
ATOM     14  C   UNL     1       0.801  13.667  19.507  0.00  0.00    +0.000 A 
ATOM     15  C   UNL     1      -0.597  13.281  19.644  0.00  0.00    +0.000 A 
ATOM     16  C   UNL     1      -1.268  13.492  20.856  0.00  0.00    +0.000 A 
ATOM     17  C   UNL     1      -0.614  14.081  21.928  0.00  0.00    +0.000 A 
ATOM     18  C   UNL     1       0.720  14.458  21.796  0.00  0.00    +0.000 A 
ATOM     19  C   UNL     1       1.439  14.261  20.627  0.00  0.00    +0.000 A 
ATOM     20  N   UNL     1       2.726  14.666  20.645  0.00  0.00    +0.000 NA
ENDBRANCH   9  15
ENDBRANCH   8   9
ENDBRANCH   7   8
ENDBRANCH   1   7
BRANCH   4  21
ATOM     21  C   UNL     1       1.637   6.486  18.335  0.00  0.00    +0.000 C 
BRANCH  21  22
ATOM     22  C   UNL     1       2.412   5.210  18.110  0.00  0.00    +0.000 A 
ATOM     23  C   UNL     1       1.782   4.028  17.702  0.00  0.00    +0.000 A 
ATOM     24  C   UNL     1       2.529   2.860  17.519  0.00  0.00    +0.000 A 
ATOM     25  C   UNL     1       3.907   2.858  17.742  0.00  0.00    +0.000 A 
ATOM     26  C   UNL     1       4.537   4.025  18.173  0.00  0.00    +0.000 A 
ATOM     27  C   UNL     1       3.796   5.191  18.353  0.00  0.00    +0.000 A 
BRANCH  26  28
ATOM     28  N   UNL     1       5.946   4.062  18.404  0.00  0.00    +0.000 N 
ATOM     29  H   UNL     1       6.369   3.148  18.575  0.00  0.00    +0.000 HD
BRANCH  28  30
ATOM     30  S   UNL     1       6.899   4.892  17.276  0.00  0.00    +0.000 S 
ATOM     31  O   UNL     1       6.942   6.258  17.764  0.00  0.00    +0.000 OA
ATOM     32  O   UNL     1       8.116   4.153  17.033  0.00  0.00    +0.000 OA
BRANCH  30  33
ATOM     33  C   UNL     1       5.883   4.862  15.777  0.00  0.00    +0.000 C 
ATOM     34  C   UNL     1       5.350   6.243  15.412  0.00  0.00    +0.000 C 
ATOM     35  C   UNL     1       6.699   4.291  14.617  0.00  0.00    +0.000 C 
ENDBRANCH  30  33
ENDBRANCH  28  30
ENDBRANCH  26  28
ENDBRANCH  21  22
ENDBRANCH   4  21
TORSDOF 9
ENDMDL
MODEL 7
REMARK VINA RESULT:      -8.2      1.271      1.550
REMARK  Name = 
REMARK  12 active torsions:
REMARK  status: ('A' for Active; 'I' for Inactive)
REMARK    1  A    between atoms: C_1  and  C_2
REMARK    2  A    between atoms: C_6  and  O_7
REMARK    3  A    between atoms: O_7  and  C_8
REMARK    4  A    between atoms: C_8  and  C_9
REMARK    5  A    between atoms: C_9  and  N_10
REMARK    6  A    between atoms: C_13  and  C_14
REMARK    7  A    between atoms: C_14  and  C_15
REMARK    8  A    between atoms: C_19  and  N_20
REMARK    9  A    between atoms: N_20  and  S_21
REMARK   10  A    between atoms: S_21  and  C_24
REMARK   11  A    between atoms: C_24  and  C_25
REMARK   12  A    between atoms: C_24  and  C_26
REMARK                            x       y       z     vdW  Elec       q    Type
REMARK                         _______ _______ _______ _____ _____    ______ ____
ROOT
ATOM      1  N   UNL     1       1.723   2.489  19.464  0.00  0.00    +0.000 NA
ATOM      2  C   UNL     1       2.680   2.738  20.558  0.00  0.00    +0.000 C 
ATOM      3  C   UNL     1       2.131   3.700  21.604  0.00  0.00    +0.000 C 
ATOM      4  C   UNL     1       1.747   5.044  20.986  0.00  0.00    +0.000 C 
ATOM      5  C   UNL     1       0.731   4.750  19.867  0.00  0.00    +0.000 C 
ATOM      6  C   UNL     1       1.256   3.730  18.836  0.00  0.00    +0.000 C 
ENDROOT
BRANCH   1   7
ATOM      7  C   UNL     1       2.261   1.528  18.458  0.00  0.00    +0.000 C 
BRANCH   7   8
ATOM      8  C   UNL     1       3.685   1.950  18.077  0.00  0.00    +0.000 C 
BRANCH   8   9
ATOM      9  O   UNL     1       3.888   2.607  16.844  0.00  0.00    +0.000 OA
BRANCH   9  15
ATOM     10  C   UNL     1       8.393   5.759  12.807  0.00  0.00    +0.000 C 
ATOM     11  C   UNL     1       7.456   5.149  13.801  0.00  0.00    +0.000 A 
ATOM     12  C   UNL     1       6.523   4.230  13.391  0.00  0.00    +0.000 A 
ATOM     13  C   UNL     1       5.679   3.682  14.352  0.00  0.00    +0.000 A 
ATOM     14  C   UNL     1       5.738   4.023  15.737  0.00  0.00    +0.000 A 
ATOM     15  C   UNL     1       4.931   3.533  16.847  0.00  0.00    +0.000 A 
ATOM     16  C   UNL     1       5.162   4.006  18.145  0.00  0.00    +0.000 A 
ATOM     17  C   UNL     1       6.150   4.950  18.384  0.00  0.00    +0.000 A 
ATOM     18  C   UNL     1       6.917   5.425  17.323  0.00  0.00    +0.000 A 
ATOM     19  C   UNL     1       6.742   4.985  16.019  0.00  0.00    +0.000 A 
ATOM     20  N   UNL     1       7.563   5.525  15.094  0.00  0.00    +0.000 NA
ENDBRANCH   9  15
ENDBRANCH   8   9
ENDBRANCH   7   8
ENDBRANCH   1   7
BRANCH   4  21
ATOM     21  C   UNL     1       2.943   5.851  20.430  0.00  0.00    +0.000 C 
BRANCH  21  22
ATOM     22  C   UNL     1       2.610   6.966  19.469  0.00  0.00    +0.000 A 
ATOM     23  C   UNL     1       2.989   6.915  18.122  0.00  0.00    +0.000 A 
ATOM     24  C   UNL     1       2.677   7.973  17.263  0.00  0.00    +0.000 A 
ATOM     25  C   UNL     1       1.990   9.092  17.737  0.00  0.00    +0.000 A 
ATOM     26  C   UNL     1       1.633   9.161  19.083  0.00  0.00    +0.000 A 
ATOM     27  C   UNL     1       1.939   8.107  19.941  0.00  0.00    +0.000 A 
BRANCH  26  28
ATOM     28  N   UNL     1       0.924  10.287  19.602  0.00  0.00    +0.000 N 
ATOM     29  H   UNL     1       1.360  11.189  19.402  0.00  0.00    +0.000 HD
BRANCH  28  30
ATOM     30  S   UNL     1      -0.728  10.399  19.244  0.00  0.00    +0.000 S 
ATOM     31  O   UNL     1      -0.833   9.995  17.854  0.00  0.00    +0.000 OA
ATOM     32  O   UNL     1      -1.493   9.729  20.270  0.00  0.00    +0.000 OA
BRANCH  30  33
ATOM     33  C   UNL     1      -1.050  12.179  19.338  0.00  0.00    +0.000 C 
ATOM     34  C   UNL     1      -2.346  12.494  20.075  0.00  0.00    +0.000 C 
ATOM     35  C   UNL     1       0.127  12.876  20.022  0.00  0.00    +0.000 C 
ENDBRANCH  30  33
ENDBRANCH  28  30
ENDBRANCH  26  28
ENDBRANCH  21  22
ENDBRANCH   4  21
TORSDOF 9
ENDMDL
MODEL 8
REMARK VINA RESULT:      -8.2      1.380      2.376
REMARK  Name = 
REMARK  12 active torsions:
REMARK  status: ('A' for Active; 'I' for Inactive)
REMARK    1  A    between atoms: C_1  and  C_2
REMARK    2  A    between atoms: C_6  and  O_7
REMARK    3  A    between atoms: O_7  and  C_8
REMARK    4  A    between atoms: C_8  and  C_9
REMARK    5  A    between atoms: C_9  and  N_10
REMARK    6  A    between atoms: C_13  and  C_14
REMARK    7  A    between atoms: C_14  and  C_15
REMARK    8  A    between atoms: C_19  and  N_20
REMARK    9  A    between atoms: N_20  and  S_21
REMARK   10  A    between atoms: S_21  and  C_24
REMARK   11  A    between atoms: C_24  and  C_25
REMARK   12  A    between atoms: C_24  and  C_26
REMARK                            x       y       z     vdW  Elec       q    Type
REMARK                         _______ _______ _______ _____ _____    ______ ____
ROOT
ATOM      1  N   UNL     1       2.240   2.222  19.579  0.00  0.00    +0.000 NA
ATOM      2  C   UNL     1       2.998   2.772  20.717  0.00  0.00    +0.000 C 
ATOM      3  C   UNL     1       2.182   3.768  21.534  0.00  0.00    +0.000 C 
ATOM      4  C   UNL     1       1.693   4.932  20.675  0.00  0.00    +0.000 C 
ATOM      5  C   UNL     1       0.887   4.325  19.511  0.00  0.00    +0.000 C 
ATOM      6  C   UNL     1       1.685   3.273  18.716  0.00  0.00    +0.000 C 
ENDROOT
BRANCH   1   7
ATOM      7  C   UNL     1       3.040   1.233  18.800  0.00  0.00    +0.000 C 
BRANCH   7   8
ATOM      8  C   UNL     1       3.932   1.984  17.805  0.00  0.00    +0.000 C 
BRANCH   8   9
ATOM      9  O   UNL     1       4.937   2.837  18.309  0.00  0.00    +0.000 OA
BRANCH   9  15
ATOM     10  C   UNL     1       8.511   8.642  18.055  0.00  0.00    +0.000 C 
ATOM     11  C   UNL     1       7.687   7.397  17.975  0.00  0.00    +0.000 A 
ATOM     12  C   UNL     1       7.666   6.517  19.028  0.00  0.00    +0.000 A 
ATOM     13  C   UNL     1       6.877   5.377  18.912  0.00  0.00    +0.000 A 
ATOM     14  C   UNL     1       6.090   5.078  17.759  0.00  0.00    +0.000 A 
ATOM     15  C   UNL     1       5.222   3.938  17.500  0.00  0.00    +0.000 A 
ATOM     16  C   UNL     1       4.529   3.844  16.286  0.00  0.00    +0.000 A 
ATOM     17  C   UNL     1       4.672   4.827  15.317  0.00  0.00    +0.000 A 
ATOM     18  C   UNL     1       5.509   5.914  15.560  0.00  0.00    +0.000 A 
ATOM     19  C   UNL     1       6.209   6.067  16.747  0.00  0.00    +0.000 A 
ATOM     20  N   UNL     1       6.973   7.174  16.849  0.00  0.00    +0.000 NA
ENDBRANCH   9  15
ENDBRANCH   8   9
ENDBRANCH   7   8
ENDBRANCH   1   7
BRANCH   4  21
ATOM     21  C   UNL     1       2.821   5.839  20.133  0.00  0.00    +0.000 C 
BRANCH  21  22
ATOM     22  C   UNL     1       2.391   7.139  19.497  0.00  0.00    +0.000 A 
ATOM     23  C   UNL     1       2.478   7.348  18.116  0.00  0.00    +0.000 A 
ATOM     24  C   UNL     1       2.085   8.570  17.563  0.00  0.00    +0.000 A 
ATOM     25  C   UNL     1       1.605   9.595  18.379  0.00  0.00    +0.000 A 
ATOM     26  C   UNL     1       1.539   9.403  19.759  0.00  0.00    +0.000 A 
ATOM     27  C   UNL     1       1.927   8.185  20.313  0.00  0.00    +0.000 A 
BRANCH  26  28
ATOM     28  N   UNL     1       1.046  10.427  20.625  0.00  0.00    +0.000 N 
ATOM     29  H   UNL     1       1.348  11.371  20.376  0.00  0.00    +0.000 HD
BRANCH  28  30
ATOM     30  S   UNL     1      -0.620  10.458  20.924  0.00  0.00    +0.000 S 
ATOM     31  O   UNL     1      -1.229  10.071  19.665  0.00  0.00    +0.000 OA
ATOM     32  O   UNL     1      -0.908   9.733  22.140  0.00  0.00    +0.000 OA
BRANCH  30  33
ATOM     33  C   UNL     1      -0.957  12.217  21.194  0.00  0.00    +0.000 C 
ATOM     34  C   UNL     1       0.221  13.099  20.798  0.00  0.00    +0.000 C 
ATOM     35  C   UNL     1      -2.206  12.625  20.411  0.00  0.00    +0.000 C 
ENDBRANCH  30  33
ENDBRANCH  28  30
ENDBRANCH  26  28
ENDBRANCH  21  22
ENDBRANCH   4  21
TORSDOF 9
ENDMDL
MODEL 9
REMARK VINA RESULT:      -8.2      3.006     10.358
REMARK  Name = 
REMARK  12 active torsions:
REMARK  status: ('A' for Active; 'I' for Inactive)
REMARK    1  A    between atoms: C_1  and  C_2
REMARK    2  A    between atoms: C_6  and  O_7
REMARK    3  A    between atoms: O_7  and  C_8
REMARK    4  A    between atoms: C_8  and  C_9
REMARK    5  A    between atoms: C_9  and  N_10
REMARK    6  A    between atoms: C_13  and  C_14
REMARK    7  A    between atoms: C_14  and  C_15
REMARK    8  A    between atoms: C_19  and  N_20
REMARK    9  A    between atoms: N_20  and  S_21
REMARK   10  A    between atoms: S_21  and  C_24
REMARK   11  A    between atoms: C_24  and  C_25
REMARK   12  A    between atoms: C_24  and  C_26
REMARK                            x       y       z     vdW  Elec       q    Type
REMARK                         _______ _______ _______ _____ _____    ______ ____
ROOT
ATOM      1  N   UNL     1       1.214   8.673  20.469  0.00  0.00    +0.000 NA
ATOM      2  C   UNL     1       1.546   9.584  19.358  0.00  0.00    +0.000 C 
ATOM      3  C   UNL     1       1.337   8.938  17.993  0.00  0.00    +0.000 C 
ATOM      4  C   UNL     1       2.172   7.668  17.839  0.00  0.00    +0.000 C 
ATOM      5  C   UNL     1       1.783   6.731  18.999  0.00  0.00    +0.000 C 
ATOM      6  C   UNL     1       1.934   7.397  20.381  0.00  0.00    +0.000 C 
ENDROOT
BRANCH   1   7
ATOM      7  C   UNL     1       1.399   9.323  21.799  0.00  0.00    +0.000 C 
BRANCH   7   8
ATOM      8  C   UNL     1       0.094  10.019  22.201  0.00  0.00    +0.000 C 
BRANCH   8   9
ATOM      9  O   UNL     1      -0.001  11.418  22.042  0.00  0.00    +0.000 OA
BRANCH   9  15
ATOM     10  C   UNL     1      -6.293  13.322  23.868  0.00  0.00    +0.000 C 
ATOM     11  C   UNL     1      -4.950  12.938  23.332  0.00  0.00    +0.000 A 
ATOM     12  C   UNL     1      -3.957  12.537  24.189  0.00  0.00    +0.000 A 
ATOM     13  C   UNL     1      -2.728  12.180  23.645  0.00  0.00    +0.000 A 
ATOM     14  C   UNL     1      -2.449  12.208  22.245  0.00  0.00    +0.000 A 
ATOM     15  C   UNL     1      -1.224  11.862  21.537  0.00  0.00    +0.000 A 
ATOM     16  C   UNL     1      -1.169  11.958  20.140  0.00  0.00    +0.000 A 
ATOM     17  C   UNL     1      -2.272  12.394  19.421  0.00  0.00    +0.000 A 
ATOM     18  C   UNL     1      -3.442  12.733  20.098  0.00  0.00    +0.000 A 
ATOM     19  C   UNL     1      -3.560  12.645  21.477  0.00  0.00    +0.000 A 
ATOM     20  N   UNL     1      -4.755  12.995  21.995  0.00  0.00    +0.000 NA
ENDBRANCH   9  15
ENDBRANCH   8   9
ENDBRANCH   7   8
ENDBRANCH   1   7
BRANCH   4  21
ATOM     21  C   UNL     1       3.699   7.909  17.830  0.00  0.00    +0.000 C 
BRANCH  21  22
ATOM     22  C   UNL     1       4.562   6.727  17.459  0.00  0.00    +0.000 A 
ATOM     23  C   UNL     1       5.881   6.888  17.017  0.00  0.00    +0.000 A 
ATOM     24  C   UNL     1       6.646   5.772  16.667  0.00  0.00    +0.000 A 
ATOM     25  C   UNL     1       6.107   4.488  16.751  0.00  0.00    +0.000 A 
ATOM     26  C   UNL     1       4.786   4.322  17.167  0.00  0.00    +0.000 A 
ATOM     27  C   UNL     1       4.021   5.432  17.519  0.00  0.00    +0.000 A 
BRANCH  26  28
ATOM     28  N   UNL     1       4.203   3.022  17.272  0.00  0.00    +0.000 N 
ATOM     29  H   UNL     1       4.681   2.300  16.730  0.00  0.00    +0.000 HD
BRANCH  28  30
ATOM     30  S   UNL     1       3.915   2.421  18.829  0.00  0.00    +0.000 S 
ATOM     31  O   UNL     1       3.739   0.992  18.646  0.00  0.00    +0.000 OA
ATOM     32  O   UNL     1       4.912   2.935  19.740  0.00  0.00    +0.000 OA
BRANCH  30  33
ATOM     33  C   UNL     1       2.306   3.135  19.254  0.00  0.00    +0.000 C 
ATOM     34  C   UNL     1       1.145   2.265  18.786  0.00  0.00    +0.000 C 
ATOM     35  C   UNL     1       2.224   3.350  20.766  0.00  0.00    +0.000 C 
ENDBRANCH  30  33
ENDBRANCH  28  30
ENDBRANCH  26  28
ENDBRANCH  21  22
ENDBRANCH   4  21
TORSDOF 9
ENDMDL
