MODEL 1
REMARK VINA RESULT:      -6.5      0.000      0.000
REMARK  Name = 
REMARK  3 active torsions:
REMARK  status: ('A' for Active; 'I' for Inactive)
REMARK    1  A    between atoms: C_5  and  S_6
REMARK    2  A    between atoms: S_6  and  C_7
REMARK    3  A    between atoms: C_7  and  C_8
REMARK                            x       y       z     vdW  Elec       q    Type
REMARK                         _______ _______ _______ _____ _____    ______ ____
ROOT
ATOM      1  S   UNL     1       5.137   6.430  16.440  0.00  0.00    +0.000 S 
ENDROOT
BRANCH   1   6
ATOM      2 BR   UNL     1       1.205   3.082  20.472  0.00  0.00    +0.000 Br
ATOM      3  C   UNL     1       2.358   4.072  19.315  0.00  0.00    +0.000 A 
ATOM      4  C   UNL     1       2.790   5.344  19.690  0.00  0.00    +0.000 A 
ATOM      5  C   UNL     1       3.630   6.078  18.849  0.00  0.00    +0.000 A 
ATOM      6  C   UNL     1       4.052   5.547  17.610  0.00  0.00    +0.000 A 
ATOM      7  C   UNL     1       3.610   4.263  17.248  0.00  0.00    +0.000 A 
ATOM      8  C   UNL     1       2.768   3.530  18.094  0.00  0.00    +0.000 A 
ENDBRANCH   1   6
BRANCH   1   9
ATOM      9  C   UNL     1       6.448   5.177  16.203  0.00  0.00    +0.000 C 
BRANCH   9  10
ATOM     10  C   UNL     1       6.657   4.845  14.756  0.00  0.00    +0.000 A 
ATOM     11  C   UNL     1       5.881   3.865  14.114  0.00  0.00    +0.000 A 
ATOM     12  C   UNL     1       6.141   3.556  12.777  0.00  0.00    +0.000 A 
ATOM     13  C   UNL     1       7.162   4.218  12.094  0.00  0.00    +0.000 A 
ATOM     14  C   UNL     1       7.911   5.190  12.761  0.00  0.00    +0.000 A 
ATOM     15  N   UNL     1       7.646   5.477  14.062  0.00  0.00    +0.000 NA
ENDBRANCH   9  10
ENDBRANCH   1   9
TORSDOF 3
ENDMDL
MODEL 2
REMARK VINA RESULT:      -6.4      2.026      3.428
REMARK  Name = 
REMARK  3 active torsions:
REMARK  status: ('A' for Active; 'I' for Inactive)
REMARK    1  A    between atoms: C_5  and  S_6
REMARK    2  A    between atoms: S_6  and  C_7
REMARK    3  A    between atoms: C_7  and  C_8
REMARK                            x       y       z     vdW  Elec       q    Type
REMARK                         _______ _______ _______ _____ _____    ______ ____
ROOT
ATOM      1  S   UNL     1       5.207   4.335  15.238  0.00  0.00    +0.000 S 
ENDROOT
BRANCH   1   6
ATOM      2 BR   UNL     1       2.051   4.340  20.980  0.00  0.00    +0.000 Br
ATOM      3  C   UNL     1       2.976   4.361  19.309  0.00  0.00    +0.000 A 
ATOM      4  C   UNL     1       3.229   5.577  18.673  0.00  0.00    +0.000 A 
ATOM      5  C   UNL     1       3.902   5.604  17.448  0.00  0.00    +0.000 A 
ATOM      6  C   UNL     1       4.333   4.405  16.838  0.00  0.00    +0.000 A 
ATOM      7  C   UNL     1       4.072   3.190  17.492  0.00  0.00    +0.000 A 
ATOM      8  C   UNL     1       3.398   3.167  18.720  0.00  0.00    +0.000 A 
ENDBRANCH   1   6
BRANCH   1   9
ATOM      9  C   UNL     1       6.925   4.093  15.817  0.00  0.00    +0.000 C 
BRANCH   9  10
ATOM     10  C   UNL     1       7.332   5.125  16.825  0.00  0.00    +0.000 A 
ATOM     11  C   UNL     1       7.679   4.764  18.138  0.00  0.00    +0.000 A 
ATOM     12  C   UNL     1       8.007   5.763  19.057  0.00  0.00    +0.000 A 
ATOM     13  C   UNL     1       7.990   7.102  18.666  0.00  0.00    +0.000 A 
ATOM     14  C   UNL     1       7.645   7.426  17.352  0.00  0.00    +0.000 A 
ATOM     15  N   UNL     1       7.326   6.441  16.472  0.00  0.00    +0.000 NA
ENDBRANCH   9  10
ENDBRANCH   1   9
TORSDOF 3
ENDMDL
MODEL 3
REMARK VINA RESULT:      -6.3      0.726      1.140
REMARK  Name = 
REMARK  3 active torsions:
REMARK  status: ('A' for Active; 'I' for Inactive)
REMARK    1  A    between atoms: C_5  and  S_6
REMARK    2  A    between atoms: S_6  and  C_7
REMARK    3  A    between atoms: C_7  and  C_8
REMARK                            x       y       z     vdW  Elec       q    Type
REMARK                         _______ _______ _______ _____ _____    ______ ____
ROOT
ATOM      1  S   UNL     1       5.399   6.549  16.803  0.00  0.00    +0.000 S 
ENDROOT
BRANCH   1   6
ATOM      2 BR   UNL     1       1.485   2.988  20.667  0.00  0.00    +0.000 Br
ATOM      3  C   UNL     1       2.639   4.007  19.535  0.00  0.00    +0.000 A 
ATOM      4  C   UNL     1       3.896   3.506  19.197  0.00  0.00    +0.000 A 
ATOM      5  C   UNL     1       4.749   4.244  18.373  0.00  0.00    +0.000 A 
ATOM      6  C   UNL     1       4.354   5.505  17.874  0.00  0.00    +0.000 A 
ATOM      7  C   UNL     1       3.085   5.995  18.223  0.00  0.00    +0.000 A 
ATOM      8  C   UNL     1       2.231   5.251  19.048  0.00  0.00    +0.000 A 
ENDBRANCH   1   6
BRANCH   1   9
ATOM      9  C   UNL     1       6.762   5.383  16.444  0.00  0.00    +0.000 C 
BRANCH   9  10
ATOM     10  C   UNL     1       6.794   4.978  15.001  0.00  0.00    +0.000 A 
ATOM     11  C   UNL     1       5.880   4.044  14.485  0.00  0.00    +0.000 A 
ATOM     12  C   UNL     1       5.976   3.662  13.145  0.00  0.00    +0.000 A 
ATOM     13  C   UNL     1       6.971   4.208  12.334  0.00  0.00    +0.000 A 
ATOM     14  C   UNL     1       7.861   5.138  12.878  0.00  0.00    +0.000 A 
ATOM     15  N   UNL     1       7.755   5.496  14.184  0.00  0.00    +0.000 NA
ENDBRANCH   9  10
ENDBRANCH   1   9
TORSDOF 3
ENDMDL
MODEL 4
REMARK VINA RESULT:      -6.2      1.085      1.085
REMARK  Name = 
REMARK  3 active torsions:
REMARK  status: ('A' for Active; 'I' for Inactive)
REMARK    1  A    between atoms: C_5  and  S_6
REMARK    2  A    between atoms: S_6  and  C_7
REMARK    3  A    between atoms: C_7  and  C_8
REMARK                            x       y       z     vdW  Elec       q    Type
REMARK                         _______ _______ _______ _____ _____    ______ ____
ROOT
ATOM      1  S   UNL     1       6.947   4.641  17.439  0.00  0.00    +0.000 S 
ENDROOT
BRANCH   1   6
ATOM      2 BR   UNL     1       1.013   3.792  20.084  0.00  0.00    +0.000 Br
ATOM      3  C   UNL     1       2.750   4.052  19.332  0.00  0.00    +0.000 A 
ATOM      4  C   UNL     1       3.571   5.068  19.820  0.00  0.00    +0.000 A 
ATOM      5  C   UNL     1       4.842   5.269  19.275  0.00  0.00    +0.000 A 
ATOM      6  C   UNL     1       5.312   4.451  18.224  0.00  0.00    +0.000 A 
ATOM      7  C   UNL     1       4.473   3.431  17.745  0.00  0.00    +0.000 A 
ATOM      8  C   UNL     1       3.200   3.231  18.294  0.00  0.00    +0.000 A 
ENDBRANCH   1   6
BRANCH   1   9
ATOM      9  C   UNL     1       6.528   5.804  16.091  0.00  0.00    +0.000 C 
BRANCH   9  10
ATOM     10  C   UNL     1       6.618   5.159  14.741  0.00  0.00    +0.000 A 
ATOM     11  C   UNL     1       5.697   4.177  14.339  0.00  0.00    +0.000 A 
ATOM     12  C   UNL     1       5.847   3.570  13.090  0.00  0.00    +0.000 A 
ATOM     13  C   UNL     1       6.903   3.942  12.256  0.00  0.00    +0.000 A 
ATOM     14  C   UNL     1       7.797   4.925  12.685  0.00  0.00    +0.000 A 
ATOM     15  N   UNL     1       7.638   5.503  13.904  0.00  0.00    +0.000 NA
ENDBRANCH   9  10
ENDBRANCH   1   9
TORSDOF 3
ENDMDL
MODEL 5
REMARK VINA RESULT:      -6.1      2.327      3.573
REMARK  Name = 
REMARK  3 active torsions:
REMARK  status: ('A' for Active; 'I' for Inactive)
REMARK    1  A    between atoms: C_5  and  S_6
REMARK    2  A    between atoms: S_6  and  C_7
REMARK    3  A    between atoms: C_7  and  C_8
REMARK                            x       y       z     vdW  Elec       q    Type
REMARK                         _______ _______ _______ _____ _____    ______ ____
ROOT
ATOM      1  S   UNL     1       4.885   4.391  15.563  0.00  0.00    +0.000 S 
ENDROOT
BRANCH   1   6
ATOM      2 BR   UNL     1       1.526   3.157  21.052  0.00  0.00    +0.000 Br
ATOM      3  C   UNL     1       2.508   3.540  19.458  0.00  0.00    +0.000 A 
ATOM      4  C   UNL     1       2.629   4.858  19.019  0.00  0.00    +0.000 A 
ATOM      5  C   UNL     1       3.342   5.148  17.853  0.00  0.00    +0.000 A 
ATOM      6  C   UNL     1       3.946   4.115  17.102  0.00  0.00    +0.000 A 
ATOM      7  C   UNL     1       3.815   2.793  17.559  0.00  0.00    +0.000 A 
ATOM      8  C   UNL     1       3.101   2.506  18.729  0.00  0.00    +0.000 A 
ENDBRANCH   1   6
BRANCH   1   9
ATOM      9  C   UNL     1       6.581   4.040  16.151  0.00  0.00    +0.000 C 
BRANCH   9  10
ATOM     10  C   UNL     1       7.083   5.094  17.092  0.00  0.00    +0.000 A 
ATOM     11  C   UNL     1       7.120   6.448  16.716  0.00  0.00    +0.000 A 
ATOM     12  C   UNL     1       7.638   7.390  17.608  0.00  0.00    +0.000 A 
ATOM     13  C   UNL     1       8.111   6.982  18.856  0.00  0.00    +0.000 A 
ATOM     14  C   UNL     1       8.055   5.629  19.199  0.00  0.00    +0.000 A 
ATOM     15  N   UNL     1       7.550   4.726  18.318  0.00  0.00    +0.000 NA
ENDBRANCH   9  10
ENDBRANCH   1   9
TORSDOF 3
ENDMDL
MODEL 6
REMARK VINA RESULT:      -6.1      1.337      1.586
REMARK  Name = 
REMARK  3 active torsions:
REMARK  status: ('A' for Active; 'I' for Inactive)
REMARK    1  A    between atoms: C_5  and  S_6
REMARK    2  A    between atoms: S_6  and  C_7
REMARK    3  A    between atoms: C_7  and  C_8
REMARK                            x       y       z     vdW  Elec       q    Type
REMARK                         _______ _______ _______ _____ _____    ______ ____
ROOT
ATOM      1  S   UNL     1       6.316   5.929  18.201  0.00  0.00    +0.000 S 
ENDROOT
BRANCH   1   6
ATOM      2 BR   UNL     1       0.787   2.490  18.926  0.00  0.00    +0.000 Br
ATOM      3  C   UNL     1       2.411   3.473  18.720  0.00  0.00    +0.000 A 
ATOM      4  C   UNL     1       3.588   2.997  19.300  0.00  0.00    +0.000 A 
ATOM      5  C   UNL     1       4.781   3.710  19.159  0.00  0.00    +0.000 A 
ATOM      6  C   UNL     1       4.813   4.921  18.432  0.00  0.00    +0.000 A 
ATOM      7  C   UNL     1       3.621   5.386  17.853  0.00  0.00    +0.000 A 
ATOM      8  C   UNL     1       2.427   4.668  17.996  0.00  0.00    +0.000 A 
ENDBRANCH   1   6
BRANCH   1   9
ATOM      9  C   UNL     1       7.382   4.728  17.326  0.00  0.00    +0.000 C 
BRANCH   9  10
ATOM     10  C   UNL     1       7.000   4.579  15.884  0.00  0.00    +0.000 A 
ATOM     11  C   UNL     1       5.951   3.731  15.492  0.00  0.00    +0.000 A 
ATOM     12  C   UNL     1       5.659   3.587  14.134  0.00  0.00    +0.000 A 
ATOM     13  C   UNL     1       6.407   4.283  13.183  0.00  0.00    +0.000 A 
ATOM     14  C   UNL     1       7.440   5.122  13.608  0.00  0.00    +0.000 A 
ATOM     15  N   UNL     1       7.711   5.248  14.933  0.00  0.00    +0.000 NA
ENDBRANCH   9  10
ENDBRANCH   1   9
TORSDOF 3
ENDMDL
MODEL 7
REMARK VINA RESULT:      -6.1      5.010      6.644
REMARK  Name = 
REMARK  3 active torsions:
REMARK  status: ('A' for Active; 'I' for Inactive)
REMARK    1  A    between atoms: C_5  and  S_6
REMARK    2  A    between atoms: S_6  and  C_7
REMARK    3  A    between atoms: C_7  and  C_8
REMARK                            x       y       z     vdW  Elec       q    Type
REMARK                         _______ _______ _______ _____ _____    ______ ____
ROOT
ATOM      1  S   UNL     1       3.456   6.332  18.022  0.00  0.00    +0.000 S 
ENDROOT
BRANCH   1   6
ATOM      2 BR   UNL     1      -0.416  11.113  20.276  0.00  0.00    +0.000 Br
ATOM      3  C   UNL     1       0.707   9.706  19.638  0.00  0.00    +0.000 A 
ATOM      4  C   UNL     1       1.142   8.713  20.517  0.00  0.00    +0.000 A 
ATOM      5  C   UNL     1       1.966   7.682  20.061  0.00  0.00    +0.000 A 
ATOM      6  C   UNL     1       2.373   7.630  18.709  0.00  0.00    +0.000 A 
ATOM      7  C   UNL     1       1.926   8.636  17.837  0.00  0.00    +0.000 A 
ATOM      8  C   UNL     1       1.098   9.668  18.297  0.00  0.00    +0.000 A 
ENDBRANCH   1   6
BRANCH   1   9
ATOM      9  C   UNL     1       2.271   4.943  17.916  0.00  0.00    +0.000 C 
BRANCH   9  10
ATOM     10  C   UNL     1       2.288   4.090  19.149  0.00  0.00    +0.000 A 
ATOM     11  C   UNL     1       1.180   4.032  20.010  0.00  0.00    +0.000 A 
ATOM     12  C   UNL     1       1.257   3.261  21.172  0.00  0.00    +0.000 A 
ATOM     13  C   UNL     1       2.426   2.558  21.466  0.00  0.00    +0.000 A 
ATOM     14  C   UNL     1       3.508   2.635  20.586  0.00  0.00    +0.000 A 
ATOM     15  N   UNL     1       3.416   3.392  19.461  0.00  0.00    +0.000 NA
ENDBRANCH   9  10
ENDBRANCH   1   9
TORSDOF 3
ENDMDL
MODEL 8
REMARK VINA RESULT:      -6.0      2.224      3.749
REMARK  Name = 
REMARK  3 active torsions:
REMARK  status: ('A' for Active; 'I' for Inactive)
REMARK    1  A    between atoms: C_5  and  S_6
REMARK    2  A    between atoms: S_6  and  C_7
REMARK    3  A    between atoms: C_7  and  C_8
REMARK                            x       y       z     vdW  Elec       q    Type
REMARK                         _______ _______ _______ _____ _____    ______ ____
ROOT
ATOM      1  S   UNL     1       5.162   4.451  15.313  0.00  0.00    +0.000 S 
ENDROOT
BRANCH   1   6
ATOM      2 BR   UNL     1       1.699   4.076  20.862  0.00  0.00    +0.000 Br
ATOM      3  C   UNL     1       2.705   4.162  19.241  0.00  0.00    +0.000 A 
ATOM      4  C   UNL     1       3.233   2.994  18.689  0.00  0.00    +0.000 A 
ATOM      5  C   UNL     1       3.973   3.047  17.506  0.00  0.00    +0.000 A 
ATOM      6  C   UNL     1       4.200   4.279  16.853  0.00  0.00    +0.000 A 
ATOM      7  C   UNL     1       3.662   5.445  17.420  0.00  0.00    +0.000 A 
ATOM      8  C   UNL     1       2.919   5.389  18.606  0.00  0.00    +0.000 A 
ENDBRANCH   1   6
BRANCH   1   9
ATOM      9  C   UNL     1       6.848   4.132  15.945  0.00  0.00    +0.000 C 
BRANCH   9  10
ATOM     10  C   UNL     1       7.252   5.117  17.001  0.00  0.00    +0.000 A 
ATOM     11  C   UNL     1       7.244   6.499  16.749  0.00  0.00    +0.000 A 
ATOM     12  C   UNL     1       7.672   7.378  17.746  0.00  0.00    +0.000 A 
ATOM     13  C   UNL     1       8.101   6.879  18.977  0.00  0.00    +0.000 A 
ATOM     14  C   UNL     1       8.091   5.500  19.196  0.00  0.00    +0.000 A 
ATOM     15  N   UNL     1       7.674   4.659  18.213  0.00  0.00    +0.000 NA
ENDBRANCH   9  10
ENDBRANCH   1   9
TORSDOF 3
ENDMDL
MODEL 9
REMARK VINA RESULT:      -6.0      3.533      6.618
REMARK  Name = 
REMARK  3 active torsions:
REMARK  status: ('A' for Active; 'I' for Inactive)
REMARK    1  A    between atoms: C_5  and  S_6
REMARK    2  A    between atoms: S_6  and  C_7
REMARK    3  A    between atoms: C_7  and  C_8
REMARK                            x       y       z     vdW  Elec       q    Type
REMARK                         _______ _______ _______ _____ _____    ______ ____
ROOT
ATOM      1  S   UNL     1       5.517   5.276  18.804  0.00  0.00    +0.000 S 
ENDROOT
BRANCH   1   6
ATOM      2 BR   UNL     1       6.447   3.674  12.519  0.00  0.00    +0.000 Br
ATOM      3  C   UNL     1       6.192   4.158  14.349  0.00  0.00    +0.000 A 
ATOM      4  C   UNL     1       7.161   4.918  15.006  0.00  0.00    +0.000 A 
ATOM      5  C   UNL     1       6.986   5.274  16.346  0.00  0.00    +0.000 A 
ATOM      6  C   UNL     1       5.831   4.871  17.053  0.00  0.00    +0.000 A 
ATOM      7  C   UNL     1       4.865   4.108  16.376  0.00  0.00    +0.000 A 
ATOM      8  C   UNL     1       5.043   3.753  15.033  0.00  0.00    +0.000 A 
ENDBRANCH   1   6
BRANCH   1   9
ATOM      9  C   UNL     1       3.771   5.811  18.705  0.00  0.00    +0.000 C 
BRANCH   9  10
ATOM     10  C   UNL     1       2.839   4.815  19.328  0.00  0.00    +0.000 A 
ATOM     11  C   UNL     1       1.918   4.094  18.551  0.00  0.00    +0.000 A 
ATOM     12  C   UNL     1       1.037   3.210  19.179  0.00  0.00    +0.000 A 
ATOM     13  C   UNL     1       1.080   3.051  20.565  0.00  0.00    +0.000 A 
ATOM     14  C   UNL     1       2.012   3.780  21.307  0.00  0.00    +0.000 A 
ATOM     15  N   UNL     1       2.860   4.638  20.680  0.00  0.00    +0.000 NA
ENDBRANCH   9  10
ENDBRANCH   1   9
TORSDOF 3
ENDMDL
