MODEL 1
REMARK VINA RESULT:      -8.0      0.000      0.000
REMARK  Name = 
REMARK  5 active torsions:
REMARK  status: ('A' for Active; 'I' for Inactive)
REMARK    1  A    between atoms: C_1  and  N_2
REMARK    2  A    between atoms: C_4  and  C_5
REMARK    3  A    between atoms: C_14  and  C_15
REMARK    4  A    between atoms: N_17  and  S_18
REMARK    5  A    between atoms: S_18  and  C_19
REMARK                            x       y       z     vdW  Elec       q    Type
REMARK                         _______ _______ _______ _____ _____    ______ ____
ROOT
ATOM      1  C   UNL     1       3.194   3.185  20.130  0.00  0.00    +0.000 C 
ATOM      2  N   UNL     1       3.623   4.067  19.066  0.00  0.00    +0.000 N 
ATOM      3  C   UNL     1       4.477   3.705  18.058  0.00  0.00    +0.000 A 
ATOM      4  C   UNL     1       4.689   4.802  17.244  0.00  0.00    +0.000 A 
ATOM      5  C   UNL     1       3.916   5.878  17.797  0.00  0.00    +0.000 A 
ATOM      6  C   UNL     1       3.726   7.232  17.452  0.00  0.00    +0.000 A 
ATOM      7  C   UNL     1       2.872   8.035  18.216  0.00  0.00    +0.000 A 
ATOM      8  C   UNL     1       2.207   7.533  19.340  0.00  0.00    +0.000 A 
ATOM      9  C   UNL     1       2.389   6.189  19.709  0.00  0.00    +0.000 A 
ATOM     10  C   UNL     1       3.249   5.387  18.927  0.00  0.00    +0.000 A 
ENDROOT
BRANCH   4  11
ATOM     11  C   UNL     1       5.549   4.762  16.066  0.00  0.00    +0.000 A 
ATOM     12  C   UNL     1       5.190   4.055  14.913  0.00  0.00    +0.000 A 
ATOM     13  C   UNL     1       6.043   4.036  13.809  0.00  0.00    +0.000 A 
ATOM     14  C   UNL     1       7.242   4.722  13.891  0.00  0.00    +0.000 A 
ATOM     15  N   UNL     1       7.629   5.421  14.977  0.00  0.00    +0.000 NA
ATOM     16  C   UNL     1       6.770   5.431  16.029  0.00  0.00    +0.000 A 
ENDBRANCH   4  11
BRANCH   8  17
ATOM     17  C   UNL     1       1.365   8.504  20.106  0.00  0.00    +0.000 C 
ATOM     18  O   UNL     1       0.788   8.157  21.124  0.00  0.00    +0.000 OA
ATOM     19  N   UNL     1       1.211   9.785  19.563  0.00  0.00    +0.000 N 
ATOM     20  H   UNL     1       1.659  10.094  18.710  0.00  0.00    +0.000 HD
BRANCH  19  21
ATOM     21  S   UNL     1       0.316  10.994  20.268  0.00  0.00    +0.000 S 
ATOM     22  C   UNL     1       0.667  12.408  19.237  0.00  0.00    +0.000 C 
ATOM     23  O   UNL     1      -1.086  10.657  20.187  0.00  0.00    +0.000 OA
ATOM     24  O   UNL     1       0.951  11.216  21.551  0.00  0.00    +0.000 OA
ENDBRANCH  19  21
ENDBRANCH   8  17
TORSDOF 3
ENDMDL
MODEL 2
REMARK VINA RESULT:      -7.8      1.302      1.628
REMARK  Name = 
REMARK  5 active torsions:
REMARK  status: ('A' for Active; 'I' for Inactive)
REMARK    1  A    between atoms: C_1  and  N_2
REMARK    2  A    between atoms: C_4  and  C_5
REMARK    3  A    between atoms: C_14  and  C_15
REMARK    4  A    between atoms: N_17  and  S_18
REMARK    5  A    between atoms: S_18  and  C_19
REMARK                            x       y       z     vdW  Elec       q    Type
REMARK                         _______ _______ _______ _____ _____    ______ ____
ROOT
ATOM      1  C   UNL     1       3.339   3.184  20.094  0.00  0.00    +0.000 C 
ATOM      2  N   UNL     1       3.742   4.055  19.010  0.00  0.00    +0.000 N 
ATOM      3  C   UNL     1       4.576   3.684  17.990  0.00  0.00    +0.000 A 
ATOM      4  C   UNL     1       4.766   4.772  17.159  0.00  0.00    +0.000 A 
ATOM      5  C   UNL     1       4.000   5.852  17.714  0.00  0.00    +0.000 A 
ATOM      6  C   UNL     1       3.797   7.201  17.357  0.00  0.00    +0.000 A 
ATOM      7  C   UNL     1       2.956   8.009  18.128  0.00  0.00    +0.000 A 
ATOM      8  C   UNL     1       2.315   7.518  19.272  0.00  0.00    +0.000 A 
ATOM      9  C   UNL     1       2.511   6.179  19.653  0.00  0.00    +0.000 A 
ATOM     10  C   UNL     1       3.359   5.372  18.863  0.00  0.00    +0.000 A 
ENDROOT
BRANCH   4  11
ATOM     11  C   UNL     1       5.602   4.721  15.964  0.00  0.00    +0.000 A 
ATOM     12  C   UNL     1       5.229   3.989  14.832  0.00  0.00    +0.000 A 
ATOM     13  C   UNL     1       6.059   3.960  13.710  0.00  0.00    +0.000 A 
ATOM     14  C   UNL     1       7.251   4.663  13.754  0.00  0.00    +0.000 A 
ATOM     15  N   UNL     1       7.650   5.387  14.819  0.00  0.00    +0.000 NA
ATOM     16  C   UNL     1       6.814   5.406  15.889  0.00  0.00    +0.000 A 
ENDBRANCH   4  11
BRANCH   8  17
ATOM     17  C   UNL     1       1.485   8.495  20.043  0.00  0.00    +0.000 C 
ATOM     18  O   UNL     1       0.711   9.241  19.466  0.00  0.00    +0.000 OA
ATOM     19  N   UNL     1       1.696   8.564  21.425  0.00  0.00    +0.000 N 
ATOM     20  H   UNL     1       2.347   7.974  21.927  0.00  0.00    +0.000 HD
BRANCH  19  21
ATOM     21  S   UNL     1       0.871   9.585  22.443  0.00  0.00    +0.000 S 
ATOM     22  C   UNL     1      -0.800   8.965  22.369  0.00  0.00    +0.000 C 
ATOM     23  O   UNL     1       1.394   9.446  23.782  0.00  0.00    +0.000 OA
ATOM     24  O   UNL     1       0.895  10.867  21.769  0.00  0.00    +0.000 OA
ENDBRANCH  19  21
ENDBRANCH   8  17
TORSDOF 3
ENDMDL
MODEL 3
REMARK VINA RESULT:      -7.8      1.470      1.897
REMARK  Name = 
REMARK  5 active torsions:
REMARK  status: ('A' for Active; 'I' for Inactive)
REMARK    1  A    between atoms: C_1  and  N_2
REMARK    2  A    between atoms: C_4  and  C_5
REMARK    3  A    between atoms: C_14  and  C_15
REMARK    4  A    between atoms: N_17  and  S_18
REMARK    5  A    between atoms: S_18  and  C_19
REMARK                            x       y       z     vdW  Elec       q    Type
REMARK                         _______ _______ _______ _____ _____    ______ ____
ROOT
ATOM      1  C   UNL     1       2.330   4.738  20.929  0.00  0.00    +0.000 C 
ATOM      2  N   UNL     1       2.900   5.337  19.742  0.00  0.00    +0.000 N 
ATOM      3  C   UNL     1       3.822   4.726  18.934  0.00  0.00    +0.000 A 
ATOM      4  C   UNL     1       4.166   5.599  17.918  0.00  0.00    +0.000 A 
ATOM      5  C   UNL     1       3.403   6.797  18.132  0.00  0.00    +0.000 A 
ATOM      6  C   UNL     1       3.317   8.040  17.471  0.00  0.00    +0.000 A 
ATOM      7  C   UNL     1       2.441   9.023  17.942  0.00  0.00    +0.000 A 
ATOM      8  C   UNL     1       1.649   8.814  19.078  0.00  0.00    +0.000 A 
ATOM      9  C   UNL     1       1.726   7.587  19.758  0.00  0.00    +0.000 A 
ATOM     10  C   UNL     1       2.611   6.600  19.269  0.00  0.00    +0.000 A 
ENDROOT
BRANCH   4  11
ATOM     11  C   UNL     1       5.127   5.262  16.874  0.00  0.00    +0.000 A 
ATOM     12  C   UNL     1       4.906   4.210  15.978  0.00  0.00    +0.000 A 
ATOM     13  C   UNL     1       5.852   3.915  14.996  0.00  0.00    +0.000 A 
ATOM     14  C   UNL     1       7.004   4.680  14.940  0.00  0.00    +0.000 A 
ATOM     15  N   UNL     1       7.259   5.707  15.777  0.00  0.00    +0.000 NA
ATOM     16  C   UNL     1       6.312   5.976  16.712  0.00  0.00    +0.000 A 
ENDBRANCH   4  11
BRANCH   8  17
ATOM     17  C   UNL     1       0.793   9.961  19.514  0.00  0.00    +0.000 C 
ATOM     18  O   UNL     1       0.413  10.793  18.706  0.00  0.00    +0.000 OA
ATOM     19  N   UNL     1       0.523  10.074  20.882  0.00  0.00    +0.000 N 
ATOM     20  H   UNL     1       0.843   9.412  21.578  0.00  0.00    +0.000 HD
BRANCH  19  21
ATOM     21  S   UNL     1      -0.405  11.278  21.552  0.00  0.00    +0.000 S 
ATOM     22  C   UNL     1      -0.970  10.548  23.080  0.00  0.00    +0.000 C 
ATOM     23  O   UNL     1       0.429  12.424  21.828  0.00  0.00    +0.000 OA
ATOM     24  O   UNL     1      -1.549  11.389  20.670  0.00  0.00    +0.000 OA
ENDBRANCH  19  21
ENDBRANCH   8  17
TORSDOF 3
ENDMDL
MODEL 4
REMARK VINA RESULT:      -7.8      1.392      1.535
REMARK  Name = 
REMARK  5 active torsions:
REMARK  status: ('A' for Active; 'I' for Inactive)
REMARK    1  A    between atoms: C_1  and  N_2
REMARK    2  A    between atoms: C_4  and  C_5
REMARK    3  A    between atoms: C_14  and  C_15
REMARK    4  A    between atoms: N_17  and  S_18
REMARK    5  A    between atoms: S_18  and  C_19
REMARK                            x       y       z     vdW  Elec       q    Type
REMARK                         _______ _______ _______ _____ _____    ______ ____
ROOT
ATOM      1  C   UNL     1       2.423   4.735  20.999  0.00  0.00    +0.000 C 
ATOM      2  N   UNL     1       2.965   5.332  19.798  0.00  0.00    +0.000 N 
ATOM      3  C   UNL     1       3.903   4.739  18.995  0.00  0.00    +0.000 A 
ATOM      4  C   UNL     1       4.209   5.605  17.962  0.00  0.00    +0.000 A 
ATOM      5  C   UNL     1       3.406   6.778  18.158  0.00  0.00    +0.000 A 
ATOM      6  C   UNL     1       3.272   8.005  17.476  0.00  0.00    +0.000 A 
ATOM      7  C   UNL     1       2.364   8.965  17.934  0.00  0.00    +0.000 A 
ATOM      8  C   UNL     1       1.587   8.749  19.079  0.00  0.00    +0.000 A 
ATOM      9  C   UNL     1       1.711   7.538  19.781  0.00  0.00    +0.000 A 
ATOM     10  C   UNL     1       2.628   6.575  19.305  0.00  0.00    +0.000 A 
ENDROOT
BRANCH   4  11
ATOM     11  C   UNL     1       5.176   5.283  16.917  0.00  0.00    +0.000 A 
ATOM     12  C   UNL     1       4.961   4.242  16.008  0.00  0.00    +0.000 A 
ATOM     13  C   UNL     1       5.912   3.961  15.026  0.00  0.00    +0.000 A 
ATOM     14  C   UNL     1       7.063   4.729  14.985  0.00  0.00    +0.000 A 
ATOM     15  N   UNL     1       7.311   5.746  15.835  0.00  0.00    +0.000 NA
ATOM     16  C   UNL     1       6.360   6.001  16.769  0.00  0.00    +0.000 A 
ENDBRANCH   4  11
BRANCH   8  17
ATOM     17  C   UNL     1       0.694   9.873  19.500  0.00  0.00    +0.000 C 
ATOM     18  O   UNL     1       0.091  10.531  18.667  0.00  0.00    +0.000 OA
ATOM     19  N   UNL     1       0.646  10.177  20.865  0.00  0.00    +0.000 N 
ATOM     20  H   UNL     1       1.152   9.663  21.576  0.00  0.00    +0.000 HD
BRANCH  19  21
ATOM     21  S   UNL     1      -0.285  11.387  21.519  0.00  0.00    +0.000 S 
ATOM     22  C   UNL     1       0.672  12.856  21.186  0.00  0.00    +0.000 C 
ATOM     23  O   UNL     1      -1.547  11.448  20.818  0.00  0.00    +0.000 OA
ATOM     24  O   UNL     1      -0.242  11.148  22.947  0.00  0.00    +0.000 OA
ENDBRANCH  19  21
ENDBRANCH   8  17
TORSDOF 3
ENDMDL
MODEL 5
REMARK VINA RESULT:      -7.7      1.168      1.349
REMARK  Name = 
REMARK  5 active torsions:
REMARK  status: ('A' for Active; 'I' for Inactive)
REMARK    1  A    between atoms: C_1  and  N_2
REMARK    2  A    between atoms: C_4  and  C_5
REMARK    3  A    between atoms: C_14  and  C_15
REMARK    4  A    between atoms: N_17  and  S_18
REMARK    5  A    between atoms: S_18  and  C_19
REMARK                            x       y       z     vdW  Elec       q    Type
REMARK                         _______ _______ _______ _____ _____    ______ ____
ROOT
ATOM      1  C   UNL     1       2.326   3.185  21.285  0.00  0.00    +0.000 C 
ATOM      2  N   UNL     1       2.860   4.016  20.228  0.00  0.00    +0.000 N 
ATOM      3  C   UNL     1       3.787   3.600  19.310  0.00  0.00    +0.000 A 
ATOM      4  C   UNL     1       4.089   4.660  18.475  0.00  0.00    +0.000 A 
ATOM      5  C   UNL     1       3.293   5.770  18.919  0.00  0.00    +0.000 A 
ATOM      6  C   UNL     1       3.160   7.112  18.507  0.00  0.00    +0.000 A 
ATOM      7  C   UNL     1       2.262   7.959  19.164  0.00  0.00    +0.000 A 
ATOM      8  C   UNL     1       1.494   7.514  20.247  0.00  0.00    +0.000 A 
ATOM      9  C   UNL     1       1.618   6.183  20.682  0.00  0.00    +0.000 A 
ATOM     10  C   UNL     1       2.525   5.336  20.006  0.00  0.00    +0.000 A 
ENDROOT
BRANCH   4  11
ATOM     11  C   UNL     1       5.043   4.558  17.376  0.00  0.00    +0.000 A 
ATOM     12  C   UNL     1       4.634   4.294  16.065  0.00  0.00    +0.000 A 
ATOM     13  C   UNL     1       5.579   4.199  15.042  0.00  0.00    +0.000 A 
ATOM     14  C   UNL     1       6.916   4.362  15.362  0.00  0.00    +0.000 A 
ATOM     15  N   UNL     1       7.357   4.623  16.609  0.00  0.00    +0.000 NA
ATOM     16  C   UNL     1       6.412   4.723  17.578  0.00  0.00    +0.000 A 
ENDBRANCH   4  11
BRANCH   8  17
ATOM     17  C   UNL     1       0.611   8.528  20.901  0.00  0.00    +0.000 C 
ATOM     18  O   UNL     1      -0.350   8.177  21.565  0.00  0.00    +0.000 OA
ATOM     19  N   UNL     1       0.891   9.877  20.651  0.00  0.00    +0.000 N 
ATOM     20  H   UNL     1       1.668  10.197  20.086  0.00  0.00    +0.000 HD
BRANCH  19  21
ATOM     21  S   UNL     1       0.022  11.142  21.286  0.00  0.00    +0.000 S 
ATOM     22  C   UNL     1       1.022  12.563  20.877  0.00  0.00    +0.000 C 
ATOM     23  O   UNL     1      -1.256  11.225  20.619  0.00  0.00    +0.000 OA
ATOM     24  O   UNL     1       0.097  10.951  22.720  0.00  0.00    +0.000 OA
ENDBRANCH  19  21
ENDBRANCH   8  17
TORSDOF 3
ENDMDL
MODEL 6
REMARK VINA RESULT:      -7.6      1.449      1.719
REMARK  Name = 
REMARK  5 active torsions:
REMARK  status: ('A' for Active; 'I' for Inactive)
REMARK    1  A    between atoms: C_1  and  N_2
REMARK    2  A    between atoms: C_4  and  C_5
REMARK    3  A    between atoms: C_14  and  C_15
REMARK    4  A    between atoms: N_17  and  S_18
REMARK    5  A    between atoms: S_18  and  C_19
REMARK                            x       y       z     vdW  Elec       q    Type
REMARK                         _______ _______ _______ _____ _____    ______ ____
ROOT
ATOM      1  C   UNL     1       2.228   3.677  21.190  0.00  0.00    +0.000 C 
ATOM      2  N   UNL     1       2.646   4.537  20.104  0.00  0.00    +0.000 N 
ATOM      3  C   UNL     1       3.477   4.148  19.087  0.00  0.00    +0.000 A 
ATOM      4  C   UNL     1       3.686   5.230  18.251  0.00  0.00    +0.000 A 
ATOM      5  C   UNL     1       2.934   6.323  18.800  0.00  0.00    +0.000 A 
ATOM      6  C   UNL     1       2.751   7.673  18.436  0.00  0.00    +0.000 A 
ATOM      7  C   UNL     1       1.920   8.498  19.201  0.00  0.00    +0.000 A 
ATOM      8  C   UNL     1       1.270   8.021  20.346  0.00  0.00    +0.000 A 
ATOM      9  C   UNL     1       1.445   6.682  20.734  0.00  0.00    +0.000 A 
ATOM     10  C   UNL     1       2.283   5.858  19.950  0.00  0.00    +0.000 A 
ENDROOT
BRANCH   4  11
ATOM     11  C   UNL     1       4.524   5.161  17.059  0.00  0.00    +0.000 A 
ATOM     12  C   UNL     1       4.964   3.941  16.535  0.00  0.00    +0.000 A 
ATOM     13  C   UNL     1       5.770   3.918  15.395  0.00  0.00    +0.000 A 
ATOM     14  C   UNL     1       6.120   5.123  14.812  0.00  0.00    +0.000 A 
ATOM     15  N   UNL     1       5.715   6.322  15.276  0.00  0.00    +0.000 NA
ATOM     16  C   UNL     1       4.922   6.309  16.378  0.00  0.00    +0.000 A 
ENDBRANCH   4  11
BRANCH   8  17
ATOM     17  C   UNL     1       0.452   9.013  21.110  0.00  0.00    +0.000 C 
ATOM     18  O   UNL     1      -0.496   8.647  21.785  0.00  0.00    +0.000 OA
ATOM     19  N   UNL     1       0.774  10.366  20.951  0.00  0.00    +0.000 N 
ATOM     20  H   UNL     1       1.540  10.701  20.381  0.00  0.00    +0.000 HD
BRANCH  19  21
ATOM     21  S   UNL     1      -0.020  11.609  21.716  0.00  0.00    +0.000 S 
ATOM     22  C   UNL     1      -1.447  11.874  20.678  0.00  0.00    +0.000 C 
ATOM     23  O   UNL     1      -0.435  11.173  23.028  0.00  0.00    +0.000 OA
ATOM     24  O   UNL     1       0.856  12.752  21.558  0.00  0.00    +0.000 OA
ENDBRANCH  19  21
ENDBRANCH   8  17
TORSDOF 3
ENDMDL
MODEL 7
REMARK VINA RESULT:      -7.5      0.955      1.032
REMARK  Name = 
REMARK  5 active torsions:
REMARK  status: ('A' for Active; 'I' for Inactive)
REMARK    1  A    between atoms: C_1  and  N_2
REMARK    2  A    between atoms: C_4  and  C_5
REMARK    3  A    between atoms: C_14  and  C_15
REMARK    4  A    between atoms: N_17  and  S_18
REMARK    5  A    between atoms: S_18  and  C_19
REMARK                            x       y       z     vdW  Elec       q    Type
REMARK                         _______ _______ _______ _____ _____    ______ ____
ROOT
ATOM      1  C   UNL     1       2.627   2.723  19.195  0.00  0.00    +0.000 C 
ATOM      2  N   UNL     1       3.272   3.692  18.336  0.00  0.00    +0.000 N 
ATOM      3  C   UNL     1       4.147   3.374  17.332  0.00  0.00    +0.000 A 
ATOM      4  C   UNL     1       4.589   4.545  16.744  0.00  0.00    +0.000 A 
ATOM      5  C   UNL     1       3.938   5.621  17.436  0.00  0.00    +0.000 A 
ATOM      6  C   UNL     1       3.981   7.027  17.331  0.00  0.00    +0.000 A 
ATOM      7  C   UNL     1       3.192   7.816  18.174  0.00  0.00    +0.000 A 
ATOM      8  C   UNL     1       2.365   7.244  19.148  0.00  0.00    +0.000 A 
ATOM      9  C   UNL     1       2.313   5.845  19.278  0.00  0.00    +0.000 A 
ATOM     10  C   UNL     1       3.111   5.059  18.416  0.00  0.00    +0.000 A 
ENDROOT
BRANCH   4  11
ATOM     11  C   UNL     1       5.532   4.567  15.631  0.00  0.00    +0.000 A 
ATOM     12  C   UNL     1       5.284   3.880  14.438  0.00  0.00    +0.000 A 
ATOM     13  C   UNL     1       6.215   3.921  13.399  0.00  0.00    +0.000 A 
ATOM     14  C   UNL     1       7.379   4.647  13.585  0.00  0.00    +0.000 A 
ATOM     15  N   UNL     1       7.659   5.329  14.714  0.00  0.00    +0.000 NA
ATOM     16  C   UNL     1       6.728   5.280  15.700  0.00  0.00    +0.000 A 
ENDBRANCH   4  11
BRANCH   8  17
ATOM     17  C   UNL     1       1.612   8.193  20.025  0.00  0.00    +0.000 C 
ATOM     18  O   UNL     1       1.073   7.799  21.047  0.00  0.00    +0.000 OA
ATOM     19  N   UNL     1       1.492   9.516  19.583  0.00  0.00    +0.000 N 
ATOM     20  H   UNL     1       1.910   9.866  18.730  0.00  0.00    +0.000 HD
BRANCH  19  21
ATOM     21  S   UNL     1       0.695  10.709  20.419  0.00  0.00    +0.000 S 
ATOM     22  C   UNL     1      -1.019  10.392  20.037  0.00  0.00    +0.000 C 
ATOM     23  O   UNL     1       0.929  10.537  21.834  0.00  0.00    +0.000 OA
ATOM     24  O   UNL     1       1.075  11.937  19.751  0.00  0.00    +0.000 OA
ENDBRANCH  19  21
ENDBRANCH   8  17
TORSDOF 3
ENDMDL
MODEL 8
REMARK VINA RESULT:      -7.5      1.119      1.214
REMARK  Name = 
REMARK  5 active torsions:
REMARK  status: ('A' for Active; 'I' for Inactive)
REMARK    1  A    between atoms: C_1  and  N_2
REMARK    2  A    between atoms: C_4  and  C_5
REMARK    3  A    between atoms: C_14  and  C_15
REMARK    4  A    between atoms: N_17  and  S_18
REMARK    5  A    between atoms: S_18  and  C_19
REMARK                            x       y       z     vdW  Elec       q    Type
REMARK                         _______ _______ _______ _____ _____    ______ ____
ROOT
ATOM      1  C   UNL     1       2.706   3.998  20.566  0.00  0.00    +0.000 C 
ATOM      2  N   UNL     1       3.221   4.741  19.437  0.00  0.00    +0.000 N 
ATOM      3  C   UNL     1       4.128   4.248  18.537  0.00  0.00    +0.000 A 
ATOM      4  C   UNL     1       4.417   5.238  17.616  0.00  0.00    +0.000 A 
ATOM      5  C   UNL     1       3.636   6.384  17.987  0.00  0.00    +0.000 A 
ATOM      6  C   UNL     1       3.500   7.691  17.474  0.00  0.00    +0.000 A 
ATOM      7  C   UNL     1       2.619   8.592  18.080  0.00  0.00    +0.000 A 
ATOM      8  C   UNL     1       1.871   8.237  19.209  0.00  0.00    +0.000 A 
ATOM      9  C   UNL     1       1.998   6.943  19.744  0.00  0.00    +0.000 A 
ATOM     10  C   UNL     1       2.888   6.041  19.120  0.00  0.00    +0.000 A 
ENDROOT
BRANCH   4  11
ATOM     11  C   UNL     1       5.349   5.045  16.509  0.00  0.00    +0.000 A 
ATOM     12  C   UNL     1       5.098   4.128  15.483  0.00  0.00    +0.000 A 
ATOM     13  C   UNL     1       6.017   3.968  14.445  0.00  0.00    +0.000 A 
ATOM     14  C   UNL     1       7.173   4.729  14.466  0.00  0.00    +0.000 A 
ATOM     15  N   UNL     1       7.456   5.629  15.430  0.00  0.00    +0.000 NA
ATOM     16  C   UNL     1       6.535   5.770  16.417  0.00  0.00    +0.000 A 
ENDBRANCH   4  11
BRANCH   8  17
ATOM     17  C   UNL     1       1.006   9.304  19.799  0.00  0.00    +0.000 C 
ATOM     18  O   UNL     1       0.305   9.069  20.770  0.00  0.00    +0.000 OA
ATOM     19  N   UNL     1       0.979  10.542  19.145  0.00  0.00    +0.000 N 
ATOM     20  H   UNL     1       1.533  10.759  18.325  0.00  0.00    +0.000 HD
BRANCH  19  21
ATOM     21  S   UNL     1       0.080  11.844  19.649  0.00  0.00    +0.000 S 
ATOM     22  C   UNL     1      -1.596  11.326  19.322  0.00  0.00    +0.000 C 
ATOM     23  O   UNL     1       0.273  12.034  21.068  0.00  0.00    +0.000 OA
ATOM     24  O   UNL     1       0.406  12.897  18.710  0.00  0.00    +0.000 OA
ENDBRANCH  19  21
ENDBRANCH   8  17
TORSDOF 3
ENDMDL
MODEL 9
REMARK VINA RESULT:      -7.5      1.261      1.487
REMARK  Name = 
REMARK  5 active torsions:
REMARK  status: ('A' for Active; 'I' for Inactive)
REMARK    1  A    between atoms: C_1  and  N_2
REMARK    2  A    between atoms: C_4  and  C_5
REMARK    3  A    between atoms: C_14  and  C_15
REMARK    4  A    between atoms: N_17  and  S_18
REMARK    5  A    between atoms: S_18  and  C_19
REMARK                            x       y       z     vdW  Elec       q    Type
REMARK                         _______ _______ _______ _____ _____    ______ ____
ROOT
ATOM      1  C   UNL     1       2.601   4.464  20.948  0.00  0.00    +0.000 C 
ATOM      2  N   UNL     1       3.096   5.120  19.757  0.00  0.00    +0.000 N 
ATOM      3  C   UNL     1       4.020   4.579  18.904  0.00  0.00    +0.000 A 
ATOM      4  C   UNL     1       4.281   5.492  17.899  0.00  0.00    +0.000 A 
ATOM      5  C   UNL     1       3.464   6.642  18.168  0.00  0.00    +0.000 A 
ATOM      6  C   UNL     1       3.289   7.893  17.542  0.00  0.00    +0.000 A 
ATOM      7  C   UNL     1       2.379   8.816  18.066  0.00  0.00    +0.000 A 
ATOM      8  C   UNL     1       1.640   8.539  19.223  0.00  0.00    +0.000 A 
ATOM      9  C   UNL     1       1.806   7.302  19.870  0.00  0.00    +0.000 A 
ATOM     10  C   UNL     1       2.724   6.376  19.327  0.00  0.00    +0.000 A 
ENDROOT
BRANCH   4  11
ATOM     11  C   UNL     1       5.221   5.231  16.814  0.00  0.00    +0.000 A 
ATOM     12  C   UNL     1       5.011   4.206  15.885  0.00  0.00    +0.000 A 
ATOM     13  C   UNL     1       5.937   3.985  14.865  0.00  0.00    +0.000 A 
ATOM     14  C   UNL     1       7.059   4.794  14.806  0.00  0.00    +0.000 A 
ATOM     15  N   UNL     1       7.301   5.797  15.674  0.00  0.00    +0.000 NA
ATOM     16  C   UNL     1       6.375   5.995  16.646  0.00  0.00    +0.000 A 
ENDBRANCH   4  11
BRANCH   8  17
ATOM     17  C   UNL     1       0.741   9.628  19.716  0.00  0.00    +0.000 C 
ATOM     18  O   UNL     1       0.151   9.511  20.778  0.00  0.00    +0.000 OA
ATOM     19  N   UNL     1       0.551  10.731  18.877  0.00  0.00    +0.000 N 
ATOM     20  H   UNL     1       1.009  10.845  17.981  0.00  0.00    +0.000 HD
BRANCH  19  21
ATOM     21  S   UNL     1      -0.410  12.033  19.252  0.00  0.00    +0.000 S 
ATOM     22  C   UNL     1       0.389  12.722  20.692  0.00  0.00    +0.000 C 
ATOM     23  O   UNL     1      -0.374  12.981  18.164  0.00  0.00    +0.000 OA
ATOM     24  O   UNL     1      -1.663  11.448  19.683  0.00  0.00    +0.000 OA
ENDBRANCH  19  21
ENDBRANCH   8  17
TORSDOF 3
ENDMDL
