MODEL 1
REMARK VINA RESULT:      -7.2      0.000      0.000
REMARK  Name = 
REMARK  7 active torsions:
REMARK  status: ('A' for Active; 'I' for Inactive)
REMARK    1  A    between atoms: C_1  and  C_2
REMARK    2  A    between atoms: C_2  and  C_3
REMARK    3  A    between atoms: C_2  and  C_4
REMARK    4  A    between atoms: C_2  and  N_5
REMARK    5  A    between atoms: C_9  and  C_10
REMARK    6  A    between atoms: C_10  and  N_11
REMARK    7  A    between atoms: N_14  and  C_15
REMARK                            x       y       z     vdW  Elec       q    Type
REMARK                         _______ _______ _______ _____ _____    ______ ____
ROOT
ATOM      1  N   UNL     1       5.368   5.986  17.758  0.00  0.00    +0.000 NA
ATOM      2  C   UNL     1       6.796   5.736  17.605  0.00  0.00    +0.000 C 
ATOM      3  C   UNL     1       7.251   4.469  16.841  0.00  0.00    +0.000 C 
ATOM      4  N   UNL     1       6.437   3.994  15.727  0.00  0.00    +0.000 NA
ATOM      5  C   UNL     1       5.004   4.243  15.876  0.00  0.00    +0.000 C 
ATOM      6  C   UNL     1       4.571   5.538  16.612  0.00  0.00    +0.000 C 
ENDROOT
BRANCH   4   7
ATOM      7  C   UNL     1       7.045   4.009  14.402  0.00  0.00    +0.000 C 
ATOM      8  C   UNL     1       6.061   3.633  13.272  0.00  0.00    +0.000 C 
ATOM      9  C   UNL     1       6.812   4.001  12.003  0.00  0.00    +0.000 C 
ATOM     10  C   UNL     1       7.580   5.269  12.360  0.00  0.00    +0.000 C 
ATOM     11  C   UNL     1       7.525   5.386  13.884  0.00  0.00    +0.000 C 
ENDBRANCH   4   7
BRANCH   1  12
ATOM     12  C   UNL     1       4.803   5.796  19.093  0.00  0.00    +0.000 C 
BRANCH  12  17
ATOM     13  N   UNL     1       3.235   3.798  19.596  0.00  0.00    +0.000 N 
ATOM     14  N   UNL     1       3.431   2.503  19.985  0.00  0.00    +0.000 NA
ATOM     15  N   UNL     1       4.731   2.316  19.998  0.00  0.00    +0.000 NA
ATOM     16  N   UNL     1       5.400   3.459  19.661  0.00  0.00    +0.000 NA
ATOM     17  C   UNL     1       4.479   4.387  19.465  0.00  0.00    +0.000 A 
BRANCH  13  19
ATOM     18  C   UNL     1       0.856   3.128  19.851  0.00  0.00    +0.000 C 
ATOM     19  C   UNL     1       1.846   4.259  19.448  0.00  0.00    +0.000 C 
ATOM     20  C   UNL     1       1.487   4.676  18.006  0.00  0.00    +0.000 C 
ATOM     21  C   UNL     1       1.581   5.427  20.420  0.00  0.00    +0.000 C 
ENDBRANCH  13  19
ENDBRANCH  12  17
ENDBRANCH   1  12
TORSDOF 4
ENDMDL
MODEL 2
REMARK VINA RESULT:      -7.1      1.050      1.575
REMARK  Name = 
REMARK  7 active torsions:
REMARK  status: ('A' for Active; 'I' for Inactive)
REMARK    1  A    between atoms: C_1  and  C_2
REMARK    2  A    between atoms: C_2  and  C_3
REMARK    3  A    between atoms: C_2  and  C_4
REMARK    4  A    between atoms: C_2  and  N_5
REMARK    5  A    between atoms: C_9  and  C_10
REMARK    6  A    between atoms: C_10  and  N_11
REMARK    7  A    between atoms: N_14  and  C_15
REMARK                            x       y       z     vdW  Elec       q    Type
REMARK                         _______ _______ _______ _____ _____    ______ ____
ROOT
ATOM      1  N   UNL     1       3.960   5.678  17.704  0.00  0.00    +0.000 NA
ATOM      2  C   UNL     1       4.930   6.596  17.120  0.00  0.00    +0.000 C 
ATOM      3  C   UNL     1       6.138   6.009  16.350  0.00  0.00    +0.000 C 
ATOM      4  N   UNL     1       5.955   4.773  15.597  0.00  0.00    +0.000 NA
ATOM      5  C   UNL     1       4.982   3.849  16.179  0.00  0.00    +0.000 C 
ATOM      6  C   UNL     1       3.759   4.459  16.913  0.00  0.00    +0.000 C 
ENDROOT
BRANCH   4   7
ATOM      7  C   UNL     1       6.118   4.842  14.150  0.00  0.00    +0.000 C 
ATOM      8  C   UNL     1       7.572   5.117  13.708  0.00  0.00    +0.000 C 
ATOM      9  C   UNL     1       7.550   4.851  12.212  0.00  0.00    +0.000 C 
ATOM     10  C   UNL     1       6.596   3.675  12.040  0.00  0.00    +0.000 C 
ATOM     11  C   UNL     1       5.849   3.535  13.367  0.00  0.00    +0.000 C 
ENDBRANCH   4   7
BRANCH   1  12
ATOM     12  C   UNL     1       3.967   5.547  19.160  0.00  0.00    +0.000 C 
BRANCH  12  17
ATOM     13  N   UNL     1       3.161   3.316  20.199  0.00  0.00    +0.000 N 
ATOM     14  N   UNL     1       3.781   2.162  20.585  0.00  0.00    +0.000 NA
ATOM     15  N   UNL     1       5.041   2.287  20.235  0.00  0.00    +0.000 NA
ATOM     16  N   UNL     1       5.278   3.504  19.659  0.00  0.00    +0.000 NA
ATOM     17  C   UNL     1       4.130   4.159  19.685  0.00  0.00    +0.000 A 
BRANCH  13  19
ATOM     18  C   UNL     1       0.930   2.796  19.238  0.00  0.00    +0.000 C 
ATOM     19  C   UNL     1       1.712   3.417  20.431  0.00  0.00    +0.000 C 
ATOM     20  C   UNL     1       1.214   4.870  20.585  0.00  0.00    +0.000 C 
ATOM     21  C   UNL     1       1.326   2.589  21.674  0.00  0.00    +0.000 C 
ENDBRANCH  13  19
ENDBRANCH  12  17
ENDBRANCH   1  12
TORSDOF 4
ENDMDL
MODEL 3
REMARK VINA RESULT:      -7.0      0.823      1.602
REMARK  Name = 
REMARK  7 active torsions:
REMARK  status: ('A' for Active; 'I' for Inactive)
REMARK    1  A    between atoms: C_1  and  C_2
REMARK    2  A    between atoms: C_2  and  C_3
REMARK    3  A    between atoms: C_2  and  C_4
REMARK    4  A    between atoms: C_2  and  N_5
REMARK    5  A    between atoms: C_9  and  C_10
REMARK    6  A    between atoms: C_10  and  N_11
REMARK    7  A    between atoms: N_14  and  C_15
REMARK                            x       y       z     vdW  Elec       q    Type
REMARK                         _______ _______ _______ _____ _____    ______ ____
ROOT
ATOM      1  N   UNL     1       4.380   5.956  17.842  0.00  0.00    +0.000 NA
ATOM      2  C   UNL     1       5.583   6.595  17.322  0.00  0.00    +0.000 C 
ATOM      3  C   UNL     1       6.565   5.750  16.475  0.00  0.00    +0.000 C 
ATOM      4  N   UNL     1       6.026   4.701  15.616  0.00  0.00    +0.000 NA
ATOM      5  C   UNL     1       4.818   4.058  16.133  0.00  0.00    +0.000 C 
ATOM      6  C   UNL     1       3.829   4.932  16.947  0.00  0.00    +0.000 C 
ENDROOT
BRANCH   4   7
ATOM      7  C   UNL     1       6.209   4.855  14.178  0.00  0.00    +0.000 C 
ATOM      8  C   UNL     1       7.643   5.271  13.783  0.00  0.00    +0.000 C 
ATOM      9  C   UNL     1       7.672   5.078  12.276  0.00  0.00    +0.000 C 
ATOM     10  C   UNL     1       6.824   3.836  12.027  0.00  0.00    +0.000 C 
ATOM     11  C   UNL     1       6.066   3.570  13.327  0.00  0.00    +0.000 C 
ENDBRANCH   4   7
BRANCH   1  12
ATOM     12  C   UNL     1       4.339   5.692  19.280  0.00  0.00    +0.000 C 
BRANCH  12  17
ATOM     13  N   UNL     1       3.292   3.474  20.108  0.00  0.00    +0.000 N 
ATOM     14  N   UNL     1       3.784   2.230  20.388  0.00  0.00    +0.000 NA
ATOM     15  N   UNL     1       5.054   2.253  20.052  0.00  0.00    +0.000 NA
ATOM     16  N   UNL     1       5.423   3.486  19.591  0.00  0.00    +0.000 NA
ATOM     17  C   UNL     1       4.350   4.253  19.675  0.00  0.00    +0.000 A 
BRANCH  13  19
ATOM     18  C   UNL     1       1.617   5.178  20.787  0.00  0.00    +0.000 C 
ATOM     19  C   UNL     1       1.859   3.706  20.346  0.00  0.00    +0.000 C 
ATOM     20  C   UNL     1       1.265   2.804  21.449  0.00  0.00    +0.000 C 
ATOM     21  C   UNL     1       1.078   3.519  19.029  0.00  0.00    +0.000 C 
ENDBRANCH  13  19
ENDBRANCH  12  17
ENDBRANCH   1  12
TORSDOF 4
ENDMDL
MODEL 4
REMARK VINA RESULT:      -6.8      0.519      1.282
REMARK  Name = 
REMARK  7 active torsions:
REMARK  status: ('A' for Active; 'I' for Inactive)
REMARK    1  A    between atoms: C_1  and  C_2
REMARK    2  A    between atoms: C_2  and  C_3
REMARK    3  A    between atoms: C_2  and  C_4
REMARK    4  A    between atoms: C_2  and  N_5
REMARK    5  A    between atoms: C_9  and  C_10
REMARK    6  A    between atoms: C_10  and  N_11
REMARK    7  A    between atoms: N_14  and  C_15
REMARK                            x       y       z     vdW  Elec       q    Type
REMARK                         _______ _______ _______ _____ _____    ______ ____
ROOT
ATOM      1  N   UNL     1       5.443   5.935  18.023  0.00  0.00    +0.000 NA
ATOM      2  C   UNL     1       6.771   5.672  17.484  0.00  0.00    +0.000 C 
ATOM      3  C   UNL     1       6.932   4.569  16.410  0.00  0.00    +0.000 C 
ATOM      4  N   UNL     1       5.847   4.355  15.458  0.00  0.00    +0.000 NA
ATOM      5  C   UNL     1       4.511   4.619  15.994  0.00  0.00    +0.000 C 
ATOM      6  C   UNL     1       4.368   5.755  17.041  0.00  0.00    +0.000 C 
ENDROOT
BRANCH   4   7
ATOM      7  C   UNL     1       6.130   4.615  14.052  0.00  0.00    +0.000 C 
ATOM      8  C   UNL     1       7.564   5.131  13.800  0.00  0.00    +0.000 C 
ATOM      9  C   UNL     1       7.719   5.042  12.291  0.00  0.00    +0.000 C 
ATOM     10  C   UNL     1       6.965   3.778  11.897  0.00  0.00    +0.000 C 
ATOM     11  C   UNL     1       6.126   3.385  13.113  0.00  0.00    +0.000 C 
ENDBRANCH   4   7
BRANCH   1  12
ATOM     12  C   UNL     1       5.187   5.501  19.396  0.00  0.00    +0.000 C 
BRANCH  12  17
ATOM     13  N   UNL     1       3.313   3.729  19.620  0.00  0.00    +0.000 N 
ATOM     14  N   UNL     1       3.294   2.374  19.790  0.00  0.00    +0.000 NA
ATOM     15  N   UNL     1       4.545   1.978  19.733  0.00  0.00    +0.000 NA
ATOM     16  N   UNL     1       5.393   3.037  19.564  0.00  0.00    +0.000 NA
ATOM     17  C   UNL     1       4.637   4.122  19.546  0.00  0.00    +0.000 A 
BRANCH  13  19
ATOM     18  C   UNL     1       1.442   4.433  18.144  0.00  0.00    +0.000 C 
ATOM     19  C   UNL     1       2.019   4.427  19.589  0.00  0.00    +0.000 C 
ATOM     20  C   UNL     1       2.104   5.900  20.044  0.00  0.00    +0.000 C 
ATOM     21  C   UNL     1       0.996   3.662  20.456  0.00  0.00    +0.000 C 
ENDBRANCH  13  19
ENDBRANCH  12  17
ENDBRANCH   1  12
TORSDOF 4
ENDMDL
MODEL 5
REMARK VINA RESULT:      -6.6      2.231      3.604
REMARK  Name = 
REMARK  7 active torsions:
REMARK  status: ('A' for Active; 'I' for Inactive)
REMARK    1  A    between atoms: C_1  and  C_2
REMARK    2  A    between atoms: C_2  and  C_3
REMARK    3  A    between atoms: C_2  and  C_4
REMARK    4  A    between atoms: C_2  and  N_5
REMARK    5  A    between atoms: C_9  and  C_10
REMARK    6  A    between atoms: C_10  and  N_11
REMARK    7  A    between atoms: N_14  and  C_15
REMARK                            x       y       z     vdW  Elec       q    Type
REMARK                         _______ _______ _______ _____ _____    ______ ____
ROOT
ATOM      1  N   UNL     1       4.168   4.483  17.250  0.00  0.00    +0.000 NA
ATOM      2  C   UNL     1       4.266   5.555  18.232  0.00  0.00    +0.000 C 
ATOM      3  C   UNL     1       5.641   5.842  18.883  0.00  0.00    +0.000 C 
ATOM      4  N   UNL     1       6.847   5.649  18.086  0.00  0.00    +0.000 NA
ATOM      5  C   UNL     1       6.753   4.575  17.097  0.00  0.00    +0.000 C 
ATOM      6  C   UNL     1       5.375   4.330  16.429  0.00  0.00    +0.000 C 
ENDROOT
BRANCH   4   7
ATOM      7  C   UNL     1       7.658   6.828  17.804  0.00  0.00    +0.000 C 
ATOM      8  C   UNL     1       6.823   8.070  17.426  0.00  0.00    +0.000 C 
ATOM      9  C   UNL     1       7.829   9.208  17.475  0.00  0.00    +0.000 C 
ATOM     10  C   UNL     1       8.748   8.865  18.642  0.00  0.00    +0.000 C 
ATOM     11  C   UNL     1       8.464   7.405  18.993  0.00  0.00    +0.000 C 
ENDBRANCH   4   7
BRANCH   1  12
ATOM     12  C   UNL     1       3.472   3.266  17.664  0.00  0.00    +0.000 C 
BRANCH  12  17
ATOM     13  N   UNL     1       3.029   2.779  20.169  0.00  0.00    +0.000 N 
ATOM     14  N   UNL     1       3.768   2.238  21.183  0.00  0.00    +0.000 NA
ATOM     15  N   UNL     1       4.897   1.840  20.643  0.00  0.00    +0.000 NA
ATOM     16  N   UNL     1       4.940   2.133  19.308  0.00  0.00    +0.000 NA
ATOM     17  C   UNL     1       3.810   2.760  19.027  0.00  0.00    +0.000 A 
BRANCH  13  19
ATOM     18  C   UNL     1       0.650   2.735  19.455  0.00  0.00    +0.000 C 
ATOM     19  C   UNL     1       1.679   3.262  20.496  0.00  0.00    +0.000 C 
ATOM     20  C   UNL     1       1.561   4.801  20.504  0.00  0.00    +0.000 C 
ATOM     21  C   UNL     1       1.240   2.689  21.860  0.00  0.00    +0.000 C 
ENDBRANCH  13  19
ENDBRANCH  12  17
ENDBRANCH   1  12
TORSDOF 4
ENDMDL
MODEL 6
REMARK VINA RESULT:      -6.6      1.576      2.488
REMARK  Name = 
REMARK  7 active torsions:
REMARK  status: ('A' for Active; 'I' for Inactive)
REMARK    1  A    between atoms: C_1  and  C_2
REMARK    2  A    between atoms: C_2  and  C_3
REMARK    3  A    between atoms: C_2  and  C_4
REMARK    4  A    between atoms: C_2  and  N_5
REMARK    5  A    between atoms: C_9  and  C_10
REMARK    6  A    between atoms: C_10  and  N_11
REMARK    7  A    between atoms: N_14  and  C_15
REMARK                            x       y       z     vdW  Elec       q    Type
REMARK                         _______ _______ _______ _____ _____    ______ ____
ROOT
ATOM      1  N   UNL     1       5.119   4.513  18.184  0.00  0.00    +0.000 NA
ATOM      2  C   UNL     1       4.357   4.752  16.964  0.00  0.00    +0.000 C 
ATOM      3  C   UNL     1       5.083   5.372  15.745  0.00  0.00    +0.000 C 
ATOM      4  N   UNL     1       6.485   5.037  15.520  0.00  0.00    +0.000 NA
ATOM      5  C   UNL     1       7.253   4.796  16.741  0.00  0.00    +0.000 C 
ATOM      6  C   UNL     1       6.516   4.138  17.937  0.00  0.00    +0.000 C 
ENDROOT
BRANCH   4   7
ATOM      7  C   UNL     1       6.810   4.307  14.300  0.00  0.00    +0.000 C 
ATOM      8  C   UNL     1       5.565   3.844  13.513  0.00  0.00    +0.000 C 
ATOM      9  C   UNL     1       6.132   3.391  12.177  0.00  0.00    +0.000 C 
ATOM     10  C   UNL     1       7.266   4.367  11.886  0.00  0.00    +0.000 C 
ATOM     11  C   UNL     1       7.535   5.110  13.194  0.00  0.00    +0.000 C 
ENDBRANCH   4   7
BRANCH   1  12
ATOM     12  C   UNL     1       4.844   5.393  19.319  0.00  0.00    +0.000 C 
BRANCH  12  17
ATOM     13  N   UNL     1       2.592   4.423  20.152  0.00  0.00    +0.000 N 
ATOM     14  N   UNL     1       1.365   4.956  20.427  0.00  0.00    +0.000 NA
ATOM     15  N   UNL     1       1.487   6.255  20.282  0.00  0.00    +0.000 NA
ATOM     16  N   UNL     1       2.752   6.594  19.886  0.00  0.00    +0.000 NA
ATOM     17  C   UNL     1       3.418   5.460  19.755  0.00  0.00    +0.000 A 
BRANCH  13  19
ATOM     18  C   UNL     1       1.795   2.427  21.399  0.00  0.00    +0.000 C 
ATOM     19  C   UNL     1       2.747   2.967  20.293  0.00  0.00    +0.000 C 
ATOM     20  C   UNL     1       4.177   2.535  20.682  0.00  0.00    +0.000 C 
ATOM     21  C   UNL     1       2.320   2.271  18.983  0.00  0.00    +0.000 C 
ENDBRANCH  13  19
ENDBRANCH  12  17
ENDBRANCH   1  12
TORSDOF 4
ENDMDL
MODEL 7
REMARK VINA RESULT:      -6.5      1.540      2.355
REMARK  Name = 
REMARK  7 active torsions:
REMARK  status: ('A' for Active; 'I' for Inactive)
REMARK    1  A    between atoms: C_1  and  C_2
REMARK    2  A    between atoms: C_2  and  C_3
REMARK    3  A    between atoms: C_2  and  C_4
REMARK    4  A    between atoms: C_2  and  N_5
REMARK    5  A    between atoms: C_9  and  C_10
REMARK    6  A    between atoms: C_10  and  N_11
REMARK    7  A    between atoms: N_14  and  C_15
REMARK                            x       y       z     vdW  Elec       q    Type
REMARK                         _______ _______ _______ _____ _____    ______ ____
ROOT
ATOM      1  N   UNL     1       5.985   4.169  18.346  0.00  0.00    +0.000 NA
ATOM      2  C   UNL     1       5.029   3.720  17.342  0.00  0.00    +0.000 C 
ATOM      3  C   UNL     1       5.030   4.408  15.955  0.00  0.00    +0.000 C 
ATOM      4  N   UNL     1       6.298   4.877  15.407  0.00  0.00    +0.000 NA
ATOM      5  C   UNL     1       7.261   5.328  16.411  0.00  0.00    +0.000 C 
ATOM      6  C   UNL     1       7.269   4.598  17.780  0.00  0.00    +0.000 C 
ENDROOT
BRANCH   4   7
ATOM      7  C   UNL     1       6.768   4.247  14.179  0.00  0.00    +0.000 C 
ATOM      8  C   UNL     1       5.626   3.721  13.283  0.00  0.00    +0.000 C 
ATOM      9  C   UNL     1       6.319   3.395  11.970  0.00  0.00    +0.000 C 
ATOM     10  C   UNL     1       7.376   4.481  11.809  0.00  0.00    +0.000 C 
ATOM     11  C   UNL     1       7.490   5.171  13.168  0.00  0.00    +0.000 C 
ENDBRANCH   4   7
BRANCH   1  12
ATOM     12  C   UNL     1       5.452   4.933  19.473  0.00  0.00    +0.000 C 
BRANCH  12  17
ATOM     13  N   UNL     1       2.934   4.405  19.768  0.00  0.00    +0.000 N 
ATOM     14  N   UNL     1       1.778   5.089  19.521  0.00  0.00    +0.000 NA
ATOM     15  N   UNL     1       2.138   6.290  19.127  0.00  0.00    +0.000 NA
ATOM     16  N   UNL     1       3.500   6.407  19.075  0.00  0.00    +0.000 NA
ATOM     17  C   UNL     1       3.989   5.228  19.420  0.00  0.00    +0.000 A 
BRANCH  13  19
ATOM     18  C   UNL     1       4.220   2.442  20.585  0.00  0.00    +0.000 C 
ATOM     19  C   UNL     1       2.812   3.031  20.279  0.00  0.00    +0.000 C 
ATOM     20  C   UNL     1       2.128   2.065  19.288  0.00  0.00    +0.000 C 
ATOM     21  C   UNL     1       2.052   3.041  21.621  0.00  0.00    +0.000 C 
ENDBRANCH  13  19
ENDBRANCH  12  17
ENDBRANCH   1  12
TORSDOF 4
ENDMDL
MODEL 8
REMARK VINA RESULT:      -6.4      2.544      6.935
REMARK  Name = 
REMARK  7 active torsions:
REMARK  status: ('A' for Active; 'I' for Inactive)
REMARK    1  A    between atoms: C_1  and  C_2
REMARK    2  A    between atoms: C_2  and  C_3
REMARK    3  A    between atoms: C_2  and  C_4
REMARK    4  A    between atoms: C_2  and  N_5
REMARK    5  A    between atoms: C_9  and  C_10
REMARK    6  A    between atoms: C_10  and  N_11
REMARK    7  A    between atoms: N_14  and  C_15
REMARK                            x       y       z     vdW  Elec       q    Type
REMARK                         _______ _______ _______ _____ _____    ______ ____
ROOT
ATOM      1  N   UNL     1       2.395   4.726  18.518  0.00  0.00    +0.000 NA
ATOM      2  C   UNL     1       1.746   4.660  19.821  0.00  0.00    +0.000 C 
ATOM      3  C   UNL     1       1.941   5.835  20.809  0.00  0.00    +0.000 C 
ATOM      4  N   UNL     1       2.071   7.186  20.273  0.00  0.00    +0.000 NA
ATOM      5  C   UNL     1       2.721   7.258  18.965  0.00  0.00    +0.000 C 
ATOM      6  C   UNL     1       2.480   6.087  17.976  0.00  0.00    +0.000 C 
ENDROOT
BRANCH   4   7
ATOM      7  C   UNL     1       1.030   8.146  20.622  0.00  0.00    +0.000 C 
ATOM      8  C   UNL     1       1.267   8.841  21.981  0.00  0.00    +0.000 C 
ATOM      9  C   UNL     1       0.254   9.974  21.987  0.00  0.00    +0.000 C 
ATOM     10  C   UNL     1       0.207  10.461  20.543  0.00  0.00    +0.000 C 
ATOM     11  C   UNL     1       0.910   9.390  19.709  0.00  0.00    +0.000 C 
ENDBRANCH   4   7
BRANCH   1  12
ATOM     12  C   UNL     1       3.536   3.838  18.300  0.00  0.00    +0.000 C 
BRANCH  12  17
ATOM     13  N   UNL     1       5.809   4.910  17.678  0.00  0.00    +0.000 N 
ATOM     14  N   UNL     1       6.901   5.318  18.390  0.00  0.00    +0.000 NA
ATOM     15  N   UNL     1       6.592   5.163  19.658  0.00  0.00    +0.000 NA
ATOM     16  N   UNL     1       5.340   4.632  19.802  0.00  0.00    +0.000 NA
ATOM     17  C   UNL     1       4.878   4.428  18.580  0.00  0.00    +0.000 A 
BRANCH  13  19
ATOM     18  C   UNL     1       5.173   6.341  15.749  0.00  0.00    +0.000 C 
ATOM     19  C   UNL     1       5.871   5.031  16.213  0.00  0.00    +0.000 C 
ATOM     20  C   UNL     1       5.179   3.867  15.471  0.00  0.00    +0.000 C 
ATOM     21  C   UNL     1       7.343   5.147  15.764  0.00  0.00    +0.000 C 
ENDBRANCH  13  19
ENDBRANCH  12  17
ENDBRANCH   1  12
TORSDOF 4
ENDMDL
MODEL 9
REMARK VINA RESULT:      -6.3      1.671      2.499
REMARK  Name = 
REMARK  7 active torsions:
REMARK  status: ('A' for Active; 'I' for Inactive)
REMARK    1  A    between atoms: C_1  and  C_2
REMARK    2  A    between atoms: C_2  and  C_3
REMARK    3  A    between atoms: C_2  and  C_4
REMARK    4  A    between atoms: C_2  and  N_5
REMARK    5  A    between atoms: C_9  and  C_10
REMARK    6  A    between atoms: C_10  and  N_11
REMARK    7  A    between atoms: N_14  and  C_15
REMARK                            x       y       z     vdW  Elec       q    Type
REMARK                         _______ _______ _______ _____ _____    ______ ____
ROOT
ATOM      1  N   UNL     1       4.230   5.103  17.536  0.00  0.00    +0.000 NA
ATOM      2  C   UNL     1       4.507   6.273  16.711  0.00  0.00    +0.000 C 
ATOM      3  C   UNL     1       5.800   6.292  15.860  0.00  0.00    +0.000 C 
ATOM      4  N   UNL     1       6.289   5.037  15.301  0.00  0.00    +0.000 NA
ATOM      5  C   UNL     1       6.013   3.860  16.124  0.00  0.00    +0.000 C 
ATOM      6  C   UNL     1       4.693   3.845  16.939  0.00  0.00    +0.000 C 
ENDROOT
BRANCH   4   7
ATOM      7  C   UNL     1       6.316   4.918  13.848  0.00  0.00    +0.000 C 
ATOM      8  C   UNL     1       7.728   5.088  13.245  0.00  0.00    +0.000 C 
ATOM      9  C   UNL     1       7.561   4.637  11.804  0.00  0.00    +0.000 C 
ATOM     10  C   UNL     1       6.571   3.479  11.871  0.00  0.00    +0.000 C 
ATOM     11  C   UNL     1       5.949   3.532  13.266  0.00  0.00    +0.000 C 
ENDBRANCH   4   7
BRANCH   1  12
ATOM     12  C   UNL     1       4.378   5.263  18.981  0.00  0.00    +0.000 C 
BRANCH  12  17
ATOM     13  N   UNL     1       2.282   4.504  20.300  0.00  0.00    +0.000 N 
ATOM     14  N   UNL     1       1.223   5.153  20.869  0.00  0.00    +0.000 NA
ATOM     15  N   UNL     1       1.461   6.438  20.728  0.00  0.00    +0.000 NA
ATOM     16  N   UNL     1       2.630   6.655  20.053  0.00  0.00    +0.000 NA
ATOM     17  C   UNL     1       3.110   5.463  19.743  0.00  0.00    +0.000 A 
BRANCH  13  19
ATOM     18  C   UNL     1       3.751   2.511  20.514  0.00  0.00    +0.000 C 
ATOM     19  C   UNL     1       2.293   3.035  20.368  0.00  0.00    +0.000 C 
ATOM     20  C   UNL     1       1.696   2.357  19.115  0.00  0.00    +0.000 C 
ATOM     21  C   UNL     1       1.542   2.568  21.632  0.00  0.00    +0.000 C 
ENDBRANCH  13  19
ENDBRANCH  12  17
ENDBRANCH   1  12
TORSDOF 4
ENDMDL
