MODEL 1
REMARK VINA RESULT:      -6.8      0.000      0.000
REMARK  Name = 
REMARK  8 active torsions:
REMARK  status: ('A' for Active; 'I' for Inactive)
REMARK    1  A    between atoms: C_1  and  N_2
REMARK    2  A    between atoms: C_4  and  N_5
REMARK    3  A    between atoms: C_6  and  O_8
REMARK    4  A    between atoms: O_8  and  C_9
REMARK    5  A    between atoms: C_9  and  C_10
REMARK    6  A    between atoms: C_10  and  C_11
REMARK    7  A    between atoms: C_11  and  C_12
REMARK    8  A    between atoms: C_12  and  C_13
REMARK                            x       y       z     vdW  Elec       q    Type
REMARK                         _______ _______ _______ _____ _____    ______ ____
ROOT
ATOM      1  O   UNL     1       8.199   6.704  18.517  0.00  0.00    +0.000 OA
ENDROOT
BRANCH   1   3
ATOM      2  N   UNL     1       6.289   5.599  18.589  0.00  0.00    +0.000 N 
ATOM      3  C   UNL     1       7.455   5.835  19.240  0.00  0.00    +0.000 C 
ATOM      4  O   UNL     1       7.773   5.328  20.305  0.00  0.00    +0.000 OA
ATOM      5  H   UNL     1       6.179   6.086  17.708  0.00  0.00    +0.000 HD
BRANCH   2   9
ATOM      6  C   UNL     1       2.158   4.950  17.883  0.00  0.00    +0.000 C 
ATOM      7  N   UNL     1       3.292   4.379  18.556  0.00  0.00    +0.000 N 
ATOM      8  C   UNL     1       4.032   5.029  19.652  0.00  0.00    +0.000 C 
ATOM      9  C   UNL     1       5.342   4.541  18.995  0.00  0.00    +0.000 C 
ATOM     10  C   UNL     1       4.418   4.059  17.852  0.00  0.00    +0.000 C 
ATOM     11  O   UNL     1       4.580   3.713  16.704  0.00  0.00    +0.000 OA
ENDBRANCH   2   9
ENDBRANCH   1   3
BRANCH   1  12
ATOM     12  C   UNL     1       7.465   7.553  17.625  0.00  0.00    +0.000 C 
BRANCH  12  13
ATOM     13  C   UNL     1       7.876   9.018  17.788  0.00  0.00    +0.000 C 
BRANCH  13  14
ATOM     14  C   UNL     1       9.007   9.129  18.809  0.00  0.00    +0.000 C 
BRANCH  14  15
ATOM     15  C   UNL     1       9.187  10.553  19.354  0.00  0.00    +0.000 C 
BRANCH  15  16
ATOM     16  C   UNL     1      10.628  11.075  19.146  0.00  0.00    +0.000 C 
ATOM     17  C   UNL     1      10.868  11.722  17.769  0.00  0.00    +0.000 C 
ATOM     18  C   UNL     1      10.187  13.081  17.627  0.00  0.00    +0.000 C 
ATOM     19  C   UNL     1      10.626  14.035  18.733  0.00  0.00    +0.000 C 
ATOM     20  C   UNL     1      10.397  13.437  20.118  0.00  0.00    +0.000 C 
ATOM     21  C   UNL     1      11.040  12.057  20.260  0.00  0.00    +0.000 C 
ENDBRANCH  15  16
ENDBRANCH  14  15
ENDBRANCH  13  14
ENDBRANCH  12  13
ENDBRANCH   1  12
TORSDOF 7
ENDMDL
MODEL 2
REMARK VINA RESULT:      -6.8      1.798      2.529
REMARK  Name = 
REMARK  8 active torsions:
REMARK  status: ('A' for Active; 'I' for Inactive)
REMARK    1  A    between atoms: C_1  and  N_2
REMARK    2  A    between atoms: C_4  and  N_5
REMARK    3  A    between atoms: C_6  and  O_8
REMARK    4  A    between atoms: O_8  and  C_9
REMARK    5  A    between atoms: C_9  and  C_10
REMARK    6  A    between atoms: C_10  and  C_11
REMARK    7  A    between atoms: C_11  and  C_12
REMARK    8  A    between atoms: C_12  and  C_13
REMARK                            x       y       z     vdW  Elec       q    Type
REMARK                         _______ _______ _______ _____ _____    ______ ____
ROOT
ATOM      1  O   UNL     1       7.107   6.435  16.687  0.00  0.00    +0.000 OA
ENDROOT
BRANCH   1   3
ATOM      2  N   UNL     1       5.534   4.915  16.989  0.00  0.00    +0.000 N 
ATOM      3  C   UNL     1       5.955   5.927  16.190  0.00  0.00    +0.000 C 
ATOM      4  O   UNL     1       5.370   6.313  15.189  0.00  0.00    +0.000 OA
ATOM      5  H   UNL     1       6.124   4.724  17.790  0.00  0.00    +0.000 HD
BRANCH   2   9
ATOM      6  C   UNL     1       2.634   3.591  19.785  0.00  0.00    +0.000 C 
ATOM      7  N   UNL     1       2.885   3.676  18.373  0.00  0.00    +0.000 N 
ATOM      8  C   UNL     1       3.989   2.994  17.675  0.00  0.00    +0.000 C 
ATOM      9  C   UNL     1       4.206   4.284  16.855  0.00  0.00    +0.000 C 
ATOM     10  C   UNL     1       3.132   4.886  17.791  0.00  0.00    +0.000 C 
ATOM     11  O   UNL     1       2.764   6.005  18.070  0.00  0.00    +0.000 OA
ENDBRANCH   2   9
ENDBRANCH   1   3
BRANCH   1  12
ATOM     12  C   UNL     1       6.992   7.709  17.335  0.00  0.00    +0.000 C 
BRANCH  12  13
ATOM     13  C   UNL     1       8.258   8.044  18.127  0.00  0.00    +0.000 C 
BRANCH  13  14
ATOM     14  C   UNL     1       8.447   9.559  18.187  0.00  0.00    +0.000 C 
BRANCH  14  15
ATOM     15  C   UNL     1       9.306  10.011  19.376  0.00  0.00    +0.000 C 
BRANCH  15  16
ATOM     16  C   UNL     1       9.400  11.551  19.469  0.00  0.00    +0.000 C 
ATOM     17  C   UNL     1      10.473  12.056  20.452  0.00  0.00    +0.000 C 
ATOM     18  C   UNL     1      11.894  11.842  19.938  0.00  0.00    +0.000 C 
ATOM     19  C   UNL     1      12.091  12.496  18.575  0.00  0.00    +0.000 C 
ATOM     20  C   UNL     1      11.053  12.017  17.565  0.00  0.00    +0.000 C 
ATOM     21  C   UNL     1       9.626  12.189  18.084  0.00  0.00    +0.000 C 
ENDBRANCH  15  16
ENDBRANCH  14  15
ENDBRANCH  13  14
ENDBRANCH  12  13
ENDBRANCH   1  12
TORSDOF 7
ENDMDL
MODEL 3
REMARK VINA RESULT:      -6.6      1.534      1.880
REMARK  Name = 
REMARK  8 active torsions:
REMARK  status: ('A' for Active; 'I' for Inactive)
REMARK    1  A    between atoms: C_1  and  N_2
REMARK    2  A    between atoms: C_4  and  N_5
REMARK    3  A    between atoms: C_6  and  O_8
REMARK    4  A    between atoms: O_8  and  C_9
REMARK    5  A    between atoms: C_9  and  C_10
REMARK    6  A    between atoms: C_10  and  C_11
REMARK    7  A    between atoms: C_11  and  C_12
REMARK    8  A    between atoms: C_12  and  C_13
REMARK                            x       y       z     vdW  Elec       q    Type
REMARK                         _______ _______ _______ _____ _____    ______ ____
ROOT
ATOM      1  O   UNL     1       7.419   6.392  17.510  0.00  0.00    +0.000 OA
ENDROOT
BRANCH   1   3
ATOM      2  N   UNL     1       5.845   5.144  18.426  0.00  0.00    +0.000 N 
ATOM      3  C   UNL     1       6.086   6.267  17.703  0.00  0.00    +0.000 C 
ATOM      4  O   UNL     1       5.225   7.038  17.307  0.00  0.00    +0.000 OA
ATOM      5  H   UNL     1       6.667   4.616  18.692  0.00  0.00    +0.000 HD
BRANCH   2   9
ATOM      6  C   UNL     1       3.168   1.894  17.924  0.00  0.00    +0.000 C 
ATOM      7  N   UNL     1       3.311   3.143  18.620  0.00  0.00    +0.000 N 
ATOM      8  C   UNL     1       3.422   4.459  17.967  0.00  0.00    +0.000 C 
ATOM      9  C   UNL     1       4.520   4.822  18.992  0.00  0.00    +0.000 C 
ATOM     10  C   UNL     1       4.377   3.351  19.447  0.00  0.00    +0.000 C 
ATOM     11  O   UNL     1       5.040   2.590  20.115  0.00  0.00    +0.000 OA
ENDBRANCH   2   9
ENDBRANCH   1   3
BRANCH   1  12
ATOM     12  C   UNL     1       8.087   7.316  18.380  0.00  0.00    +0.000 C 
BRANCH  12  13
ATOM     13  C   UNL     1       8.107   8.725  17.783  0.00  0.00    +0.000 C 
BRANCH  13  14
ATOM     14  C   UNL     1       8.929   9.654  18.674  0.00  0.00    +0.000 C 
BRANCH  14  15
ATOM     15  C   UNL     1       8.987  11.095  18.148  0.00  0.00    +0.000 C 
BRANCH  15  16
ATOM     16  C   UNL     1      10.437  11.549  17.864  0.00  0.00    +0.000 C 
ATOM     17  C   UNL     1      10.554  13.001  17.361  0.00  0.00    +0.000 C 
ATOM     18  C   UNL     1      10.278  14.029  18.455  0.00  0.00    +0.000 C 
ATOM     19  C   UNL     1      11.198  13.819  19.652  0.00  0.00    +0.000 C 
ATOM     20  C   UNL     1      11.109  12.395  20.190  0.00  0.00    +0.000 C 
ATOM     21  C   UNL     1      11.343  11.354  19.096  0.00  0.00    +0.000 C 
ENDBRANCH  15  16
ENDBRANCH  14  15
ENDBRANCH  13  14
ENDBRANCH  12  13
ENDBRANCH   1  12
TORSDOF 7
ENDMDL
MODEL 4
REMARK VINA RESULT:      -6.5      1.713      2.021
REMARK  Name = 
REMARK  8 active torsions:
REMARK  status: ('A' for Active; 'I' for Inactive)
REMARK    1  A    between atoms: C_1  and  N_2
REMARK    2  A    between atoms: C_4  and  N_5
REMARK    3  A    between atoms: C_6  and  O_8
REMARK    4  A    between atoms: O_8  and  C_9
REMARK    5  A    between atoms: C_9  and  C_10
REMARK    6  A    between atoms: C_10  and  C_11
REMARK    7  A    between atoms: C_11  and  C_12
REMARK    8  A    between atoms: C_12  and  C_13
REMARK                            x       y       z     vdW  Elec       q    Type
REMARK                         _______ _______ _______ _____ _____    ______ ____
ROOT
ATOM      1  O   UNL     1       7.063   8.198  17.272  0.00  0.00    +0.000 OA
ENDROOT
BRANCH   1   3
ATOM      2  N   UNL     1       5.533   6.622  17.503  0.00  0.00    +0.000 N 
ATOM      3  C   UNL     1       6.747   6.916  16.974  0.00  0.00    +0.000 C 
ATOM      4  O   UNL     1       7.430   6.139  16.323  0.00  0.00    +0.000 OA
ATOM      5  H   UNL     1       5.086   7.380  18.006  0.00  0.00    +0.000 HD
BRANCH   2   9
ATOM      6  C   UNL     1       3.286   3.888  19.839  0.00  0.00    +0.000 C 
ATOM      7  N   UNL     1       3.730   4.126  18.493  0.00  0.00    +0.000 N 
ATOM      8  C   UNL     1       5.140   4.157  18.067  0.00  0.00    +0.000 C 
ATOM      9  C   UNL     1       4.799   5.381  17.189  0.00  0.00    +0.000 C 
ATOM     10  C   UNL     1       3.408   5.292  17.860  0.00  0.00    +0.000 C 
ATOM     11  O   UNL     1       2.457   6.032  17.969  0.00  0.00    +0.000 OA
ENDBRANCH   2   9
ENDBRANCH   1   3
BRANCH   1  12
ATOM     12  C   UNL     1       8.246   8.377  18.061  0.00  0.00    +0.000 C 
BRANCH  12  13
ATOM     13  C   UNL     1       8.610   9.858  18.190  0.00  0.00    +0.000 C 
BRANCH  13  14
ATOM     14  C   UNL     1       9.384  10.092  19.485  0.00  0.00    +0.000 C 
BRANCH  14  15
ATOM     15  C   UNL     1       9.410  11.567  19.911  0.00  0.00    +0.000 C 
BRANCH  15  16
ATOM     16  C   UNL     1      10.841  12.047  20.245  0.00  0.00    +0.000 C 
ATOM     17  C   UNL     1      11.911  11.583  19.239  0.00  0.00    +0.000 C 
ATOM     18  C   UNL     1      11.813  12.303  17.897  0.00  0.00    +0.000 C 
ATOM     19  C   UNL     1      11.891  13.814  18.076  0.00  0.00    +0.000 C 
ATOM     20  C   UNL     1      10.841  14.322  19.060  0.00  0.00    +0.000 C 
ATOM     21  C   UNL     1      10.902  13.580  20.395  0.00  0.00    +0.000 C 
ENDBRANCH  15  16
ENDBRANCH  14  15
ENDBRANCH  13  14
ENDBRANCH  12  13
ENDBRANCH   1  12
TORSDOF 7
ENDMDL
MODEL 5
REMARK VINA RESULT:      -6.5      1.826      2.706
REMARK  Name = 
REMARK  8 active torsions:
REMARK  status: ('A' for Active; 'I' for Inactive)
REMARK    1  A    between atoms: C_1  and  N_2
REMARK    2  A    between atoms: C_4  and  N_5
REMARK    3  A    between atoms: C_6  and  O_8
REMARK    4  A    between atoms: O_8  and  C_9
REMARK    5  A    between atoms: C_9  and  C_10
REMARK    6  A    between atoms: C_10  and  C_11
REMARK    7  A    between atoms: C_11  and  C_12
REMARK    8  A    between atoms: C_12  and  C_13
REMARK                            x       y       z     vdW  Elec       q    Type
REMARK                         _______ _______ _______ _____ _____    ______ ____
ROOT
ATOM      1  O   UNL     1       5.905   7.106  17.298  0.00  0.00    +0.000 OA
ENDROOT
BRANCH   1   3
ATOM      2  N   UNL     1       4.383   5.589  17.801  0.00  0.00    +0.000 N 
ATOM      3  C   UNL     1       5.123   6.122  16.797  0.00  0.00    +0.000 C 
ATOM      4  O   UNL     1       5.071   5.767  15.629  0.00  0.00    +0.000 OA
ATOM      5  H   UNL     1       4.530   6.002  18.714  0.00  0.00    +0.000 HD
BRANCH   2   9
ATOM      6  C   UNL     1       2.698   2.442  20.092  0.00  0.00    +0.000 C 
ATOM      7  N   UNL     1       2.569   3.114  18.828  0.00  0.00    +0.000 N 
ATOM      8  C   UNL     1       3.610   3.149  17.786  0.00  0.00    +0.000 C 
ATOM      9  C   UNL     1       3.276   4.640  17.567  0.00  0.00    +0.000 C 
ATOM     10  C   UNL     1       2.341   4.460  18.786  0.00  0.00    +0.000 C 
ATOM     11  O   UNL     1       1.770   5.205  19.550  0.00  0.00    +0.000 OA
ENDBRANCH   2   9
ENDBRANCH   1   3
BRANCH   1  12
ATOM     12  C   UNL     1       7.313   6.947  17.084  0.00  0.00    +0.000 C 
BRANCH  12  13
ATOM     13  C   UNL     1       8.123   7.598  18.208  0.00  0.00    +0.000 C 
BRANCH  13  14
ATOM     14  C   UNL     1       8.180   9.110  17.997  0.00  0.00    +0.000 C 
BRANCH  14  15
ATOM     15  C   UNL     1       9.166   9.811  18.943  0.00  0.00    +0.000 C 
BRANCH  15  16
ATOM     16  C   UNL     1       9.340  11.307  18.591  0.00  0.00    +0.000 C 
ATOM     17  C   UNL     1       9.203  12.256  19.797  0.00  0.00    +0.000 C 
ATOM     18  C   UNL     1      10.394  12.178  20.749  0.00  0.00    +0.000 C 
ATOM     19  C   UNL     1      11.703  12.454  20.018  0.00  0.00    +0.000 C 
ATOM     20  C   UNL     1      11.885  11.529  18.818  0.00  0.00    +0.000 C 
ATOM     21  C   UNL     1      10.682  11.567  17.877  0.00  0.00    +0.000 C 
ENDBRANCH  15  16
ENDBRANCH  14  15
ENDBRANCH  13  14
ENDBRANCH  12  13
ENDBRANCH   1  12
TORSDOF 7
ENDMDL
MODEL 6
REMARK VINA RESULT:      -6.5      1.647      2.209
REMARK  Name = 
REMARK  8 active torsions:
REMARK  status: ('A' for Active; 'I' for Inactive)
REMARK    1  A    between atoms: C_1  and  N_2
REMARK    2  A    between atoms: C_4  and  N_5
REMARK    3  A    between atoms: C_6  and  O_8
REMARK    4  A    between atoms: O_8  and  C_9
REMARK    5  A    between atoms: C_9  and  C_10
REMARK    6  A    between atoms: C_10  and  C_11
REMARK    7  A    between atoms: C_11  and  C_12
REMARK    8  A    between atoms: C_12  and  C_13
REMARK                            x       y       z     vdW  Elec       q    Type
REMARK                         _______ _______ _______ _____ _____    ______ ____
ROOT
ATOM      1  O   UNL     1       6.038   6.411  17.826  0.00  0.00    +0.000 OA
ENDROOT
BRANCH   1   3
ATOM      2  N   UNL     1       4.693   4.675  18.052  0.00  0.00    +0.000 N 
ATOM      3  C   UNL     1       5.980   5.094  18.132  0.00  0.00    +0.000 C 
ATOM      4  O   UNL     1       6.928   4.381  18.425  0.00  0.00    +0.000 OA
ATOM      5  H   UNL     1       4.022   5.385  17.784  0.00  0.00    +0.000 HD
BRANCH   2   9
ATOM      6  C   UNL     1       1.498   2.602  19.919  0.00  0.00    +0.000 C 
ATOM      7  N   UNL     1       2.668   2.385  19.113  0.00  0.00    +0.000 N 
ATOM      8  C   UNL     1       4.046   2.692  19.535  0.00  0.00    +0.000 C 
ATOM      9  C   UNL     1       4.306   3.252  18.119  0.00  0.00    +0.000 C 
ATOM     10  C   UNL     1       2.794   3.006  17.903  0.00  0.00    +0.000 C 
ATOM     11  O   UNL     1       1.970   3.371  17.095  0.00  0.00    +0.000 OA
ENDBRANCH   2   9
ENDBRANCH   1   3
BRANCH   1  12
ATOM     12  C   UNL     1       7.296   6.875  17.320  0.00  0.00    +0.000 C 
BRANCH  12  13
ATOM     13  C   UNL     1       8.053   7.687  18.373  0.00  0.00    +0.000 C 
BRANCH  13  14
ATOM     14  C   UNL     1       8.038   9.167  17.997  0.00  0.00    +0.000 C 
BRANCH  14  15
ATOM     15  C   UNL     1       9.389   9.859  18.226  0.00  0.00    +0.000 C 
BRANCH  15  16
ATOM     16  C   UNL     1       9.232  11.385  18.419  0.00  0.00    +0.000 C 
ATOM     17  C   UNL     1       9.183  11.830  19.893  0.00  0.00    +0.000 C 
ATOM     18  C   UNL     1      10.537  11.722  20.589  0.00  0.00    +0.000 C 
ATOM     19  C   UNL     1      11.604  12.515  19.843  0.00  0.00    +0.000 C 
ATOM     20  C   UNL     1      11.694  12.100  18.377  0.00  0.00    +0.000 C 
ATOM     21  C   UNL     1      10.337  12.165  17.679  0.00  0.00    +0.000 C 
ENDBRANCH  15  16
ENDBRANCH  14  15
ENDBRANCH  13  14
ENDBRANCH  12  13
ENDBRANCH   1  12
TORSDOF 7
ENDMDL
MODEL 7
REMARK VINA RESULT:      -6.4      4.834      8.083
REMARK  Name = 
REMARK  8 active torsions:
REMARK  status: ('A' for Active; 'I' for Inactive)
REMARK    1  A    between atoms: C_1  and  N_2
REMARK    2  A    between atoms: C_4  and  N_5
REMARK    3  A    between atoms: C_6  and  O_8
REMARK    4  A    between atoms: O_8  and  C_9
REMARK    5  A    between atoms: C_9  and  C_10
REMARK    6  A    between atoms: C_10  and  C_11
REMARK    7  A    between atoms: C_11  and  C_12
REMARK    8  A    between atoms: C_12  and  C_13
REMARK                            x       y       z     vdW  Elec       q    Type
REMARK                         _______ _______ _______ _____ _____    ______ ____
ROOT
ATOM      1  O   UNL     1       5.465   7.542  17.574  0.00  0.00    +0.000 OA
ENDROOT
BRANCH   1   3
ATOM      2  N   UNL     1       5.768   5.574  16.620  0.00  0.00    +0.000 N 
ATOM      3  C   UNL     1       6.339   6.524  17.403  0.00  0.00    +0.000 C 
ATOM      4  O   UNL     1       7.469   6.460  17.863  0.00  0.00    +0.000 OA
ATOM      5  H   UNL     1       4.827   5.781  16.306  0.00  0.00    +0.000 HD
BRANCH   2   9
ATOM      6  C   UNL     1       5.909   3.752  12.793  0.00  0.00    +0.000 C 
ATOM      7  N   UNL     1       6.460   3.647  14.116  0.00  0.00    +0.000 N 
ATOM      8  C   UNL     1       5.677   3.365  15.332  0.00  0.00    +0.000 C 
ATOM      9  C   UNL     1       6.520   4.431  16.066  0.00  0.00    +0.000 C 
ATOM     10  C   UNL     1       7.127   4.703  14.669  0.00  0.00    +0.000 C 
ATOM     11  O   UNL     1       7.777   5.594  14.173  0.00  0.00    +0.000 OA
ENDBRANCH   2   9
ENDBRANCH   1   3
BRANCH   1  12
ATOM     12  C   UNL     1       4.190   7.377  16.940  0.00  0.00    +0.000 C 
BRANCH  12  13
ATOM     13  C   UNL     1       3.049   7.807  17.865  0.00  0.00    +0.000 C 
BRANCH  13  14
ATOM     14  C   UNL     1       2.692   6.665  18.814  0.00  0.00    +0.000 C 
BRANCH  14  15
ATOM     15  C   UNL     1       2.158   5.424  18.087  0.00  0.00    +0.000 C 
BRANCH  15  16
ATOM     16  C   UNL     1       2.826   4.124  18.593  0.00  0.00    +0.000 C 
ATOM     17  C   UNL     1       3.284   4.185  20.062  0.00  0.00    +0.000 C 
ATOM     18  C   UNL     1       2.118   4.155  21.047  0.00  0.00    +0.000 C 
ATOM     19  C   UNL     1       1.242   2.927  20.826  0.00  0.00    +0.000 C 
ATOM     20  C   UNL     1       0.757   2.831  19.383  0.00  0.00    +0.000 C 
ATOM     21  C   UNL     1       1.912   2.900  18.385  0.00  0.00    +0.000 C 
ENDBRANCH  15  16
ENDBRANCH  14  15
ENDBRANCH  13  14
ENDBRANCH  12  13
ENDBRANCH   1  12
TORSDOF 7
ENDMDL
MODEL 8
REMARK VINA RESULT:      -6.4      1.514      1.918
REMARK  Name = 
REMARK  8 active torsions:
REMARK  status: ('A' for Active; 'I' for Inactive)
REMARK    1  A    between atoms: C_1  and  N_2
REMARK    2  A    between atoms: C_4  and  N_5
REMARK    3  A    between atoms: C_6  and  O_8
REMARK    4  A    between atoms: O_8  and  C_9
REMARK    5  A    between atoms: C_9  and  C_10
REMARK    6  A    between atoms: C_10  and  C_11
REMARK    7  A    between atoms: C_11  and  C_12
REMARK    8  A    between atoms: C_12  and  C_13
REMARK                            x       y       z     vdW  Elec       q    Type
REMARK                         _______ _______ _______ _____ _____    ______ ____
ROOT
ATOM      1  O   UNL     1       7.702   6.655  17.218  0.00  0.00    +0.000 OA
ENDROOT
BRANCH   1   3
ATOM      2  N   UNL     1       5.751   5.742  17.700  0.00  0.00    +0.000 N 
ATOM      3  C   UNL     1       6.628   6.015  16.702  0.00  0.00    +0.000 C 
ATOM      4  O   UNL     1       6.455   5.730  15.526  0.00  0.00    +0.000 OA
ATOM      5  H   UNL     1       6.033   6.055  18.621  0.00  0.00    +0.000 HD
BRANCH   2   9
ATOM      6  C   UNL     1       2.256   5.496  20.090  0.00  0.00    +0.000 C 
ATOM      7  N   UNL     1       2.751   5.186  18.777  0.00  0.00    +0.000 N 
ATOM      8  C   UNL     1       3.840   4.236  18.493  0.00  0.00    +0.000 C 
ATOM      9  C   UNL     1       4.384   5.240  17.454  0.00  0.00    +0.000 C 
ATOM     10  C   UNL     1       3.272   6.173  17.989  0.00  0.00    +0.000 C 
ATOM     11  O   UNL     1       3.036   7.357  17.918  0.00  0.00    +0.000 OA
ENDBRANCH   2   9
ENDBRANCH   1   3
BRANCH   1  12
ATOM     12  C   UNL     1       7.505   8.039  17.535  0.00  0.00    +0.000 C 
BRANCH  12  13
ATOM     13  C   UNL     1       8.586   8.550  18.490  0.00  0.00    +0.000 C 
BRANCH  13  14
ATOM     14  C   UNL     1       8.751  10.059  18.329  0.00  0.00    +0.000 C 
BRANCH  14  15
ATOM     15  C   UNL     1       9.514  10.708  19.492  0.00  0.00    +0.000 C 
BRANCH  15  16
ATOM     16  C   UNL     1      10.916  11.200  19.062  0.00  0.00    +0.000 C 
ATOM     17  C   UNL     1      10.939  11.915  17.698  0.00  0.00    +0.000 C 
ATOM     18  C   UNL     1      10.295  13.298  17.743  0.00  0.00    +0.000 C 
ATOM     19  C   UNL     1      10.953  14.177  18.801  0.00  0.00    +0.000 C 
ATOM     20  C   UNL     1      10.944  13.511  20.173  0.00  0.00    +0.000 C 
ATOM     21  C   UNL     1      11.550  12.108  20.134  0.00  0.00    +0.000 C 
ENDBRANCH  15  16
ENDBRANCH  14  15
ENDBRANCH  13  14
ENDBRANCH  12  13
ENDBRANCH   1  12
TORSDOF 7
ENDMDL
MODEL 9
REMARK VINA RESULT:      -6.4      1.422      2.066
REMARK  Name = 
REMARK  8 active torsions:
REMARK  status: ('A' for Active; 'I' for Inactive)
REMARK    1  A    between atoms: C_1  and  N_2
REMARK    2  A    between atoms: C_4  and  N_5
REMARK    3  A    between atoms: C_6  and  O_8
REMARK    4  A    between atoms: O_8  and  C_9
REMARK    5  A    between atoms: C_9  and  C_10
REMARK    6  A    between atoms: C_10  and  C_11
REMARK    7  A    between atoms: C_11  and  C_12
REMARK    8  A    between atoms: C_12  and  C_13
REMARK                            x       y       z     vdW  Elec       q    Type
REMARK                         _______ _______ _______ _____ _____    ______ ____
ROOT
ATOM      1  O   UNL     1       7.333   5.764  17.739  0.00  0.00    +0.000 OA
ENDROOT
BRANCH   1   3
ATOM      2  N   UNL     1       5.630   4.531  18.414  0.00  0.00    +0.000 N 
ATOM      3  C   UNL     1       6.235   5.085  17.333  0.00  0.00    +0.000 C 
ATOM      4  O   UNL     1       5.833   4.987  16.184  0.00  0.00    +0.000 OA
ATOM      5  H   UNL     1       6.080   4.715  19.303  0.00  0.00    +0.000 HD
BRANCH   2   9
ATOM      6  C   UNL     1       2.066   5.022  20.659  0.00  0.00    +0.000 C 
ATOM      7  N   UNL     1       2.620   4.266  19.570  0.00  0.00    +0.000 N 
ATOM      8  C   UNL     1       3.758   3.337  19.686  0.00  0.00    +0.000 C 
ATOM      9  C   UNL     1       4.296   3.902  18.353  0.00  0.00    +0.000 C 
ATOM     10  C   UNL     1       3.127   4.907  18.476  0.00  0.00    +0.000 C 
ATOM     11  O   UNL     1       2.843   5.964  17.957  0.00  0.00    +0.000 OA
ENDBRANCH   2   9
ENDBRANCH   1   3
BRANCH   1  12
ATOM     12  C   UNL     1       7.343   7.165  17.435  0.00  0.00    +0.000 C 
BRANCH  12  13
ATOM     13  C   UNL     1       8.308   7.925  18.348  0.00  0.00    +0.000 C 
BRANCH  13  14
ATOM     14  C   UNL     1       8.276   9.414  18.011  0.00  0.00    +0.000 C 
BRANCH  14  15
ATOM     15  C   UNL     1       9.175  10.256  18.928  0.00  0.00    +0.000 C 
BRANCH  15  16
ATOM     16  C   UNL     1       9.750  11.492  18.198  0.00  0.00    +0.000 C 
ATOM     17  C   UNL     1       9.199  12.837  18.709  0.00  0.00    +0.000 C 
ATOM     18  C   UNL     1       9.731  13.208  20.090  0.00  0.00    +0.000 C 
ATOM     19  C   UNL     1      11.255  13.234  20.104  0.00  0.00    +0.000 C 
ATOM     20  C   UNL     1      11.847  11.917  19.613  0.00  0.00    +0.000 C 
ATOM     21  C   UNL     1      11.291  11.512  18.248  0.00  0.00    +0.000 C 
ENDBRANCH  15  16
ENDBRANCH  14  15
ENDBRANCH  13  14
ENDBRANCH  12  13
ENDBRANCH   1  12
TORSDOF 7
ENDMDL
