MODEL 1
REMARK VINA RESULT:      -7.7      0.000      0.000
REMARK  Name = 
REMARK  6 active torsions:
REMARK  status: ('A' for Active; 'I' for Inactive)
REMARK    1  A    between atoms: C_1  and  O_2
REMARK    2  A    between atoms: O_2  and  C_3
REMARK    3  A    between atoms: C_6  and  C_7
REMARK    4  A    between atoms: C_11  and  C_12
REMARK    5  A    between atoms: C_17  and  C_18
REMARK    6  A    between atoms: C_20  and  O_21
REMARK                            x       y       z     vdW  Elec       q    Type
REMARK                         _______ _______ _______ _____ _____    ______ ____
ROOT
ATOM      1  C   UNL     1       2.716   5.559  18.193  0.00  0.00    +0.000 A 
ATOM      2  N   UNL     1       1.785   4.600  17.850  0.00  0.00    +0.000 N 
ATOM      3  C   UNL     1       2.441   3.509  17.371  0.00  0.00    +0.000 A 
ATOM      4  N   UNL     1       3.737   3.685  17.398  0.00  0.00    +0.000 NA
ATOM      5  C   UNL     1       3.943   4.952  17.910  0.00  0.00    +0.000 A 
ATOM      6  H   UNL     1       0.784   4.691  17.936  0.00  0.00    +0.000 HD
ENDROOT
BRANCH   5   7
ATOM      7  C   UNL     1       5.292   5.511  18.082  0.00  0.00    +0.000 A 
ATOM      8  C   UNL     1       6.004   5.266  19.271  0.00  0.00    +0.000 A 
ATOM      9  C   UNL     1       7.333   5.665  19.426  0.00  0.00    +0.000 A 
ATOM     10  C   UNL     1       7.959   6.384  18.419  0.00  0.00    +0.000 A 
ATOM     11  C   UNL     1       7.248   6.715  17.267  0.00  0.00    +0.000 A 
ATOM     12  C   UNL     1       5.917   6.289  17.081  0.00  0.00    +0.000 A 
ATOM     13  C   UNL     1       5.221   6.699  15.810  0.00  0.00    +0.000 C 
ENDBRANCH   5   7
BRANCH   1  17
ATOM     14  C   UNL     1       1.218   9.310  19.647  0.00  0.00    +0.000 A 
ATOM     15  C   UNL     1       1.472   9.121  18.285  0.00  0.00    +0.000 A 
ATOM     16  C   UNL     1       2.043   7.936  17.813  0.00  0.00    +0.000 A 
ATOM     17  C   UNL     1       2.319   6.882  18.689  0.00  0.00    +0.000 A 
ATOM     18  C   UNL     1       2.111   7.086  20.059  0.00  0.00    +0.000 A 
ATOM     19  C   UNL     1       1.573   8.294  20.537  0.00  0.00    +0.000 A 
BRANCH  14  21
ATOM     20  C   UNL     1      -0.718  10.706  19.481  0.00  0.00    +0.000 C 
ATOM     21  O   UNL     1       0.619  10.509  19.918  0.00  0.00    +0.000 OA
ENDBRANCH  14  21
BRANCH  19  22
ATOM     22  O   UNL     1       1.387   8.423  21.886  0.00  0.00    +0.000 OA
ATOM     23  H   UNL     1       0.558   7.991  22.145  0.00  0.00    +0.000 HD
ENDBRANCH  19  22
ENDBRANCH   1  17
TORSDOF 4
ENDMDL
MODEL 2
REMARK VINA RESULT:      -7.7      2.653      5.567
REMARK  Name = 
REMARK  6 active torsions:
REMARK  status: ('A' for Active; 'I' for Inactive)
REMARK    1  A    between atoms: C_1  and  O_2
REMARK    2  A    between atoms: O_2  and  C_3
REMARK    3  A    between atoms: C_6  and  C_7
REMARK    4  A    between atoms: C_11  and  C_12
REMARK    5  A    between atoms: C_17  and  C_18
REMARK    6  A    between atoms: C_20  and  O_21
REMARK                            x       y       z     vdW  Elec       q    Type
REMARK                         _______ _______ _______ _____ _____    ______ ____
ROOT
ATOM      1  C   UNL     1       4.121   4.872  17.703  0.00  0.00    +0.000 A 
ATOM      2  N   UNL     1       4.003   3.663  17.050  0.00  0.00    +0.000 N 
ATOM      3  C   UNL     1       2.699   3.277  17.081  0.00  0.00    +0.000 A 
ATOM      4  N   UNL     1       1.957   4.164  17.694  0.00  0.00    +0.000 NA
ATOM      5  C   UNL     1       2.813   5.175  18.090  0.00  0.00    +0.000 A 
ATOM      6  H   UNL     1       4.757   3.146  16.622  0.00  0.00    +0.000 HD
ENDROOT
BRANCH   5   7
ATOM      7  C   UNL     1       2.334   6.355  18.825  0.00  0.00    +0.000 A 
ATOM      8  C   UNL     1       2.272   7.604  18.179  0.00  0.00    +0.000 A 
ATOM      9  C   UNL     1       1.704   8.721  18.794  0.00  0.00    +0.000 A 
ATOM     10  C   UNL     1       1.249   8.631  20.100  0.00  0.00    +0.000 A 
ATOM     11  C   UNL     1       1.378   7.429  20.793  0.00  0.00    +0.000 A 
ATOM     12  C   UNL     1       1.917   6.283  20.174  0.00  0.00    +0.000 A 
ATOM     13  C   UNL     1       2.027   5.027  20.998  0.00  0.00    +0.000 C 
ENDBRANCH   5   7
BRANCH   1  17
ATOM     14  C   UNL     1       7.765   7.003  18.489  0.00  0.00    +0.000 A 
ATOM     15  C   UNL     1       6.975   7.322  17.380  0.00  0.00    +0.000 A 
ATOM     16  C   UNL     1       5.835   6.577  17.065  0.00  0.00    +0.000 A 
ATOM     17  C   UNL     1       5.422   5.527  17.891  0.00  0.00    +0.000 A 
ATOM     18  C   UNL     1       6.237   5.174  18.974  0.00  0.00    +0.000 A 
ATOM     19  C   UNL     1       7.405   5.900  19.266  0.00  0.00    +0.000 A 
BRANCH  14  21
ATOM     20  C   UNL     1       8.615   9.234  18.347  0.00  0.00    +0.000 C 
ATOM     21  O   UNL     1       8.812   7.864  18.665  0.00  0.00    +0.000 OA
ENDBRANCH  14  21
BRANCH  19  22
ATOM     22  O   UNL     1       8.150   5.507  20.344  0.00  0.00    +0.000 OA
ATOM     23  H   UNL     1       8.913   6.097  20.448  0.00  0.00    +0.000 HD
ENDBRANCH  19  22
ENDBRANCH   1  17
TORSDOF 4
ENDMDL
MODEL 3
REMARK VINA RESULT:      -7.7      4.415      7.041
REMARK  Name = 
REMARK  6 active torsions:
REMARK  status: ('A' for Active; 'I' for Inactive)
REMARK    1  A    between atoms: C_1  and  O_2
REMARK    2  A    between atoms: O_2  and  C_3
REMARK    3  A    between atoms: C_6  and  C_7
REMARK    4  A    between atoms: C_11  and  C_12
REMARK    5  A    between atoms: C_17  and  C_18
REMARK    6  A    between atoms: C_20  and  O_21
REMARK                            x       y       z     vdW  Elec       q    Type
REMARK                         _______ _______ _______ _____ _____    ______ ____
ROOT
ATOM      1  C   UNL     1       6.616   4.794  17.519  0.00  0.00    +0.000 A 
ATOM      2  N   UNL     1       7.734   5.312  18.138  0.00  0.00    +0.000 N 
ATOM      3  C   UNL     1       7.430   5.576  19.437  0.00  0.00    +0.000 A 
ATOM      4  N   UNL     1       6.194   5.244  19.711  0.00  0.00    +0.000 NA
ATOM      5  C   UNL     1       5.658   4.749  18.537  0.00  0.00    +0.000 A 
ATOM      6  H   UNL     1       8.629   5.474  17.701  0.00  0.00    +0.000 HD
ENDROOT
BRANCH   5   7
ATOM      7  C   UNL     1       4.268   4.279  18.454  0.00  0.00    +0.000 A 
ATOM      8  C   UNL     1       3.969   2.928  18.714  0.00  0.00    +0.000 A 
ATOM      9  C   UNL     1       2.653   2.467  18.775  0.00  0.00    +0.000 A 
ATOM     10  C   UNL     1       1.605   3.334  18.505  0.00  0.00    +0.000 A 
ATOM     11  C   UNL     1       1.878   4.656  18.160  0.00  0.00    +0.000 A 
ATOM     12  C   UNL     1       3.200   5.146  18.129  0.00  0.00    +0.000 A 
ATOM     13  C   UNL     1       3.405   6.586  17.738  0.00  0.00    +0.000 C 
ENDBRANCH   5   7
BRANCH   1  17
ATOM     14  C   UNL     1       6.365   4.095  13.291  0.00  0.00    +0.000 A 
ATOM     15  C   UNL     1       5.569   3.371  14.183  0.00  0.00    +0.000 A 
ATOM     16  C   UNL     1       5.706   3.527  15.566  0.00  0.00    +0.000 A 
ATOM     17  C   UNL     1       6.605   4.461  16.089  0.00  0.00    +0.000 A 
ATOM     18  C   UNL     1       7.438   5.152  15.200  0.00  0.00    +0.000 A 
ATOM     19  C   UNL     1       7.326   4.964  13.811  0.00  0.00    +0.000 A 
BRANCH  14  21
ATOM     20  C   UNL     1       4.846   3.173  11.689  0.00  0.00    +0.000 C 
ATOM     21  O   UNL     1       6.062   3.846  11.981  0.00  0.00    +0.000 OA
ENDBRANCH  14  21
BRANCH  19  22
ATOM     22  O   UNL     1       8.164   5.678  12.999  0.00  0.00    +0.000 OA
ATOM     23  H   UNL     1       8.534   6.429  13.489  0.00  0.00    +0.000 HD
ENDBRANCH  19  22
ENDBRANCH   1  17
TORSDOF 4
ENDMDL
MODEL 4
REMARK VINA RESULT:      -7.7      0.797      1.541
REMARK  Name = 
REMARK  6 active torsions:
REMARK  status: ('A' for Active; 'I' for Inactive)
REMARK    1  A    between atoms: C_1  and  O_2
REMARK    2  A    between atoms: O_2  and  C_3
REMARK    3  A    between atoms: C_6  and  C_7
REMARK    4  A    between atoms: C_11  and  C_12
REMARK    5  A    between atoms: C_17  and  C_18
REMARK    6  A    between atoms: C_20  and  O_21
REMARK                            x       y       z     vdW  Elec       q    Type
REMARK                         _______ _______ _______ _____ _____    ______ ____
ROOT
ATOM      1  C   UNL     1       2.892   5.125  18.235  0.00  0.00    +0.000 A 
ATOM      2  N   UNL     1       2.099   4.046  17.907  0.00  0.00    +0.000 N 
ATOM      3  C   UNL     1       2.895   3.046  17.442  0.00  0.00    +0.000 A 
ATOM      4  N   UNL     1       4.157   3.395  17.466  0.00  0.00    +0.000 NA
ATOM      5  C   UNL     1       4.190   4.685  17.960  0.00  0.00    +0.000 A 
ATOM      6  H   UNL     1       1.094   4.003  17.991  0.00  0.00    +0.000 HD
ENDROOT
BRANCH   5   7
ATOM      7  C   UNL     1       5.451   5.422  18.124  0.00  0.00    +0.000 A 
ATOM      8  C   UNL     1       6.209   5.259  19.298  0.00  0.00    +0.000 A 
ATOM      9  C   UNL     1       7.473   5.835  19.442  0.00  0.00    +0.000 A 
ATOM     10  C   UNL     1       7.977   6.650  18.440  0.00  0.00    +0.000 A 
ATOM     11  C   UNL     1       7.209   6.899  17.304  0.00  0.00    +0.000 A 
ATOM     12  C   UNL     1       5.946   6.295  17.128  0.00  0.00    +0.000 A 
ATOM     13  C   UNL     1       5.180   6.625  15.875  0.00  0.00    +0.000 C 
ENDBRANCH   5   7
BRANCH   1  17
ATOM     14  C   UNL     1       1.552   8.937  19.688  0.00  0.00    +0.000 A 
ATOM     15  C   UNL     1       1.589   7.822  20.532  0.00  0.00    +0.000 A 
ATOM     16  C   UNL     1       1.938   6.558  20.048  0.00  0.00    +0.000 A 
ATOM     17  C   UNL     1       2.319   6.390  18.713  0.00  0.00    +0.000 A 
ATOM     18  C   UNL     1       2.236   7.494  17.855  0.00  0.00    +0.000 A 
ATOM     19  C   UNL     1       1.846   8.756  18.335  0.00  0.00    +0.000 A 
BRANCH  14  21
ATOM     20  C   UNL     1      -0.139  10.442  20.460  0.00  0.00    +0.000 C 
ATOM     21  O   UNL     1       1.233  10.093  20.343  0.00  0.00    +0.000 OA
ENDBRANCH  14  21
BRANCH  19  22
ATOM     22  O   UNL     1       1.796   9.792  17.444  0.00  0.00    +0.000 OA
ATOM     23  H   UNL     1       0.888  10.128  17.381  0.00  0.00    +0.000 HD
ENDBRANCH  19  22
ENDBRANCH   1  17
TORSDOF 4
ENDMDL
MODEL 5
REMARK VINA RESULT:      -7.5      4.546      7.123
REMARK  Name = 
REMARK  6 active torsions:
REMARK  status: ('A' for Active; 'I' for Inactive)
REMARK    1  A    between atoms: C_1  and  O_2
REMARK    2  A    between atoms: O_2  and  C_3
REMARK    3  A    between atoms: C_6  and  C_7
REMARK    4  A    between atoms: C_11  and  C_12
REMARK    5  A    between atoms: C_17  and  C_18
REMARK    6  A    between atoms: C_20  and  O_21
REMARK                            x       y       z     vdW  Elec       q    Type
REMARK                         _______ _______ _______ _____ _____    ______ ____
ROOT
ATOM      1  C   UNL     1       6.584   4.750  17.645  0.00  0.00    +0.000 A 
ATOM      2  N   UNL     1       7.741   5.152  18.279  0.00  0.00    +0.000 N 
ATOM      3  C   UNL     1       7.447   5.452  19.573  0.00  0.00    +0.000 A 
ATOM      4  N   UNL     1       6.179   5.251  19.830  0.00  0.00    +0.000 NA
ATOM      5  C   UNL     1       5.612   4.808  18.649  0.00  0.00    +0.000 A 
ATOM      6  H   UNL     1       8.654   5.219  17.855  0.00  0.00    +0.000 HD
ENDROOT
BRANCH   5   7
ATOM      7  C   UNL     1       4.183   4.484  18.547  0.00  0.00    +0.000 A 
ATOM      8  C   UNL     1       3.294   5.409  17.967  0.00  0.00    +0.000 A 
ATOM      9  C   UNL     1       1.955   5.092  17.732  0.00  0.00    +0.000 A 
ATOM     10  C   UNL     1       1.455   3.865  18.139  0.00  0.00    +0.000 A 
ATOM     11  C   UNL     1       2.292   2.965  18.795  0.00  0.00    +0.000 A 
ATOM     12  C   UNL     1       3.656   3.256  19.008  0.00  0.00    +0.000 A 
ATOM     13  C   UNL     1       4.487   2.229  19.732  0.00  0.00    +0.000 C 
ENDBRANCH   5   7
BRANCH   1  17
ATOM     14  C   UNL     1       6.292   4.042  13.421  0.00  0.00    +0.000 A 
ATOM     15  C   UNL     1       5.504   3.320  14.323  0.00  0.00    +0.000 A 
ATOM     16  C   UNL     1       5.655   3.479  15.703  0.00  0.00    +0.000 A 
ATOM     17  C   UNL     1       6.559   4.413  16.216  0.00  0.00    +0.000 A 
ATOM     18  C   UNL     1       7.383   5.102  15.317  0.00  0.00    +0.000 A 
ATOM     19  C   UNL     1       7.258   4.911  13.930  0.00  0.00    +0.000 A 
BRANCH  14  21
ATOM     20  C   UNL     1       4.693   3.254  11.825  0.00  0.00    +0.000 C 
ATOM     21  O   UNL     1       5.976   3.790  12.115  0.00  0.00    +0.000 OA
ENDBRANCH  14  21
BRANCH  19  22
ATOM     22  O   UNL     1       8.088   5.624  13.109  0.00  0.00    +0.000 OA
ATOM     23  H   UNL     1       8.932   5.156  13.009  0.00  0.00    +0.000 HD
ENDBRANCH  19  22
ENDBRANCH   1  17
TORSDOF 4
ENDMDL
MODEL 6
REMARK VINA RESULT:      -7.4      3.541      6.121
REMARK  Name = 
REMARK  6 active torsions:
REMARK  status: ('A' for Active; 'I' for Inactive)
REMARK    1  A    between atoms: C_1  and  O_2
REMARK    2  A    between atoms: O_2  and  C_3
REMARK    3  A    between atoms: C_6  and  C_7
REMARK    4  A    between atoms: C_11  and  C_12
REMARK    5  A    between atoms: C_17  and  C_18
REMARK    6  A    between atoms: C_20  and  O_21
REMARK                            x       y       z     vdW  Elec       q    Type
REMARK                         _______ _______ _______ _____ _____    ______ ____
ROOT
ATOM      1  C   UNL     1       3.318   6.810  18.335  0.00  0.00    +0.000 A 
ATOM      2  N   UNL     1       3.082   8.162  18.202  0.00  0.00    +0.000 N 
ATOM      3  C   UNL     1       2.021   8.498  18.985  0.00  0.00    +0.000 A 
ATOM      4  N   UNL     1       1.565   7.458  19.636  0.00  0.00    +0.000 NA
ATOM      5  C   UNL     1       2.354   6.389  19.256  0.00  0.00    +0.000 A 
ATOM      6  H   UNL     1       3.603   8.799  17.618  0.00  0.00    +0.000 HD
ENDROOT
BRANCH   5   7
ATOM      7  C   UNL     1       2.133   5.034  19.781  0.00  0.00    +0.000 A 
ATOM      8  C   UNL     1       2.433   4.747  21.126  0.00  0.00    +0.000 A 
ATOM      9  C   UNL     1       2.117   3.514  21.701  0.00  0.00    +0.000 A 
ATOM     10  C   UNL     1       1.559   2.513  20.922  0.00  0.00    +0.000 A 
ATOM     11  C   UNL     1       1.333   2.742  19.566  0.00  0.00    +0.000 A 
ATOM     12  C   UNL     1       1.612   3.993  18.979  0.00  0.00    +0.000 A 
ATOM     13  C   UNL     1       1.344   4.151  17.505  0.00  0.00    +0.000 C 
ENDBRANCH   5   7
BRANCH   1  17
ATOM     14  C   UNL     1       6.592   5.097  16.150  0.00  0.00    +0.000 A 
ATOM     15  C   UNL     1       5.561   5.767  15.484  0.00  0.00    +0.000 A 
ATOM     16  C   UNL     1       4.447   6.250  16.176  0.00  0.00    +0.000 A 
ATOM     17  C   UNL     1       4.367   6.127  17.566  0.00  0.00    +0.000 A 
ATOM     18  C   UNL     1       5.373   5.414  18.229  0.00  0.00    +0.000 A 
ATOM     19  C   UNL     1       6.473   4.894  17.526  0.00  0.00    +0.000 A 
BRANCH  14  21
ATOM     20  C   UNL     1       7.435   4.887  13.921  0.00  0.00    +0.000 C 
ATOM     21  O   UNL     1       7.618   4.735  15.321  0.00  0.00    +0.000 OA
ENDBRANCH  14  21
BRANCH  19  22
ATOM     22  O   UNL     1       7.425   4.216  18.237  0.00  0.00    +0.000 OA
ATOM     23  H   UNL     1       8.300   4.376  17.850  0.00  0.00    +0.000 HD
ENDBRANCH  19  22
ENDBRANCH   1  17
TORSDOF 4
ENDMDL
MODEL 7
REMARK VINA RESULT:      -7.4      2.018      3.914
REMARK  Name = 
REMARK  6 active torsions:
REMARK  status: ('A' for Active; 'I' for Inactive)
REMARK    1  A    between atoms: C_1  and  O_2
REMARK    2  A    between atoms: O_2  and  C_3
REMARK    3  A    between atoms: C_6  and  C_7
REMARK    4  A    between atoms: C_11  and  C_12
REMARK    5  A    between atoms: C_17  and  C_18
REMARK    6  A    between atoms: C_20  and  O_21
REMARK                            x       y       z     vdW  Elec       q    Type
REMARK                         _______ _______ _______ _____ _____    ______ ____
ROOT
ATOM      1  C   UNL     1       3.861   6.092  18.310  0.00  0.00    +0.000 A 
ATOM      2  N   UNL     1       4.986   6.341  17.551  0.00  0.00    +0.000 N 
ATOM      3  C   UNL     1       5.703   5.190  17.446  0.00  0.00    +0.000 A 
ATOM      4  N   UNL     1       5.110   4.203  18.068  0.00  0.00    +0.000 NA
ATOM      5  C   UNL     1       3.955   4.731  18.615  0.00  0.00    +0.000 A 
ATOM      6  H   UNL     1       5.239   7.228  17.143  0.00  0.00    +0.000 HD
ENDROOT
BRANCH   5   7
ATOM      7  C   UNL     1       3.025   3.912  19.404  0.00  0.00    +0.000 A 
ATOM      8  C   UNL     1       3.415   3.429  20.667  0.00  0.00    +0.000 A 
ATOM      9  C   UNL     1       2.521   2.760  21.506  0.00  0.00    +0.000 A 
ATOM     10  C   UNL     1       1.233   2.494  21.067  0.00  0.00    +0.000 A 
ATOM     11  C   UNL     1       0.848   2.884  19.786  0.00  0.00    +0.000 A 
ATOM     12  C   UNL     1       1.727   3.592  18.942  0.00  0.00    +0.000 A 
ATOM     13  C   UNL     1       1.232   3.968  17.570  0.00  0.00    +0.000 C 
ENDBRANCH   5   7
BRANCH   1  17
ATOM     14  C   UNL     1       1.352   9.382  19.455  0.00  0.00    +0.000 A 
ATOM     15  C   UNL     1       1.461   8.249  20.268  0.00  0.00    +0.000 A 
ATOM     16  C   UNL     1       2.204   7.137  19.863  0.00  0.00    +0.000 A 
ATOM     17  C   UNL     1       2.909   7.155  18.655  0.00  0.00    +0.000 A 
ATOM     18  C   UNL     1       2.761   8.267  17.817  0.00  0.00    +0.000 A 
ATOM     19  C   UNL     1       1.981   9.369  18.209  0.00  0.00    +0.000 A 
BRANCH  14  21
ATOM     20  C   UNL     1      -0.754  10.490  19.701  0.00  0.00    +0.000 C 
ATOM     21  O   UNL     1       0.623  10.385  20.031  0.00  0.00    +0.000 OA
ENDBRANCH  14  21
BRANCH  19  22
ATOM     22  O   UNL     1       1.887  10.426  17.346  0.00  0.00    +0.000 OA
ATOM     23  H   UNL     1       2.335  10.210  16.513  0.00  0.00    +0.000 HD
ENDBRANCH  19  22
ENDBRANCH   1  17
TORSDOF 4
ENDMDL
MODEL 8
REMARK VINA RESULT:      -7.3      1.392      2.086
REMARK  Name = 
REMARK  6 active torsions:
REMARK  status: ('A' for Active; 'I' for Inactive)
REMARK    1  A    between atoms: C_1  and  O_2
REMARK    2  A    between atoms: O_2  and  C_3
REMARK    3  A    between atoms: C_6  and  C_7
REMARK    4  A    between atoms: C_11  and  C_12
REMARK    5  A    between atoms: C_17  and  C_18
REMARK    6  A    between atoms: C_20  and  O_21
REMARK                            x       y       z     vdW  Elec       q    Type
REMARK                         _______ _______ _______ _____ _____    ______ ____
ROOT
ATOM      1  C   UNL     1       2.840   4.456  18.653  0.00  0.00    +0.000 A 
ATOM      2  N   UNL     1       2.004   3.500  19.190  0.00  0.00    +0.000 N 
ATOM      3  C   UNL     1       2.442   2.271  18.803  0.00  0.00    +0.000 A 
ATOM      4  N   UNL     1       3.521   2.363  18.067  0.00  0.00    +0.000 NA
ATOM      5  C   UNL     1       3.799   3.713  17.958  0.00  0.00    +0.000 A 
ATOM      6  H   UNL     1       1.198   3.678  19.770  0.00  0.00    +0.000 HD
ENDROOT
BRANCH   5   7
ATOM      7  C   UNL     1       4.948   4.209  17.187  0.00  0.00    +0.000 A 
ATOM      8  C   UNL     1       5.003   3.997  15.797  0.00  0.00    +0.000 A 
ATOM      9  C   UNL     1       6.006   4.561  15.007  0.00  0.00    +0.000 A 
ATOM     10  C   UNL     1       7.022   5.294  15.603  0.00  0.00    +0.000 A 
ATOM     11  C   UNL     1       7.039   5.446  16.988  0.00  0.00    +0.000 A 
ATOM     12  C   UNL     1       6.013   4.912  17.795  0.00  0.00    +0.000 A 
ATOM     13  C   UNL     1       6.114   5.117  19.284  0.00  0.00    +0.000 C 
ENDBRANCH   5   7
BRANCH   1  17
ATOM     14  C   UNL     1       1.780   8.584  19.169  0.00  0.00    +0.000 A 
ATOM     15  C   UNL     1       2.182   8.100  17.921  0.00  0.00    +0.000 A 
ATOM     16  C   UNL     1       2.614   6.780  17.761  0.00  0.00    +0.000 A 
ATOM     17  C   UNL     1       2.597   5.892  18.840  0.00  0.00    +0.000 A 
ATOM     18  C   UNL     1       2.242   6.386  20.101  0.00  0.00    +0.000 A 
ATOM     19  C   UNL     1       1.846   7.725  20.268  0.00  0.00    +0.000 A 
BRANCH  14  21
ATOM     20  C   UNL     1       0.093  10.153  18.526  0.00  0.00    +0.000 C 
ATOM     21  O   UNL     1       1.351   9.881  19.127  0.00  0.00    +0.000 OA
ENDBRANCH  14  21
BRANCH  19  22
ATOM     22  O   UNL     1       1.503   8.139  21.525  0.00  0.00    +0.000 OA
ATOM     23  H   UNL     1       1.482   9.108  21.558  0.00  0.00    +0.000 HD
ENDBRANCH  19  22
ENDBRANCH   1  17
TORSDOF 4
ENDMDL
MODEL 9
REMARK VINA RESULT:      -7.2      1.668      1.936
REMARK  Name = 
REMARK  6 active torsions:
REMARK  status: ('A' for Active; 'I' for Inactive)
REMARK    1  A    between atoms: C_1  and  O_2
REMARK    2  A    between atoms: O_2  and  C_3
REMARK    3  A    between atoms: C_6  and  C_7
REMARK    4  A    between atoms: C_11  and  C_12
REMARK    5  A    between atoms: C_17  and  C_18
REMARK    6  A    between atoms: C_20  and  O_21
REMARK                            x       y       z     vdW  Elec       q    Type
REMARK                         _______ _______ _______ _____ _____    ______ ____
ROOT
ATOM      1  C   UNL     1       2.764   5.177  20.017  0.00  0.00    +0.000 A 
ATOM      2  N   UNL     1       1.969   4.411  20.844  0.00  0.00    +0.000 N 
ATOM      3  C   UNL     1       2.512   3.167  20.938  0.00  0.00    +0.000 A 
ATOM      4  N   UNL     1       3.618   3.079  20.244  0.00  0.00    +0.000 NA
ATOM      5  C   UNL     1       3.806   4.317  19.660  0.00  0.00    +0.000 A 
ATOM      6  H   UNL     1       1.124   4.718  21.301  0.00  0.00    +0.000 HD
ENDROOT
BRANCH   5   7
ATOM      7  C   UNL     1       4.956   4.599  18.789  0.00  0.00    +0.000 A 
ATOM      8  C   UNL     1       6.093   5.240  19.316  0.00  0.00    +0.000 A 
ATOM      9  C   UNL     1       7.256   5.410  18.562  0.00  0.00    +0.000 A 
ATOM     10  C   UNL     1       7.282   5.006  17.236  0.00  0.00    +0.000 A 
ATOM     11  C   UNL     1       6.141   4.447  16.664  0.00  0.00    +0.000 A 
ATOM     12  C   UNL     1       4.971   4.237  17.423  0.00  0.00    +0.000 A 
ATOM     13  C   UNL     1       3.781   3.634  16.724  0.00  0.00    +0.000 C 
ENDBRANCH   5   7
BRANCH   1  17
ATOM     14  C   UNL     1       1.401   9.103  18.939  0.00  0.00    +0.000 A 
ATOM     15  C   UNL     1       2.036   8.284  18.000  0.00  0.00    +0.000 A 
ATOM     16  C   UNL     1       2.563   7.041  18.363  0.00  0.00    +0.000 A 
ATOM     17  C   UNL     1       2.411   6.560  19.667  0.00  0.00    +0.000 A 
ATOM     18  C   UNL     1       1.820   7.398  20.620  0.00  0.00    +0.000 A 
ATOM     19  C   UNL     1       1.327   8.664  20.262  0.00  0.00    +0.000 A 
BRANCH  14  21
ATOM     20  C   UNL     1      -0.487  10.358  18.173  0.00  0.00    +0.000 C 
ATOM     21  O   UNL     1       0.912  10.259  18.396  0.00  0.00    +0.000 OA
ENDBRANCH  14  21
BRANCH  19  22
ATOM     22  O   UNL     1       0.752   9.427  21.241  0.00  0.00    +0.000 OA
ATOM     23  H   UNL     1       1.404   9.620  21.933  0.00  0.00    +0.000 HD
ENDBRANCH  19  22
ENDBRANCH   1  17
TORSDOF 4
ENDMDL
