MODEL 1
REMARK VINA RESULT:      -8.2      0.000      0.000
REMARK  Name = 
REMARK  4 active torsions:
REMARK  status: ('A' for Active; 'I' for Inactive)
REMARK    1  A    between atoms: C_2  and  C_19
REMARK    2  A    between atoms: N_3  and  C_4
REMARK    3  A    between atoms: C_7  and  S_8
REMARK    4  A    between atoms: S_8  and  N_11
REMARK                            x       y       z     vdW  Elec       q    Type
REMARK                         _______ _______ _______ _____ _____    ______ ____
ROOT
ATOM      1  C   UNL     1       1.541   8.245  19.868  0.00  0.00    +0.000 A 
ATOM      2  C   UNL     1       1.750   7.064  20.584  0.00  0.00    +0.000 A 
ATOM      3  C   UNL     1       2.514   6.018  20.045  0.00  0.00    +0.000 A 
ATOM      4  C   UNL     1       3.064   6.142  18.769  0.00  0.00    +0.000 A 
ATOM      5  C   UNL     1       2.931   7.349  18.075  0.00  0.00    +0.000 A 
ATOM      6  C   UNL     1       2.162   8.389  18.618  0.00  0.00    +0.000 A 
ENDROOT
BRANCH   1   9
ATOM      7  O   UNL     1       1.722   9.830  22.360  0.00  0.00    +0.000 OA
ATOM      8  C   UNL     1       0.858  10.012  21.511  0.00  0.00    +0.000 C 
ATOM      9  N   UNL     1       0.730   9.312  20.320  0.00  0.00    +0.000 N 
ATOM     10  H   UNL     1      -0.062   9.546  19.730  0.00  0.00    +0.000 HD
BRANCH   8  11
ATOM     11  C   UNL     1      -0.164  11.056  21.774  0.00  0.00    +0.000 A 
ATOM     12  C   UNL     1      -1.078  10.880  22.816  0.00  0.00    +0.000 A 
ATOM     13  F   UNL     1      -0.998   9.829  23.646  0.00  0.00    +0.000 F 
ATOM     14  C   UNL     1      -2.091  11.813  23.051  0.00  0.00    +0.000 A 
ATOM     15  C   UNL     1      -2.208  12.937  22.238  0.00  0.00    +0.000 A 
ATOM     16  C   UNL     1      -1.300  13.128  21.197  0.00  0.00    +0.000 A 
ATOM     17  C   UNL     1      -0.287  12.191  20.975  0.00  0.00    +0.000 A 
ATOM     18  F   UNL     1       0.566  12.414  19.963  0.00  0.00    +0.000 F 
ENDBRANCH   8  11
ENDBRANCH   1   9
BRANCH   4  19
ATOM     19  S   UNL     1       4.063   4.826  18.092  0.00  0.00    +0.000 S 
ATOM     20  O   UNL     1       4.606   4.101  19.223  0.00  0.00    +0.000 OA
ATOM     21  O   UNL     1       3.260   4.150  17.097  0.00  0.00    +0.000 OA
BRANCH  19  22
ATOM     22  N   UNL     1       5.352   5.571  17.300  0.00  0.00    +0.000 NA
ATOM     23  C   UNL     1       5.555   5.367  15.848  0.00  0.00    +0.000 C 
ATOM     24  C   UNL     1       6.569   4.250  15.589  0.00  0.00    +0.000 C 
ATOM     25  O   UNL     1       7.807   4.477  16.279  0.00  0.00    +0.000 OA
ATOM     26  C   UNL     1       7.618   4.646  17.692  0.00  0.00    +0.000 C 
ATOM     27  C   UNL     1       6.644   5.785  17.998  0.00  0.00    +0.000 C 
ENDBRANCH  19  22
ENDBRANCH   4  19
TORSDOF 4
ENDMDL
MODEL 2
REMARK VINA RESULT:      -8.2      0.116      1.624
REMARK  Name = 
REMARK  4 active torsions:
REMARK  status: ('A' for Active; 'I' for Inactive)
REMARK    1  A    between atoms: C_2  and  C_19
REMARK    2  A    between atoms: N_3  and  C_4
REMARK    3  A    between atoms: C_7  and  S_8
REMARK    4  A    between atoms: S_8  and  N_11
REMARK                            x       y       z     vdW  Elec       q    Type
REMARK                         _______ _______ _______ _____ _____    ______ ____
ROOT
ATOM      1  C   UNL     1       1.541   8.258  19.862  0.00  0.00    +0.000 A 
ATOM      2  C   UNL     1       1.735   7.071  20.573  0.00  0.00    +0.000 A 
ATOM      3  C   UNL     1       2.494   6.022  20.033  0.00  0.00    +0.000 A 
ATOM      4  C   UNL     1       3.055   6.150  18.761  0.00  0.00    +0.000 A 
ATOM      5  C   UNL     1       2.937   7.363  18.074  0.00  0.00    +0.000 A 
ATOM      6  C   UNL     1       2.173   8.405  18.619  0.00  0.00    +0.000 A 
ENDROOT
BRANCH   1   9
ATOM      7  O   UNL     1       1.702   9.811  22.376  0.00  0.00    +0.000 OA
ATOM      8  C   UNL     1       0.853  10.013  21.517  0.00  0.00    +0.000 C 
ATOM      9  N   UNL     1       0.734   9.329  20.315  0.00  0.00    +0.000 N 
ATOM     10  H   UNL     1      -0.046   9.578  19.717  0.00  0.00    +0.000 HD
BRANCH   8  11
ATOM     11  C   UNL     1      -0.162  11.065  21.777  0.00  0.00    +0.000 A 
ATOM     12  C   UNL     1      -0.142  12.244  21.028  0.00  0.00    +0.000 A 
ATOM     13  F   UNL     1       0.720  12.412  20.013  0.00  0.00    +0.000 F 
ATOM     14  C   UNL     1      -1.043  13.279  21.290  0.00  0.00    +0.000 A 
ATOM     15  C   UNL     1      -1.977  13.151  22.314  0.00  0.00    +0.000 A 
ATOM     16  C   UNL     1      -2.011  11.978  23.067  0.00  0.00    +0.000 A 
ATOM     17  C   UNL     1      -1.109  10.947  22.793  0.00  0.00    +0.000 A 
ATOM     18  F   UNL     1      -1.178   9.835  23.541  0.00  0.00    +0.000 F 
ENDBRANCH   8  11
ENDBRANCH   1   9
BRANCH   4  19
ATOM     19  S   UNL     1       4.048   4.830  18.084  0.00  0.00    +0.000 S 
ATOM     20  O   UNL     1       4.599   4.110  19.214  0.00  0.00    +0.000 OA
ATOM     21  O   UNL     1       3.238   4.151  17.097  0.00  0.00    +0.000 OA
BRANCH  19  22
ATOM     22  N   UNL     1       5.333   5.571  17.280  0.00  0.00    +0.000 NA
ATOM     23  C   UNL     1       5.534   5.347  15.830  0.00  0.00    +0.000 C 
ATOM     24  C   UNL     1       6.555   4.233  15.585  0.00  0.00    +0.000 C 
ATOM     25  O   UNL     1       7.792   4.475  16.271  0.00  0.00    +0.000 OA
ATOM     26  C   UNL     1       7.604   4.663  17.682  0.00  0.00    +0.000 C 
ATOM     27  C   UNL     1       6.624   5.801  17.973  0.00  0.00    +0.000 C 
ENDBRANCH  19  22
ENDBRANCH   4  19
TORSDOF 4
ENDMDL
MODEL 3
REMARK VINA RESULT:      -7.9      1.080      1.159
REMARK  Name = 
REMARK  4 active torsions:
REMARK  status: ('A' for Active; 'I' for Inactive)
REMARK    1  A    between atoms: C_2  and  C_19
REMARK    2  A    between atoms: N_3  and  C_4
REMARK    3  A    between atoms: C_7  and  S_8
REMARK    4  A    between atoms: S_8  and  N_11
REMARK                            x       y       z     vdW  Elec       q    Type
REMARK                         _______ _______ _______ _____ _____    ______ ____
ROOT
ATOM      1  C   UNL     1       1.027   8.891  19.773  0.00  0.00    +0.000 A 
ATOM      2  C   UNL     1       1.430   7.806  20.556  0.00  0.00    +0.000 A 
ATOM      3  C   UNL     1       2.328   6.851  20.058  0.00  0.00    +0.000 A 
ATOM      4  C   UNL     1       2.821   6.968  18.758  0.00  0.00    +0.000 A 
ATOM      5  C   UNL     1       2.490   8.092  17.993  0.00  0.00    +0.000 A 
ATOM      6  C   UNL     1       1.588   9.040  18.496  0.00  0.00    +0.000 A 
ENDROOT
BRANCH   1   9
ATOM      7  O   UNL     1       1.361  11.239  21.543  0.00  0.00    +0.000 OA
ATOM      8  C   UNL     1       0.291  10.933  21.031  0.00  0.00    +0.000 C 
ATOM      9  N   UNL     1       0.075   9.854  20.185  0.00  0.00    +0.000 N 
ATOM     10  H   UNL     1      -0.876   9.699  19.868  0.00  0.00    +0.000 HD
BRANCH   8  11
ATOM     11  C   UNL     1      -0.895  11.765  21.351  0.00  0.00    +0.000 A 
ATOM     12  C   UNL     1      -1.542  11.602  22.579  0.00  0.00    +0.000 A 
ATOM     13  F   UNL     1      -1.061  10.772  23.517  0.00  0.00    +0.000 F 
ATOM     14  C   UNL     1      -2.698  12.325  22.886  0.00  0.00    +0.000 A 
ATOM     15  C   UNL     1      -3.228  13.220  21.962  0.00  0.00    +0.000 A 
ATOM     16  C   UNL     1      -2.591  13.396  20.734  0.00  0.00    +0.000 A 
ATOM     17  C   UNL     1      -1.433  12.673  20.440  0.00  0.00    +0.000 A 
ATOM     18  F   UNL     1      -0.851  12.873  19.248  0.00  0.00    +0.000 F 
ENDBRANCH   8  11
ENDBRANCH   1   9
BRANCH   4  19
ATOM     19  S   UNL     1       3.989   5.772  18.132  0.00  0.00    +0.000 S 
ATOM     20  O   UNL     1       4.822   5.386  19.253  0.00  0.00    +0.000 OA
ATOM     21  O   UNL     1       3.233   4.782  17.397  0.00  0.00    +0.000 OA
BRANCH  19  22
ATOM     22  N   UNL     1       4.968   6.597  17.034  0.00  0.00    +0.000 NA
ATOM     23  C   UNL     1       5.113   6.104  15.645  0.00  0.00    +0.000 C 
ATOM     24  C   UNL     1       6.371   5.245  15.499  0.00  0.00    +0.000 C 
ATOM     25  O   UNL     1       7.548   5.930  15.954  0.00  0.00    +0.000 OA
ATOM     26  C   UNL     1       7.422   6.383  17.310  0.00  0.00    +0.000 C 
ATOM     27  C   UNL     1       6.201   7.286  17.491  0.00  0.00    +0.000 C 
ENDBRANCH  19  22
ENDBRANCH   4  19
TORSDOF 4
ENDMDL
MODEL 4
REMARK VINA RESULT:      -7.9      5.411      8.112
REMARK  Name = 
REMARK  4 active torsions:
REMARK  status: ('A' for Active; 'I' for Inactive)
REMARK    1  A    between atoms: C_2  and  C_19
REMARK    2  A    between atoms: N_3  and  C_4
REMARK    3  A    between atoms: C_7  and  S_8
REMARK    4  A    between atoms: S_8  and  N_11
REMARK                            x       y       z     vdW  Elec       q    Type
REMARK                         _______ _______ _______ _____ _____    ______ ____
ROOT
ATOM      1  C   UNL     1       7.899   8.304  17.827  0.00  0.00    +0.000 A 
ATOM      2  C   UNL     1       8.317   7.229  18.617  0.00  0.00    +0.000 A 
ATOM      3  C   UNL     1       7.536   6.069  18.730  0.00  0.00    +0.000 A 
ATOM      4  C   UNL     1       6.315   5.984  18.060  0.00  0.00    +0.000 A 
ATOM      5  C   UNL     1       5.923   7.017  17.203  0.00  0.00    +0.000 A 
ATOM      6  C   UNL     1       6.707   8.175  17.099  0.00  0.00    +0.000 A 
ENDROOT
BRANCH   1   9
ATOM      7  O   UNL     1       9.003  10.040  19.954  0.00  0.00    +0.000 OA
ATOM      8  C   UNL     1       9.085  10.306  18.762  0.00  0.00    +0.000 C 
ATOM      9  N   UNL     1       8.601   9.527  17.720  0.00  0.00    +0.000 N 
ATOM     10  H   UNL     1       8.706   9.896  16.781  0.00  0.00    +0.000 HD
BRANCH   8  11
ATOM     11  C   UNL     1       9.740  11.582  18.379  0.00  0.00    +0.000 A 
ATOM     12  C   UNL     1      11.066  11.816  18.752  0.00  0.00    +0.000 A 
ATOM     13  F   UNL     1      11.794  10.875  19.371  0.00  0.00    +0.000 F 
ATOM     14  C   UNL     1      11.692  13.031  18.462  0.00  0.00    +0.000 A 
ATOM     15  C   UNL     1      10.995  14.036  17.798  0.00  0.00    +0.000 A 
ATOM     16  C   UNL     1       9.672  13.815  17.416  0.00  0.00    +0.000 A 
ATOM     17  C   UNL     1       9.057  12.594  17.706  0.00  0.00    +0.000 A 
ATOM     18  F   UNL     1       7.784  12.422  17.320  0.00  0.00    +0.000 F 
ENDBRANCH   8  11
ENDBRANCH   1   9
BRANCH   4  19
ATOM     19  S   UNL     1       5.333   4.496  18.176  0.00  0.00    +0.000 S 
ATOM     20  O   UNL     1       5.468   3.816  16.904  0.00  0.00    +0.000 OA
ATOM     21  O   UNL     1       5.700   3.839  19.411  0.00  0.00    +0.000 OA
BRANCH  19  22
ATOM     22  N   UNL     1       3.729   4.999  18.314  0.00  0.00    +0.000 NA
ATOM     23  C   UNL     1       3.251   5.639  19.561  0.00  0.00    +0.000 C 
ATOM     24  C   UNL     1       2.583   4.613  20.480  0.00  0.00    +0.000 C 
ATOM     25  O   UNL     1       1.540   3.889  19.811  0.00  0.00    +0.000 OA
ATOM     26  C   UNL     1       2.006   3.243  18.617  0.00  0.00    +0.000 C 
ATOM     27  C   UNL     1       2.641   4.242  17.648  0.00  0.00    +0.000 C 
ENDBRANCH  19  22
ENDBRANCH   4  19
TORSDOF 4
ENDMDL
MODEL 5
REMARK VINA RESULT:      -7.9      5.386      8.179
REMARK  Name = 
REMARK  4 active torsions:
REMARK  status: ('A' for Active; 'I' for Inactive)
REMARK    1  A    between atoms: C_2  and  C_19
REMARK    2  A    between atoms: N_3  and  C_4
REMARK    3  A    between atoms: C_7  and  S_8
REMARK    4  A    between atoms: S_8  and  N_11
REMARK                            x       y       z     vdW  Elec       q    Type
REMARK                         _______ _______ _______ _____ _____    ______ ____
ROOT
ATOM      1  C   UNL     1       7.920   8.265  17.866  0.00  0.00    +0.000 A 
ATOM      2  C   UNL     1       8.311   7.185  18.662  0.00  0.00    +0.000 A 
ATOM      3  C   UNL     1       7.511   6.037  18.765  0.00  0.00    +0.000 A 
ATOM      4  C   UNL     1       6.298   5.969  18.079  0.00  0.00    +0.000 A 
ATOM      5  C   UNL     1       5.934   7.008  17.216  0.00  0.00    +0.000 A 
ATOM      6  C   UNL     1       6.736   8.154  17.122  0.00  0.00    +0.000 A 
ENDROOT
BRANCH   1   9
ATOM      7  O   UNL     1       8.975  10.013  20.008  0.00  0.00    +0.000 OA
ATOM      8  C   UNL     1       9.101  10.264  18.816  0.00  0.00    +0.000 C 
ATOM      9  N   UNL     1       8.641   9.478  17.768  0.00  0.00    +0.000 N 
ATOM     10  H   UNL     1       8.783   9.833  16.829  0.00  0.00    +0.000 HD
BRANCH   8  11
ATOM     11  C   UNL     1       9.786  11.526  18.441  0.00  0.00    +0.000 A 
ATOM     12  C   UNL     1       9.105  12.483  17.684  0.00  0.00    +0.000 A 
ATOM     13  F   UNL     1       7.811  12.328  17.364  0.00  0.00    +0.000 F 
ATOM     14  C   UNL     1       9.740  13.653  17.262  0.00  0.00    +0.000 A 
ATOM     15  C   UNL     1      11.074  13.880  17.586  0.00  0.00    +0.000 A 
ATOM     16  C   UNL     1      11.766  12.936  18.344  0.00  0.00    +0.000 A 
ATOM     17  C   UNL     1      11.119  11.772  18.767  0.00  0.00    +0.000 A 
ATOM     18  F   UNL     1      11.821  10.890  19.495  0.00  0.00    +0.000 F 
ENDBRANCH   8  11
ENDBRANCH   1   9
BRANCH   4  19
ATOM     19  S   UNL     1       5.292   4.497  18.182  0.00  0.00    +0.000 S 
ATOM     20  O   UNL     1       5.411   3.829  16.901  0.00  0.00    +0.000 OA
ATOM     21  O   UNL     1       5.654   3.819  19.407  0.00  0.00    +0.000 OA
BRANCH  19  22
ATOM     22  N   UNL     1       3.698   5.025  18.333  0.00  0.00    +0.000 NA
ATOM     23  C   UNL     1       3.241   5.675  19.582  0.00  0.00    +0.000 C 
ATOM     24  C   UNL     1       2.567   4.662  20.511  0.00  0.00    +0.000 C 
ATOM     25  O   UNL     1       1.506   3.952  19.854  0.00  0.00    +0.000 OA
ATOM     26  C   UNL     1       1.951   3.296  18.658  0.00  0.00    +0.000 C 
ATOM     27  C   UNL     1       2.592   4.282  17.679  0.00  0.00    +0.000 C 
ENDBRANCH  19  22
ENDBRANCH   4  19
TORSDOF 4
ENDMDL
MODEL 6
REMARK VINA RESULT:      -7.8      2.001      3.136
REMARK  Name = 
REMARK  4 active torsions:
REMARK  status: ('A' for Active; 'I' for Inactive)
REMARK    1  A    between atoms: C_2  and  C_19
REMARK    2  A    between atoms: N_3  and  C_4
REMARK    3  A    between atoms: C_7  and  S_8
REMARK    4  A    between atoms: S_8  and  N_11
REMARK                            x       y       z     vdW  Elec       q    Type
REMARK                         _______ _______ _______ _____ _____    ______ ____
ROOT
ATOM      1  C   UNL     1       0.931   8.912  19.994  0.00  0.00    +0.000 A 
ATOM      2  C   UNL     1       1.410   7.831  20.738  0.00  0.00    +0.000 A 
ATOM      3  C   UNL     1       2.324   6.922  20.185  0.00  0.00    +0.000 A 
ATOM      4  C   UNL     1       2.754   7.082  18.867  0.00  0.00    +0.000 A 
ATOM      5  C   UNL     1       2.346   8.204  18.139  0.00  0.00    +0.000 A 
ATOM      6  C   UNL     1       1.429   9.106  18.698  0.00  0.00    +0.000 A 
ENDROOT
BRANCH   1   9
ATOM      7  O   UNL     1       1.294  11.501  21.381  0.00  0.00    +0.000 OA
ATOM      8  C   UNL     1       0.194  11.028  21.122  0.00  0.00    +0.000 C 
ATOM      9  N   UNL     1      -0.039   9.829  20.464  0.00  0.00    +0.000 N 
ATOM     10  H   UNL     1      -1.006   9.543  20.355  0.00  0.00    +0.000 HD
BRANCH   8  11
ATOM     11  C   UNL     1      -1.006  11.781  21.563  0.00  0.00    +0.000 A 
ATOM     12  C   UNL     1      -1.500  12.820  20.770  0.00  0.00    +0.000 A 
ATOM     13  F   UNL     1      -0.967  13.096  19.571  0.00  0.00    +0.000 F 
ATOM     14  C   UNL     1      -2.590  13.588  21.186  0.00  0.00    +0.000 A 
ATOM     15  C   UNL     1      -3.201  13.331  22.410  0.00  0.00    +0.000 A 
ATOM     16  C   UNL     1      -2.722  12.294  23.211  0.00  0.00    +0.000 A 
ATOM     17  C   UNL     1      -1.634  11.528  22.782  0.00  0.00    +0.000 A 
ATOM     18  F   UNL     1      -1.206  10.540  23.582  0.00  0.00    +0.000 F 
ENDBRANCH   8  11
ENDBRANCH   1   9
BRANCH   4  19
ATOM     19  S   UNL     1       3.941   5.944  18.169  0.00  0.00    +0.000 S 
ATOM     20  O   UNL     1       4.597   6.650  17.087  0.00  0.00    +0.000 OA
ATOM     21  O   UNL     1       4.705   5.399  19.268  0.00  0.00    +0.000 OA
BRANCH  19  22
ATOM     22  N   UNL     1       3.046   4.688  17.486  0.00  0.00    +0.000 NA
ATOM     23  C   UNL     1       1.612   4.527  17.819  0.00  0.00    +0.000 C 
ATOM     24  C   UNL     1       1.423   3.506  18.944  0.00  0.00    +0.000 C 
ATOM     25  O   UNL     1       2.052   2.251  18.644  0.00  0.00    +0.000 OA
ATOM     26  C   UNL     1       3.449   2.400  18.350  0.00  0.00    +0.000 C 
ATOM     27  C   UNL     1       3.681   3.379  17.197  0.00  0.00    +0.000 C 
ENDBRANCH  19  22
ENDBRANCH   4  19
TORSDOF 4
ENDMDL
MODEL 7
REMARK VINA RESULT:      -7.8      1.041      1.943
REMARK  Name = 
REMARK  4 active torsions:
REMARK  status: ('A' for Active; 'I' for Inactive)
REMARK    1  A    between atoms: C_2  and  C_19
REMARK    2  A    between atoms: N_3  and  C_4
REMARK    3  A    between atoms: C_7  and  S_8
REMARK    4  A    between atoms: S_8  and  N_11
REMARK                            x       y       z     vdW  Elec       q    Type
REMARK                         _______ _______ _______ _____ _____    ______ ____
ROOT
ATOM      1  C   UNL     1       1.081   8.886  19.727  0.00  0.00    +0.000 A 
ATOM      2  C   UNL     1       1.486   7.806  20.516  0.00  0.00    +0.000 A 
ATOM      3  C   UNL     1       2.375   6.842  20.018  0.00  0.00    +0.000 A 
ATOM      4  C   UNL     1       2.855   6.945  18.712  0.00  0.00    +0.000 A 
ATOM      5  C   UNL     1       2.521   8.063  17.940  0.00  0.00    +0.000 A 
ATOM      6  C   UNL     1       1.629   9.020  18.443  0.00  0.00    +0.000 A 
ENDROOT
BRANCH   1   9
ATOM      7  O   UNL     1       1.377  11.102  21.665  0.00  0.00    +0.000 OA
ATOM      8  C   UNL     1       0.334  10.870  21.067  0.00  0.00    +0.000 C 
ATOM      9  N   UNL     1       0.138   9.857  20.139  0.00  0.00    +0.000 N 
ATOM     10  H   UNL     1      -0.795   9.759  19.753  0.00  0.00    +0.000 HD
BRANCH   8  11
ATOM     11  C   UNL     1      -0.842  11.726  21.364  0.00  0.00    +0.000 A 
ATOM     12  C   UNL     1      -1.228  12.711  20.452  0.00  0.00    +0.000 A 
ATOM     13  F   UNL     1      -0.614  12.843  19.266  0.00  0.00    +0.000 F 
ATOM     14  C   UNL     1      -2.291  13.573  20.730  0.00  0.00    +0.000 A 
ATOM     15  C   UNL     1      -2.982  13.467  21.933  0.00  0.00    +0.000 A 
ATOM     16  C   UNL     1      -2.611  12.486  22.852  0.00  0.00    +0.000 A 
ATOM     17  C   UNL     1      -1.549  11.624  22.561  0.00  0.00    +0.000 A 
ATOM     18  F   UNL     1      -1.226  10.694  23.473  0.00  0.00    +0.000 F 
ENDBRANCH   8  11
ENDBRANCH   1   9
BRANCH   4  19
ATOM     19  S   UNL     1       4.012   5.737  18.085  0.00  0.00    +0.000 S 
ATOM     20  O   UNL     1       4.866   5.372  19.197  0.00  0.00    +0.000 OA
ATOM     21  O   UNL     1       3.242   4.735  17.383  0.00  0.00    +0.000 OA
BRANCH  19  22
ATOM     22  N   UNL     1       4.969   6.543  16.954  0.00  0.00    +0.000 NA
ATOM     23  C   UNL     1       5.151   5.982  15.596  0.00  0.00    +0.000 C 
ATOM     24  C   UNL     1       6.445   5.169  15.509  0.00  0.00    +0.000 C 
ATOM     25  O   UNL     1       7.587   5.927  15.938  0.00  0.00    +0.000 OA
ATOM     26  C   UNL     1       7.426   6.447  17.266  0.00  0.00    +0.000 C 
ATOM     27  C   UNL     1       6.166   7.306  17.385  0.00  0.00    +0.000 C 
ENDBRANCH  19  22
ENDBRANCH   4  19
TORSDOF 4
ENDMDL
MODEL 8
REMARK VINA RESULT:      -7.8      1.928      2.805
REMARK  Name = 
REMARK  4 active torsions:
REMARK  status: ('A' for Active; 'I' for Inactive)
REMARK    1  A    between atoms: C_2  and  C_19
REMARK    2  A    between atoms: N_3  and  C_4
REMARK    3  A    between atoms: C_7  and  S_8
REMARK    4  A    between atoms: S_8  and  N_11
REMARK                            x       y       z     vdW  Elec       q    Type
REMARK                         _______ _______ _______ _____ _____    ______ ____
ROOT
ATOM      1  C   UNL     1       0.830   9.055  19.743  0.00  0.00    +0.000 A 
ATOM      2  C   UNL     1       1.360   9.134  18.453  0.00  0.00    +0.000 A 
ATOM      3  C   UNL     1       2.326   8.219  18.011  0.00  0.00    +0.000 A 
ATOM      4  C   UNL     1       2.783   7.219  18.871  0.00  0.00    +0.000 A 
ATOM      5  C   UNL     1       2.203   7.078  20.136  0.00  0.00    +0.000 A 
ATOM      6  C   UNL     1       1.241   8.000  20.571  0.00  0.00    +0.000 A 
ENDROOT
BRANCH   1   9
ATOM      7  O   UNL     1       1.302  11.425  21.450  0.00  0.00    +0.000 OA
ATOM      8  C   UNL     1       0.187  11.073  21.087  0.00  0.00    +0.000 C 
ATOM      9  N   UNL     1      -0.096   9.981  20.277  0.00  0.00    +0.000 N 
ATOM     10  H   UNL     1      -1.074   9.787  20.091  0.00  0.00    +0.000 HD
BRANCH   8  11
ATOM     11  C   UNL     1      -0.978  11.859  21.562  0.00  0.00    +0.000 A 
ATOM     12  C   UNL     1      -1.578  11.537  22.782  0.00  0.00    +0.000 A 
ATOM     13  F   UNL     1      -1.068  10.588  23.581  0.00  0.00    +0.000 F 
ATOM     14  C   UNL     1      -2.714  12.216  23.229  0.00  0.00    +0.000 A 
ATOM     15  C   UNL     1      -3.273  13.229  22.454  0.00  0.00    +0.000 A 
ATOM     16  C   UNL     1      -2.683  13.564  21.236  0.00  0.00    +0.000 A 
ATOM     17  C   UNL     1      -1.543  12.882  20.801  0.00  0.00    +0.000 A 
ATOM     18  F   UNL     1      -1.007  13.238  19.624  0.00  0.00    +0.000 F 
ENDBRANCH   8  11
ENDBRANCH   1   9
BRANCH   4  19
ATOM     19  S   UNL     1       3.990   6.032  18.302  0.00  0.00    +0.000 S 
ATOM     20  O   UNL     1       4.818   6.722  17.333  0.00  0.00    +0.000 OA
ATOM     21  O   UNL     1       4.575   5.423  19.476  0.00  0.00    +0.000 OA
BRANCH  19  22
ATOM     22  N   UNL     1       3.128   4.842  17.475  0.00  0.00    +0.000 NA
ATOM     23  C   UNL     1       1.708   4.581  17.807  0.00  0.00    +0.000 C 
ATOM     24  C   UNL     1       1.582   3.416  18.791  0.00  0.00    +0.000 C 
ATOM     25  O   UNL     1       2.251   2.237  18.319  0.00  0.00    +0.000 OA
ATOM     26  C   UNL     1       3.635   2.478  18.023  0.00  0.00    +0.000 C 
ATOM     27  C   UNL     1       3.804   3.607  17.006  0.00  0.00    +0.000 C 
ENDBRANCH  19  22
ENDBRANCH   4  19
TORSDOF 4
ENDMDL
MODEL 9
REMARK VINA RESULT:      -7.7      1.302      1.663
REMARK  Name = 
REMARK  4 active torsions:
REMARK  status: ('A' for Active; 'I' for Inactive)
REMARK    1  A    between atoms: C_2  and  C_19
REMARK    2  A    between atoms: N_3  and  C_4
REMARK    3  A    between atoms: C_7  and  S_8
REMARK    4  A    between atoms: S_8  and  N_11
REMARK                            x       y       z     vdW  Elec       q    Type
REMARK                         _______ _______ _______ _____ _____    ______ ____
ROOT
ATOM      1  C   UNL     1       1.569   8.887  19.507  0.00  0.00    +0.000 A 
ATOM      2  C   UNL     1       2.142   8.844  18.234  0.00  0.00    +0.000 A 
ATOM      3  C   UNL     1       2.880   7.728  17.811  0.00  0.00    +0.000 A 
ATOM      4  C   UNL     1       3.064   6.647  18.674  0.00  0.00    +0.000 A 
ATOM      5  C   UNL     1       2.428   6.642  19.920  0.00  0.00    +0.000 A 
ATOM      6  C   UNL     1       1.695   7.763  20.336  0.00  0.00    +0.000 A 
ENDROOT
BRANCH   1   9
ATOM      7  O   UNL     1      -1.137   9.888  18.850  0.00  0.00    +0.000 OA
ATOM      8  C   UNL     1      -0.401  10.432  19.664  0.00  0.00    +0.000 C 
ATOM      9  N   UNL     1       0.870  10.003  20.023  0.00  0.00    +0.000 N 
ATOM     10  H   UNL     1       1.381  10.578  20.684  0.00  0.00    +0.000 HD
BRANCH   8  11
ATOM     11  C   UNL     1      -0.885  11.673  20.319  0.00  0.00    +0.000 A 
ATOM     12  C   UNL     1      -1.254  11.645  21.666  0.00  0.00    +0.000 A 
ATOM     13  F   UNL     1      -1.094  10.540  22.410  0.00  0.00    +0.000 F 
ATOM     14  C   UNL     1      -1.772  12.779  22.295  0.00  0.00    +0.000 A 
ATOM     15  C   UNL     1      -1.936  13.962  21.580  0.00  0.00    +0.000 A 
ATOM     16  C   UNL     1      -1.569  14.007  20.235  0.00  0.00    +0.000 A 
ATOM     17  C   UNL     1      -1.045  12.867  19.617  0.00  0.00    +0.000 A 
ATOM     18  F   UNL     1      -0.704  12.954  18.323  0.00  0.00    +0.000 F 
ENDBRANCH   8  11
ENDBRANCH   1   9
BRANCH   4  19
ATOM     19  S   UNL     1       3.976   5.212  18.129  0.00  0.00    +0.000 S 
ATOM     20  O   UNL     1       4.480   4.567  19.325  0.00  0.00    +0.000 OA
ATOM     21  O   UNL     1       3.128   4.494  17.203  0.00  0.00    +0.000 OA
BRANCH  19  22
ATOM     22  N   UNL     1       5.304   5.795  17.269  0.00  0.00    +0.000 NA
ATOM     23  C   UNL     1       5.510   5.405  15.856  0.00  0.00    +0.000 C 
ATOM     24  C   UNL     1       6.475   4.222  15.750  0.00  0.00    +0.000 C 
ATOM     25  O   UNL     1       7.716   4.477  16.425  0.00  0.00    +0.000 OA
ATOM     26  C   UNL     1       7.523   4.827  17.804  0.00  0.00    +0.000 C 
ATOM     27  C   UNL     1       6.599   6.037  17.953  0.00  0.00    +0.000 C 
ENDBRANCH  19  22
ENDBRANCH   4  19
TORSDOF 4
ENDMDL
