MODEL 1
REMARK VINA RESULT:      -6.9      0.000      0.000
REMARK  Name = 
REMARK  6 active torsions:
REMARK  status: ('A' for Active; 'I' for Inactive)
REMARK    1  A    between atoms: O_1  and  C_2
REMARK    2  A    between atoms: C_2  and  C_3
REMARK    3  A    between atoms: C_2  and  C_12
REMARK    4  A    between atoms: C_3  and  S_4
REMARK    5  A    between atoms: S_4  and  C_5
REMARK    6  A    between atoms: C_12  and  N_13
REMARK                            x       y       z     vdW  Elec       q    Type
REMARK                         _______ _______ _______ _____ _____    ______ ____
ROOT
ATOM      1  C   UNL     1       2.790   2.745  17.884  0.00  0.00    +0.000 C 
ENDROOT
BRANCH   1   2
ATOM      2  O   UNL     1       2.419   1.419  18.299  0.00  0.00    +0.000 OA
ATOM      3  H   UNL     1       1.546   1.221  17.916  0.00  0.00    +0.000 HD
ENDBRANCH   1   2
BRANCH   1   4
ATOM      4  C   UNL     1       1.807   3.717  18.562  0.00  0.00    +0.000 C 
BRANCH   4   5
ATOM      5  S   UNL     1       2.502   4.502  20.054  0.00  0.00    +0.000 S 
BRANCH   5   6
ATOM      6  C   UNL     1       2.304   6.226  19.645  0.00  0.00    +0.000 A 
ATOM      7  C   UNL     1       2.599   6.660  18.347  0.00  0.00    +0.000 A 
ATOM      8  C   UNL     1       2.331   7.978  17.966  0.00  0.00    +0.000 A 
ATOM      9  C   UNL     1       1.765   8.854  18.886  0.00  0.00    +0.000 A 
ATOM     10  F   UNL     1       1.475  10.106  18.513  0.00  0.00    +0.000 F 
ATOM     11  C   UNL     1       1.480   8.441  20.183  0.00  0.00    +0.000 A 
ATOM     12  C   UNL     1       1.750   7.124  20.564  0.00  0.00    +0.000 A 
ENDBRANCH   5   6
ENDBRANCH   4   5
ENDBRANCH   1   4
BRANCH   1  13
ATOM     13  C   UNL     1       4.251   3.007  18.283  0.00  0.00    +0.000 C 
BRANCH  13  14
ATOM     14  N   UNL     1       4.871   4.083  17.516  0.00  0.00    +0.000 N 
ATOM     15  C   UNL     1       4.581   4.347  16.202  0.00  0.00    +0.000 A 
ATOM     16  C   UNL     1       5.409   5.359  15.776  0.00  0.00    +0.000 A 
ATOM     17  C   UNL     1       6.235   5.731  16.873  0.00  0.00    +0.000 A 
ATOM     18  C   UNL     1       7.259   6.684  17.034  0.00  0.00    +0.000 A 
ATOM     19  C   UNL     1       7.894   6.811  18.273  0.00  0.00    +0.000 A 
ATOM     20  C   UNL     1       7.520   6.003  19.344  0.00  0.00    +0.000 A 
ATOM     21  C   UNL     1       6.508   5.046  19.209  0.00  0.00    +0.000 A 
ATOM     22  C   UNL     1       5.876   4.922  17.959  0.00  0.00    +0.000 A 
ENDBRANCH  13  14
ENDBRANCH   1  13
TORSDOF 6
ENDMDL
MODEL 2
REMARK VINA RESULT:      -6.6      3.770      6.442
REMARK  Name = 
REMARK  6 active torsions:
REMARK  status: ('A' for Active; 'I' for Inactive)
REMARK    1  A    between atoms: O_1  and  C_2
REMARK    2  A    between atoms: C_2  and  C_3
REMARK    3  A    between atoms: C_2  and  C_12
REMARK    4  A    between atoms: C_3  and  S_4
REMARK    5  A    between atoms: S_4  and  C_5
REMARK    6  A    between atoms: C_12  and  N_13
REMARK                            x       y       z     vdW  Elec       q    Type
REMARK                         _______ _______ _______ _____ _____    ______ ____
ROOT
ATOM      1  C   UNL     1       5.860   5.285  18.746  0.00  0.00    +0.000 C 
ENDROOT
BRANCH   1   2
ATOM      2  O   UNL     1       6.815   5.088  19.802  0.00  0.00    +0.000 OA
ATOM      3  H   UNL     1       6.636   5.751  20.492  0.00  0.00    +0.000 HD
ENDBRANCH   1   2
BRANCH   1   4
ATOM      4  C   UNL     1       6.605   5.985  17.594  0.00  0.00    +0.000 C 
BRANCH   4   5
ATOM      5  S   UNL     1       5.497   6.488  16.236  0.00  0.00    +0.000 S 
BRANCH   5   6
ATOM      6  C   UNL     1       6.036   5.385  14.943  0.00  0.00    +0.000 A 
ATOM      7  C   UNL     1       5.163   4.391  14.483  0.00  0.00    +0.000 A 
ATOM      8  C   UNL     1       5.513   3.598  13.387  0.00  0.00    +0.000 A 
ATOM      9  C   UNL     1       6.733   3.806  12.754  0.00  0.00    +0.000 A 
ATOM     10  F   UNL     1       7.055   3.072  11.682  0.00  0.00    +0.000 F 
ATOM     11  C   UNL     1       7.617   4.778  13.209  0.00  0.00    +0.000 A 
ATOM     12  C   UNL     1       7.268   5.570  14.306  0.00  0.00    +0.000 A 
ENDBRANCH   5   6
ENDBRANCH   4   5
ENDBRANCH   1   4
BRANCH   1  13
ATOM     13  C   UNL     1       5.277   3.924  18.333  0.00  0.00    +0.000 C 
BRANCH  13  14
ATOM     14  N   UNL     1       3.822   3.872  18.420  0.00  0.00    +0.000 N 
ATOM     15  C   UNL     1       2.983   4.314  17.429  0.00  0.00    +0.000 A 
ATOM     16  C   UNL     1       1.689   4.201  17.882  0.00  0.00    +0.000 A 
ATOM     17  C   UNL     1       1.738   3.666  19.198  0.00  0.00    +0.000 A 
ATOM     18  C   UNL     1       0.751   3.343  20.149  0.00  0.00    +0.000 A 
ATOM     19  C   UNL     1       1.133   2.816  21.387  0.00  0.00    +0.000 A 
ATOM     20  C   UNL     1       2.478   2.612  21.683  0.00  0.00    +0.000 A 
ATOM     21  C   UNL     1       3.478   2.928  20.757  0.00  0.00    +0.000 A 
ATOM     22  C   UNL     1       3.087   3.459  19.515  0.00  0.00    +0.000 A 
ENDBRANCH  13  14
ENDBRANCH   1  13
TORSDOF 6
ENDMDL
MODEL 3
REMARK VINA RESULT:      -6.6      0.528      1.178
REMARK  Name = 
REMARK  6 active torsions:
REMARK  status: ('A' for Active; 'I' for Inactive)
REMARK    1  A    between atoms: O_1  and  C_2
REMARK    2  A    between atoms: C_2  and  C_3
REMARK    3  A    between atoms: C_2  and  C_12
REMARK    4  A    between atoms: C_3  and  S_4
REMARK    5  A    between atoms: S_4  and  C_5
REMARK    6  A    between atoms: C_12  and  N_13
REMARK                            x       y       z     vdW  Elec       q    Type
REMARK                         _______ _______ _______ _____ _____    ______ ____
ROOT
ATOM      1  C   UNL     1       2.561   3.568  17.834  0.00  0.00    +0.000 C 
ENDROOT
BRANCH   1   2
ATOM      2  O   UNL     1       1.996   2.357  17.305  0.00  0.00    +0.000 OA
ATOM      3  H   UNL     1       2.169   1.643  17.944  0.00  0.00    +0.000 HD
ENDBRANCH   1   2
BRANCH   1   4
ATOM      4  C   UNL     1       1.878   3.823  19.191  0.00  0.00    +0.000 C 
BRANCH   4   5
ATOM      5  S   UNL     1       2.847   4.925  20.275  0.00  0.00    +0.000 S 
BRANCH   5   6
ATOM      6  C   UNL     1       2.297   6.521  19.701  0.00  0.00    +0.000 A 
ATOM      7  C   UNL     1       1.584   7.353  20.573  0.00  0.00    +0.000 A 
ATOM      8  C   UNL     1       1.254   8.657  20.190  0.00  0.00    +0.000 A 
ATOM      9  C   UNL     1       1.641   9.121  18.939  0.00  0.00    +0.000 A 
ATOM     10  F   UNL     1       1.357  10.380  18.584  0.00  0.00    +0.000 F 
ATOM     11  C   UNL     1       2.336   8.302  18.057  0.00  0.00    +0.000 A 
ATOM     12  C   UNL     1       2.665   6.998  18.438  0.00  0.00    +0.000 A 
ENDBRANCH   5   6
ENDBRANCH   4   5
ENDBRANCH   1   4
BRANCH   1  13
ATOM     13  C   UNL     1       4.084   3.401  17.960  0.00  0.00    +0.000 C 
BRANCH  13  14
ATOM     14  N   UNL     1       4.833   4.493  17.348  0.00  0.00    +0.000 N 
ATOM     15  C   UNL     1       4.634   4.928  16.063  0.00  0.00    +0.000 A 
ATOM     16  C   UNL     1       5.568   5.900  15.791  0.00  0.00    +0.000 A 
ATOM     17  C   UNL     1       6.367   6.069  16.955  0.00  0.00    +0.000 A 
ATOM     18  C   UNL     1       7.461   6.899  17.266  0.00  0.00    +0.000 A 
ATOM     19  C   UNL     1       8.042   6.827  18.536  0.00  0.00    +0.000 A 
ATOM     20  C   UNL     1       7.545   5.943  19.491  0.00  0.00    +0.000 A 
ATOM     21  C   UNL     1       6.461   5.105  19.205  0.00  0.00    +0.000 A 
ATOM     22  C   UNL     1       5.884   5.181  17.925  0.00  0.00    +0.000 A 
ENDBRANCH  13  14
ENDBRANCH   1  13
TORSDOF 6
ENDMDL
MODEL 4
REMARK VINA RESULT:      -6.5      2.586      4.446
REMARK  Name = 
REMARK  6 active torsions:
REMARK  status: ('A' for Active; 'I' for Inactive)
REMARK    1  A    between atoms: O_1  and  C_2
REMARK    2  A    between atoms: C_2  and  C_3
REMARK    3  A    between atoms: C_2  and  C_12
REMARK    4  A    between atoms: C_3  and  S_4
REMARK    5  A    between atoms: S_4  and  C_5
REMARK    6  A    between atoms: C_12  and  N_13
REMARK                            x       y       z     vdW  Elec       q    Type
REMARK                         _______ _______ _______ _____ _____    ______ ____
ROOT
ATOM      1  C   UNL     1       4.427   6.811  17.688  0.00  0.00    +0.000 C 
ENDROOT
BRANCH   1   2
ATOM      2  O   UNL     1       4.700   6.816  16.277  0.00  0.00    +0.000 OA
ATOM      3  H   UNL     1       4.716   7.743  15.980  0.00  0.00    +0.000 HD
ENDBRANCH   1   2
BRANCH   1   4
ATOM      4  C   UNL     1       2.903   6.966  17.849  0.00  0.00    +0.000 C 
BRANCH   4   5
ATOM      5  S   UNL     1       2.355   8.704  17.760  0.00  0.00    +0.000 S 
BRANCH   5   6
ATOM      6  C   UNL     1       1.497   8.860  19.315  0.00  0.00    +0.000 A 
ATOM      7  C   UNL     1       0.521   9.854  19.461  0.00  0.00    +0.000 A 
ATOM      8  C   UNL     1      -0.254   9.915  20.623  0.00  0.00    +0.000 A 
ATOM      9  C   UNL     1      -0.050   8.979  21.631  0.00  0.00    +0.000 A 
ATOM     10  F   UNL     1      -0.815   9.014  22.729  0.00  0.00    +0.000 F 
ATOM     11  C   UNL     1       0.925   7.996  21.506  0.00  0.00    +0.000 A 
ATOM     12  C   UNL     1       1.701   7.936  20.346  0.00  0.00    +0.000 A 
ENDBRANCH   5   6
ENDBRANCH   4   5
ENDBRANCH   1   4
BRANCH   1  13
ATOM     13  C   UNL     1       4.956   5.504  18.299  0.00  0.00    +0.000 C 
BRANCH  13  14
ATOM     14  N   UNL     1       3.990   4.412  18.246  0.00  0.00    +0.000 N 
ATOM     15  C   UNL     1       3.756   3.655  17.127  0.00  0.00    +0.000 A 
ATOM     16  C   UNL     1       2.726   2.787  17.405  0.00  0.00    +0.000 A 
ATOM     17  C   UNL     1       2.317   3.019  18.747  0.00  0.00    +0.000 A 
ATOM     18  C   UNL     1       1.323   2.451  19.567  0.00  0.00    +0.000 A 
ATOM     19  C   UNL     1       1.168   2.910  20.879  0.00  0.00    +0.000 A 
ATOM     20  C   UNL     1       1.988   3.920  21.376  0.00  0.00    +0.000 A 
ATOM     21  C   UNL     1       2.980   4.503  20.579  0.00  0.00    +0.000 A 
ATOM     22  C   UNL     1       3.128   4.039  19.260  0.00  0.00    +0.000 A 
ENDBRANCH  13  14
ENDBRANCH   1  13
TORSDOF 6
ENDMDL
MODEL 5
REMARK VINA RESULT:      -6.4      2.427      5.117
REMARK  Name = 
REMARK  6 active torsions:
REMARK  status: ('A' for Active; 'I' for Inactive)
REMARK    1  A    between atoms: O_1  and  C_2
REMARK    2  A    between atoms: C_2  and  C_3
REMARK    3  A    between atoms: C_2  and  C_12
REMARK    4  A    between atoms: C_3  and  S_4
REMARK    5  A    between atoms: S_4  and  C_5
REMARK    6  A    between atoms: C_12  and  N_13
REMARK                            x       y       z     vdW  Elec       q    Type
REMARK                         _______ _______ _______ _____ _____    ______ ____
ROOT
ATOM      1  C   UNL     1       3.907   2.427  17.724  0.00  0.00    +0.000 C 
ENDROOT
BRANCH   1   2
ATOM      2  O   UNL     1       2.536   1.997  17.767  0.00  0.00    +0.000 OA
ATOM      3  H   UNL     1       2.392   1.546  18.618  0.00  0.00    +0.000 HD
ENDBRANCH   1   2
BRANCH   1   4
ATOM      4  C   UNL     1       3.957   3.668  16.813  0.00  0.00    +0.000 C 
BRANCH   4   5
ATOM      5  S   UNL     1       5.457   3.724  15.775  0.00  0.00    +0.000 S 
BRANCH   5   6
ATOM      6  C   UNL     1       6.438   4.910  16.675  0.00  0.00    +0.000 A 
ATOM      7  C   UNL     1       6.264   6.276  16.421  0.00  0.00    +0.000 A 
ATOM      8  C   UNL     1       6.927   7.228  17.201  0.00  0.00    +0.000 A 
ATOM      9  C   UNL     1       7.757   6.808  18.234  0.00  0.00    +0.000 A 
ATOM     10  F   UNL     1       8.366   7.718  19.004  0.00  0.00    +0.000 F 
ATOM     11  C   UNL     1       7.951   5.455  18.489  0.00  0.00    +0.000 A 
ATOM     12  C   UNL     1       7.290   4.503  17.708  0.00  0.00    +0.000 A 
ENDBRANCH   5   6
ENDBRANCH   4   5
ENDBRANCH   1   4
BRANCH   1  13
ATOM     13  C   UNL     1       4.388   2.722  19.154  0.00  0.00    +0.000 C 
BRANCH  13  14
ATOM     14  N   UNL     1       3.385   3.400  19.968  0.00  0.00    +0.000 N 
ATOM     15  C   UNL     1       2.589   2.761  20.884  0.00  0.00    +0.000 A 
ATOM     16  C   UNL     1       1.704   3.680  21.397  0.00  0.00    +0.000 A 
ATOM     17  C   UNL     1       1.972   4.930  20.773  0.00  0.00    +0.000 A 
ATOM     18  C   UNL     1       1.397   6.211  20.887  0.00  0.00    +0.000 A 
ATOM     19  C   UNL     1       1.902   7.263  20.117  0.00  0.00    +0.000 A 
ATOM     20  C   UNL     1       2.965   7.052  19.243  0.00  0.00    +0.000 A 
ATOM     21  C   UNL     1       3.551   5.789  19.109  0.00  0.00    +0.000 A 
ATOM     22  C   UNL     1       3.036   4.734  19.885  0.00  0.00    +0.000 A 
ENDBRANCH  13  14
ENDBRANCH   1  13
TORSDOF 6
ENDMDL
MODEL 6
REMARK VINA RESULT:      -6.4      3.136      5.904
REMARK  Name = 
REMARK  6 active torsions:
REMARK  status: ('A' for Active; 'I' for Inactive)
REMARK    1  A    between atoms: O_1  and  C_2
REMARK    2  A    between atoms: C_2  and  C_3
REMARK    3  A    between atoms: C_2  and  C_12
REMARK    4  A    between atoms: C_3  and  S_4
REMARK    5  A    between atoms: S_4  and  C_5
REMARK    6  A    between atoms: C_12  and  N_13
REMARK                            x       y       z     vdW  Elec       q    Type
REMARK                         _______ _______ _______ _____ _____    ______ ____
ROOT
ATOM      1  C   UNL     1       4.126   6.205  17.686  0.00  0.00    +0.000 C 
ENDROOT
BRANCH   1   2
ATOM      2  O   UNL     1       5.215   7.128  17.520  0.00  0.00    +0.000 OA
ATOM      3  H   UNL     1       6.044   6.642  17.674  0.00  0.00    +0.000 HD
ENDBRANCH   1   2
BRANCH   1   4
ATOM      4  C   UNL     1       4.742   4.795  17.751  0.00  0.00    +0.000 C 
BRANCH   4   5
ATOM      5  S   UNL     1       3.597   3.495  17.180  0.00  0.00    +0.000 S 
BRANCH   5   6
ATOM      6  C   UNL     1       2.753   3.106  18.701  0.00  0.00    +0.000 A 
ATOM      7  C   UNL     1       3.504   2.752  19.830  0.00  0.00    +0.000 A 
ATOM      8  C   UNL     1       2.875   2.567  21.064  0.00  0.00    +0.000 A 
ATOM      9  C   UNL     1       1.499   2.741  21.164  0.00  0.00    +0.000 A 
ATOM     10  F   UNL     1       0.900   2.599  22.353  0.00  0.00    +0.000 F 
ATOM     11  C   UNL     1       0.739   3.077  20.050  0.00  0.00    +0.000 A 
ATOM     12  C   UNL     1       1.367   3.260  18.815  0.00  0.00    +0.000 A 
ENDBRANCH   5   6
ENDBRANCH   4   5
ENDBRANCH   1   4
BRANCH   1  13
ATOM     13  C   UNL     1       3.347   6.569  18.960  0.00  0.00    +0.000 C 
BRANCH  13  14
ATOM     14  N   UNL     1       2.475   7.726  18.788  0.00  0.00    +0.000 N 
ATOM     15  C   UNL     1       2.426   8.480  17.643  0.00  0.00    +0.000 A 
ATOM     16  C   UNL     1       1.572   9.536  17.862  0.00  0.00    +0.000 A 
ATOM     17  C   UNL     1       1.076   9.421  19.190  0.00  0.00    +0.000 A 
ATOM     18  C   UNL     1       0.190  10.196  19.963  0.00  0.00    +0.000 A 
ATOM     19  C   UNL     1      -0.105   9.805  21.273  0.00  0.00    +0.000 A 
ATOM     20  C   UNL     1       0.469   8.657  21.814  0.00  0.00    +0.000 A 
ATOM     21  C   UNL     1       1.355   7.872  21.067  0.00  0.00    +0.000 A 
ATOM     22  C   UNL     1       1.649   8.273  19.752  0.00  0.00    +0.000 A 
ENDBRANCH  13  14
ENDBRANCH   1  13
TORSDOF 6
ENDMDL
MODEL 7
REMARK VINA RESULT:      -6.4      2.411      5.210
REMARK  Name = 
REMARK  6 active torsions:
REMARK  status: ('A' for Active; 'I' for Inactive)
REMARK    1  A    between atoms: O_1  and  C_2
REMARK    2  A    between atoms: C_2  and  C_3
REMARK    3  A    between atoms: C_2  and  C_12
REMARK    4  A    between atoms: C_3  and  S_4
REMARK    5  A    between atoms: S_4  and  C_5
REMARK    6  A    between atoms: C_12  and  N_13
REMARK                            x       y       z     vdW  Elec       q    Type
REMARK                         _______ _______ _______ _____ _____    ______ ____
ROOT
ATOM      1  C   UNL     1       3.585   2.946  17.243  0.00  0.00    +0.000 C 
ENDROOT
BRANCH   1   2
ATOM      2  O   UNL     1       2.160   3.135  17.258  0.00  0.00    +0.000 OA
ATOM      3  H   UNL     1       1.986   4.090  17.181  0.00  0.00    +0.000 HD
ENDBRANCH   1   2
BRANCH   1   4
ATOM      4  C   UNL     1       4.174   4.059  16.357  0.00  0.00    +0.000 C 
BRANCH   4   5
ATOM      5  S   UNL     1       5.948   3.818  16.004  0.00  0.00    +0.000 S 
BRANCH   5   6
ATOM      6  C   UNL     1       6.659   5.139  16.967  0.00  0.00    +0.000 A 
ATOM      7  C   UNL     1       7.294   4.837  18.179  0.00  0.00    +0.000 A 
ATOM      8  C   UNL     1       7.969   5.835  18.887  0.00  0.00    +0.000 A 
ATOM      9  C   UNL     1       8.009   7.128  18.379  0.00  0.00    +0.000 A 
ATOM     10  F   UNL     1       8.684   8.077  19.038  0.00  0.00    +0.000 F 
ATOM     11  C   UNL     1       7.371   7.446  17.185  0.00  0.00    +0.000 A 
ATOM     12  C   UNL     1       6.694   6.449  16.477  0.00  0.00    +0.000 A 
ENDBRANCH   5   6
ENDBRANCH   4   5
ENDBRANCH   1   4
BRANCH   1  13
ATOM     13  C   UNL     1       4.114   2.995  18.685  0.00  0.00    +0.000 C 
BRANCH  13  14
ATOM     14  N   UNL     1       3.184   3.623  19.617  0.00  0.00    +0.000 N 
ATOM     15  C   UNL     1       2.433   2.928  20.530  0.00  0.00    +0.000 A 
ATOM     16  C   UNL     1       1.607   3.820  21.173  0.00  0.00    +0.000 A 
ATOM     17  C   UNL     1       1.866   5.111  20.637  0.00  0.00    +0.000 A 
ATOM     18  C   UNL     1       1.334   6.390  20.892  0.00  0.00    +0.000 A 
ATOM     19  C   UNL     1       1.816   7.492  20.178  0.00  0.00    +0.000 A 
ATOM     20  C   UNL     1       2.815   7.332  19.221  0.00  0.00    +0.000 A 
ATOM     21  C   UNL     1       3.357   6.071  18.947  0.00  0.00    +0.000 A 
ATOM     22  C   UNL     1       2.866   4.968  19.666  0.00  0.00    +0.000 A 
ENDBRANCH  13  14
ENDBRANCH   1  13
TORSDOF 6
ENDMDL
MODEL 8
REMARK VINA RESULT:      -6.3      3.675      6.461
REMARK  Name = 
REMARK  6 active torsions:
REMARK  status: ('A' for Active; 'I' for Inactive)
REMARK    1  A    between atoms: O_1  and  C_2
REMARK    2  A    between atoms: C_2  and  C_3
REMARK    3  A    between atoms: C_2  and  C_12
REMARK    4  A    between atoms: C_3  and  S_4
REMARK    5  A    between atoms: S_4  and  C_5
REMARK    6  A    between atoms: C_12  and  N_13
REMARK                            x       y       z     vdW  Elec       q    Type
REMARK                         _______ _______ _______ _____ _____    ______ ____
ROOT
ATOM      1  C   UNL     1       6.607   4.758  18.041  0.00  0.00    +0.000 C 
ENDROOT
BRANCH   1   2
ATOM      2  O   UNL     1       7.807   3.996  17.827  0.00  0.00    +0.000 OA
ATOM      3  H   UNL     1       7.568   3.053  17.847  0.00  0.00    +0.000 HD
ENDBRANCH   1   2
BRANCH   1   4
ATOM      4  C   UNL     1       6.704   6.006  17.143  0.00  0.00    +0.000 C 
BRANCH   4   5
ATOM      5  S   UNL     1       5.359   6.101  15.915  0.00  0.00    +0.000 S 
BRANCH   5   6
ATOM      6  C   UNL     1       6.058   5.141  14.584  0.00  0.00    +0.000 A 
ATOM      7  C   UNL     1       5.290   4.131  13.991  0.00  0.00    +0.000 A 
ATOM      8  C   UNL     1       5.767   3.453  12.866  0.00  0.00    +0.000 A 
ATOM      9  C   UNL     1       7.007   3.790  12.338  0.00  0.00    +0.000 A 
ATOM     10  F   UNL     1       7.450   3.166  11.240  0.00  0.00    +0.000 F 
ATOM     11  C   UNL     1       7.788   4.780  12.925  0.00  0.00    +0.000 A 
ATOM     12  C   UNL     1       7.313   5.457  14.051  0.00  0.00    +0.000 A 
ENDBRANCH   5   6
ENDBRANCH   4   5
ENDBRANCH   1   4
BRANCH   1  13
ATOM     13  C   UNL     1       5.388   3.883  17.708  0.00  0.00    +0.000 C 
BRANCH  13  14
ATOM     14  N   UNL     1       4.470   3.726  18.831  0.00  0.00    +0.000 N 
ATOM     15  C   UNL     1       4.308   2.554  19.525  0.00  0.00    +0.000 A 
ATOM     16  C   UNL     1       3.307   2.738  20.448  0.00  0.00    +0.000 A 
ATOM     17  C   UNL     1       2.841   4.075  20.318  0.00  0.00    +0.000 A 
ATOM     18  C   UNL     1       1.844   4.821  20.976  0.00  0.00    +0.000 A 
ATOM     19  C   UNL     1       1.623   6.152  20.608  0.00  0.00    +0.000 A 
ATOM     20  C   UNL     1       2.382   6.741  19.600  0.00  0.00    +0.000 A 
ATOM     21  C   UNL     1       3.376   6.020  18.929  0.00  0.00    +0.000 A 
ATOM     22  C   UNL     1       3.590   4.682  19.302  0.00  0.00    +0.000 A 
ENDBRANCH  13  14
ENDBRANCH   1  13
TORSDOF 6
ENDMDL
MODEL 9
REMARK VINA RESULT:      -6.3      2.445      5.740
REMARK  Name = 
REMARK  6 active torsions:
REMARK  status: ('A' for Active; 'I' for Inactive)
REMARK    1  A    between atoms: O_1  and  C_2
REMARK    2  A    between atoms: C_2  and  C_3
REMARK    3  A    between atoms: C_2  and  C_12
REMARK    4  A    between atoms: C_3  and  S_4
REMARK    5  A    between atoms: S_4  and  C_5
REMARK    6  A    between atoms: C_12  and  N_13
REMARK                            x       y       z     vdW  Elec       q    Type
REMARK                         _______ _______ _______ _____ _____    ______ ____
ROOT
ATOM      1  C   UNL     1       2.268   5.217  19.176  0.00  0.00    +0.000 C 
ENDROOT
BRANCH   1   2
ATOM      2  O   UNL     1       1.819   5.143  17.812  0.00  0.00    +0.000 OA
ATOM      3  H   UNL     1       0.862   4.962  17.824  0.00  0.00    +0.000 HD
ENDBRANCH   1   2
BRANCH   1   4
ATOM      4  C   UNL     1       3.121   3.960  19.434  0.00  0.00    +0.000 C 
BRANCH   4   5
ATOM      5  S   UNL     1       3.883   3.298  17.914  0.00  0.00    +0.000 S 
BRANCH   5   6
ATOM      6  C   UNL     1       5.193   4.480  17.659  0.00  0.00    +0.000 A 
ATOM      7  C   UNL     1       5.182   5.277  16.507  0.00  0.00    +0.000 A 
ATOM      8  C   UNL     1       6.125   6.296  16.346  0.00  0.00    +0.000 A 
ATOM      9  C   UNL     1       7.072   6.515  17.340  0.00  0.00    +0.000 A 
ATOM     10  F   UNL     1       7.953   7.513  17.204  0.00  0.00    +0.000 F 
ATOM     11  C   UNL     1       7.105   5.722  18.482  0.00  0.00    +0.000 A 
ATOM     12  C   UNL     1       6.164   4.702  18.642  0.00  0.00    +0.000 A 
ENDBRANCH   5   6
ENDBRANCH   4   5
ENDBRANCH   1   4
BRANCH   1  13
ATOM     13  C   UNL     1       3.058   6.520  19.377  0.00  0.00    +0.000 C 
BRANCH  13  14
ATOM     14  N   UNL     1       2.276   7.716  19.083  0.00  0.00    +0.000 N 
ATOM     15  C   UNL     1       2.327   8.385  17.886  0.00  0.00    +0.000 A 
ATOM     16  C   UNL     1       1.540   9.508  17.991  0.00  0.00    +0.000 A 
ATOM     17  C   UNL     1       0.983   9.524  19.299  0.00  0.00    +0.000 A 
ATOM     18  C   UNL     1       0.123  10.412  19.974  0.00  0.00    +0.000 A 
ATOM     19  C   UNL     1      -0.252  10.140  21.293  0.00  0.00    +0.000 A 
ATOM     20  C   UNL     1       0.219   9.000  21.940  0.00  0.00    +0.000 A 
ATOM     21  C   UNL     1       1.077   8.104  21.293  0.00  0.00    +0.000 A 
ATOM     22  C   UNL     1       1.452   8.386  19.967  0.00  0.00    +0.000 A 
ENDBRANCH  13  14
ENDBRANCH   1  13
TORSDOF 6
ENDMDL
