MODEL 1
REMARK VINA RESULT:      -8.4      0.000      0.000
REMARK  Name = 
REMARK  6 active torsions:
REMARK  status: ('A' for Active; 'I' for Inactive)
REMARK    1  A    between atoms: C_1  and  C_2
REMARK    2  A    between atoms: C_2  and  N_3
REMARK    3  A    between atoms: C_2  and  C_19
REMARK    4  A    between atoms: N_3  and  C_4
REMARK    5  A    between atoms: N_7  and  C_8
REMARK    6  A    between atoms: C_12  and  C_13
REMARK                            x       y       z     vdW  Elec       q    Type
REMARK                         _______ _______ _______ _____ _____    ______ ____
ROOT
ATOM      1  C   UNL     1       4.515   4.731  18.211  0.00  0.00    +0.000 C 
ATOM      2  C   UNL     1       5.950   4.248  18.438  0.00  0.00    +0.000 C 
ATOM      3  C   UNL     1       6.747   4.913  17.323  0.00  0.00    +0.000 C 
ATOM      4  N   UNL     1       5.833   4.908  16.195  0.00  0.00    +0.000 N 
ATOM      5  C   UNL     1       4.458   4.803  16.660  0.00  0.00    +0.000 C 
ENDROOT
BRANCH   4   6
ATOM      6  C   UNL     1       6.203   4.703  14.806  0.00  0.00    +0.000 A 
ATOM      7  C   UNL     1       7.450   5.127  14.284  0.00  0.00    +0.000 A 
ATOM      8  C   UNL     1       7.792   4.890  12.946  0.00  0.00    +0.000 A 
ATOM      9  C   UNL     1       6.903   4.246  12.090  0.00  0.00    +0.000 A 
ATOM     10  C   UNL     1       5.652   3.824  12.564  0.00  0.00    +0.000 A 
ATOM     11  C   UNL     1       5.317   4.044  13.916  0.00  0.00    +0.000 A 
BRANCH  10  12
ATOM     12  C   UNL     1       4.661   3.147  11.647  0.00  0.00    +0.000 C 
ATOM     13  F   UNL     1       4.370   3.922  10.537  0.00  0.00    +0.000 F 
ATOM     14  F   UNL     1       5.173   1.937  11.216  0.00  0.00    +0.000 F 
ATOM     15  F   UNL     1       3.484   2.918  12.338  0.00  0.00    +0.000 F 
ENDBRANCH  10  12
ENDBRANCH   4   6
BRANCH   1  16
ATOM     16  N   UNL     1       4.211   6.042  18.854  0.00  0.00    +0.000 NA
ATOM     17  H   UNL     1       5.005   6.376  19.444  0.00  0.00    +0.000 HD
BRANCH  16  19
ATOM     18  C   UNL     1       1.847   5.160  19.148  0.00  0.00    +0.000 C 
ATOM     19  C   UNL     1       2.886   6.246  19.549  0.00  0.00    +0.000 C 
BRANCH  19  20
ATOM     20  C   UNL     1       2.276   7.637  19.211  0.00  0.00    +0.000 A 
ATOM     21  C   UNL     1       2.468   8.179  17.914  0.00  0.00    +0.000 A 
ATOM     22  C   UNL     1       1.880   9.381  17.522  0.00  0.00    +0.000 A 
ATOM     23  C   UNL     1       1.050  10.071  18.392  0.00  0.00    +0.000 A 
ATOM     24  C   UNL     1       0.823   9.591  19.682  0.00  0.00    +0.000 A 
ATOM     25  C   UNL     1      -0.054  10.296  20.525  0.00  0.00    +0.000 A 
ATOM     26  C   UNL     1      -0.302   9.851  21.820  0.00  0.00    +0.000 A 
ATOM     27  C   UNL     1       0.355   8.724  22.296  0.00  0.00    +0.000 A 
ATOM     28  C   UNL     1       1.234   8.012  21.480  0.00  0.00    +0.000 A 
ATOM     29  C   UNL     1       1.459   8.395  20.131  0.00  0.00    +0.000 A 
ENDBRANCH  19  20
ENDBRANCH  16  19
ENDBRANCH   1  16
TORSDOF 5
ENDMDL
MODEL 2
REMARK VINA RESULT:      -8.2      4.960      7.723
REMARK  Name = 
REMARK  6 active torsions:
REMARK  status: ('A' for Active; 'I' for Inactive)
REMARK    1  A    between atoms: C_1  and  C_2
REMARK    2  A    between atoms: C_2  and  N_3
REMARK    3  A    between atoms: C_2  and  C_19
REMARK    4  A    between atoms: N_3  and  C_4
REMARK    5  A    between atoms: N_7  and  C_8
REMARK    6  A    between atoms: C_12  and  C_13
REMARK                            x       y       z     vdW  Elec       q    Type
REMARK                         _______ _______ _______ _____ _____    ______ ____
ROOT
ATOM      1  C   UNL     1      -0.477  10.250  21.470  0.00  0.00    +0.000 C 
ATOM      2  C   UNL     1       0.153   9.564  22.684  0.00  0.00    +0.000 C 
ATOM      3  C   UNL     1       1.496   9.058  22.170  0.00  0.00    +0.000 C 
ATOM      4  N   UNL     1       1.213   8.659  20.803  0.00  0.00    +0.000 N 
ATOM      5  C   UNL     1       0.029   9.347  20.312  0.00  0.00    +0.000 C 
ENDROOT
BRANCH   4   6
ATOM      6  C   UNL     1       1.792   7.517  20.118  0.00  0.00    +0.000 A 
ATOM      7  C   UNL     1       2.441   7.638  18.863  0.00  0.00    +0.000 A 
ATOM      8  C   UNL     1       3.016   6.523  18.237  0.00  0.00    +0.000 A 
ATOM      9  C   UNL     1       2.945   5.264  18.826  0.00  0.00    +0.000 A 
ATOM     10  C   UNL     1       2.297   5.100  20.060  0.00  0.00    +0.000 A 
ATOM     11  C   UNL     1       1.739   6.226  20.699  0.00  0.00    +0.000 A 
BRANCH  10  12
ATOM     12  C   UNL     1       2.186   3.739  20.706  0.00  0.00    +0.000 C 
ATOM     13  F   UNL     1       3.179   2.877  20.270  0.00  0.00    +0.000 F 
ATOM     14  F   UNL     1       2.285   3.863  22.079  0.00  0.00    +0.000 F 
ATOM     15  F   UNL     1       0.960   3.184  20.389  0.00  0.00    +0.000 F 
ENDBRANCH  10  12
ENDBRANCH   4   6
BRANCH   1  16
ATOM     16  N   UNL     1      -0.069  11.675  21.302  0.00  0.00    +0.000 NA
ATOM     17  H   UNL     1      -0.239  12.230  22.170  0.00  0.00    +0.000 HD
BRANCH  16  19
ATOM     18  C   UNL     1      -0.137  13.947  20.168  0.00  0.00    +0.000 C 
ATOM     19  C   UNL     1      -0.494  12.436  20.069  0.00  0.00    +0.000 C 
BRANCH  19  20
ATOM     20  C   UNL     1      -2.028  12.323  19.834  0.00  0.00    +0.000 A 
ATOM     21  C   UNL     1      -2.917  12.906  20.773  0.00  0.00    +0.000 A 
ATOM     22  C   UNL     1      -4.297  12.912  20.579  0.00  0.00    +0.000 A 
ATOM     23  C   UNL     1      -4.845  12.370  19.425  0.00  0.00    +0.000 A 
ATOM     24  C   UNL     1      -4.023  11.780  18.464  0.00  0.00    +0.000 A 
ATOM     25  C   UNL     1      -4.608  11.273  17.290  0.00  0.00    +0.000 A 
ATOM     26  C   UNL     1      -3.823  10.674  16.310  0.00  0.00    +0.000 A 
ATOM     27  C   UNL     1      -2.456  10.537  16.514  0.00  0.00    +0.000 A 
ATOM     28  C   UNL     1      -1.855  11.026  17.674  0.00  0.00    +0.000 A 
ATOM     29  C   UNL     1      -2.612  11.706  18.665  0.00  0.00    +0.000 A 
ENDBRANCH  19  20
ENDBRANCH  16  19
ENDBRANCH   1  16
TORSDOF 5
ENDMDL
MODEL 3
REMARK VINA RESULT:      -8.2      5.053      9.173
REMARK  Name = 
REMARK  6 active torsions:
REMARK  status: ('A' for Active; 'I' for Inactive)
REMARK    1  A    between atoms: C_1  and  C_2
REMARK    2  A    between atoms: C_2  and  N_3
REMARK    3  A    between atoms: C_2  and  C_19
REMARK    4  A    between atoms: N_3  and  C_4
REMARK    5  A    between atoms: N_7  and  C_8
REMARK    6  A    between atoms: C_12  and  C_13
REMARK                            x       y       z     vdW  Elec       q    Type
REMARK                         _______ _______ _______ _____ _____    ______ ____
ROOT
ATOM      1  C   UNL     1       1.976   4.660  19.499  0.00  0.00    +0.000 C 
ATOM      2  C   UNL     1       2.076   5.327  18.125  0.00  0.00    +0.000 C 
ATOM      3  C   UNL     1       2.569   6.736  18.432  0.00  0.00    +0.000 C 
ATOM      4  N   UNL     1       1.911   7.067  19.683  0.00  0.00    +0.000 N 
ATOM      5  C   UNL     1       1.526   5.852  20.387  0.00  0.00    +0.000 C 
ENDROOT
BRANCH   4   6
ATOM      6  C   UNL     1       1.402   8.375  20.053  0.00  0.00    +0.000 A 
ATOM      7  C   UNL     1       1.475   9.490  19.180  0.00  0.00    +0.000 A 
ATOM      8  C   UNL     1       0.950  10.734  19.552  0.00  0.00    +0.000 A 
ATOM      9  C   UNL     1       0.359  10.911  20.801  0.00  0.00    +0.000 A 
ATOM     10  C   UNL     1       0.282   9.836  21.700  0.00  0.00    +0.000 A 
ATOM     11  C   UNL     1       0.791   8.579  21.316  0.00  0.00    +0.000 A 
BRANCH  10  12
ATOM     12  C   UNL     1      -0.332  10.010  23.069  0.00  0.00    +0.000 C 
ATOM     13  F   UNL     1       0.534   9.619  24.077  0.00  0.00    +0.000 F 
ATOM     14  F   UNL     1      -0.664  11.337  23.267  0.00  0.00    +0.000 F 
ATOM     15  F   UNL     1      -1.477   9.240  23.156  0.00  0.00    +0.000 F 
ENDBRANCH  10  12
ENDBRANCH   4   6
BRANCH   1  16
ATOM     16  N   UNL     1       3.253   4.049  19.968  0.00  0.00    +0.000 NA
ATOM     17  H   UNL     1       3.796   4.704  20.574  0.00  0.00    +0.000 HD
BRANCH  16  19
ATOM     18  C   UNL     1       4.773   2.049  19.588  0.00  0.00    +0.000 C 
ATOM     19  C   UNL     1       4.152   3.341  18.983  0.00  0.00    +0.000 C 
BRANCH  19  20
ATOM     20  C   UNL     1       5.318   4.259  18.516  0.00  0.00    +0.000 A 
ATOM     21  C   UNL     1       6.099   4.933  19.490  0.00  0.00    +0.000 A 
ATOM     22  C   UNL     1       7.207   5.703  19.143  0.00  0.00    +0.000 A 
ATOM     23  C   UNL     1       7.604   5.804  17.818  0.00  0.00    +0.000 A 
ATOM     24  C   UNL     1       6.877   5.165  16.814  0.00  0.00    +0.000 A 
ATOM     25  C   UNL     1       7.328   5.258  15.485  0.00  0.00    +0.000 A 
ATOM     26  C   UNL     1       6.628   4.638  14.454  0.00  0.00    +0.000 A 
ATOM     27  C   UNL     1       5.449   3.959  14.737  0.00  0.00    +0.000 A 
ATOM     28  C   UNL     1       4.979   3.860  16.047  0.00  0.00    +0.000 A 
ATOM     29  C   UNL     1       5.703   4.419  17.132  0.00  0.00    +0.000 A 
ENDBRANCH  19  20
ENDBRANCH  16  19
ENDBRANCH   1  16
TORSDOF 5
ENDMDL
MODEL 4
REMARK VINA RESULT:      -8.1      4.247      9.073
REMARK  Name = 
REMARK  6 active torsions:
REMARK  status: ('A' for Active; 'I' for Inactive)
REMARK    1  A    between atoms: C_1  and  C_2
REMARK    2  A    between atoms: C_2  and  N_3
REMARK    3  A    between atoms: C_2  and  C_19
REMARK    4  A    between atoms: N_3  and  C_4
REMARK    5  A    between atoms: N_7  and  C_8
REMARK    6  A    between atoms: C_12  and  C_13
REMARK                            x       y       z     vdW  Elec       q    Type
REMARK                         _______ _______ _______ _____ _____    ______ ____
ROOT
ATOM      1  C   UNL     1       2.079   5.142  19.501  0.00  0.00    +0.000 C 
ATOM      2  C   UNL     1       2.216   6.089  18.307  0.00  0.00    +0.000 C 
ATOM      3  C   UNL     1       2.539   7.438  18.938  0.00  0.00    +0.000 C 
ATOM      4  N   UNL     1       1.758   7.443  20.161  0.00  0.00    +0.000 N 
ATOM      5  C   UNL     1       1.444   6.080  20.564  0.00  0.00    +0.000 C 
ENDROOT
BRANCH   4   6
ATOM      6  C   UNL     1       1.092   8.598  20.737  0.00  0.00    +0.000 A 
ATOM      7  C   UNL     1       0.932   8.759  22.136  0.00  0.00    +0.000 A 
ATOM      8  C   UNL     1       0.312   9.897  22.666  0.00  0.00    +0.000 A 
ATOM      9  C   UNL     1      -0.181  10.893  21.826  0.00  0.00    +0.000 A 
ATOM     10  C   UNL     1      -0.056  10.764  20.435  0.00  0.00    +0.000 A 
ATOM     11  C   UNL     1       0.588   9.627  19.904  0.00  0.00    +0.000 A 
BRANCH  10  12
ATOM     12  C   UNL     1      -0.605  11.818  19.503  0.00  0.00    +0.000 C 
ATOM     13  F   UNL     1      -0.624  11.387  18.187  0.00  0.00    +0.000 F 
ATOM     14  F   UNL     1      -1.896  12.145  19.876  0.00  0.00    +0.000 F 
ATOM     15  F   UNL     1       0.186  12.949  19.579  0.00  0.00    +0.000 F 
ENDBRANCH  10  12
ENDBRANCH   4   6
BRANCH   1  16
ATOM     16  N   UNL     1       3.371   4.554  19.957  0.00  0.00    +0.000 NA
ATOM     17  H   UNL     1       3.967   5.261  20.443  0.00  0.00    +0.000 HD
BRANCH  16  19
ATOM     18  C   UNL     1       4.710   2.411  19.694  0.00  0.00    +0.000 C 
ATOM     19  C   UNL     1       4.185   3.706  19.009  0.00  0.00    +0.000 C 
BRANCH  19  20
ATOM     20  C   UNL     1       5.414   4.488  18.461  0.00  0.00    +0.000 A 
ATOM     21  C   UNL     1       6.287   5.131  19.374  0.00  0.00    +0.000 A 
ATOM     22  C   UNL     1       7.449   5.777  18.954  0.00  0.00    +0.000 A 
ATOM     23  C   UNL     1       7.805   5.776  17.613  0.00  0.00    +0.000 A 
ATOM     24  C   UNL     1       6.986   5.162  16.666  0.00  0.00    +0.000 A 
ATOM     25  C   UNL     1       7.396   5.148  15.321  0.00  0.00    +0.000 A 
ATOM     26  C   UNL     1       6.605   4.548  14.345  0.00  0.00    +0.000 A 
ATOM     27  C   UNL     1       5.380   3.997  14.699  0.00  0.00    +0.000 A 
ATOM     28  C   UNL     1       4.950   4.005  16.026  0.00  0.00    +0.000 A 
ATOM     29  C   UNL     1       5.761   4.545  17.059  0.00  0.00    +0.000 A 
ENDBRANCH  19  20
ENDBRANCH  16  19
ENDBRANCH   1  16
TORSDOF 5
ENDMDL
MODEL 5
REMARK VINA RESULT:      -8.1      4.925      8.791
REMARK  Name = 
REMARK  6 active torsions:
REMARK  status: ('A' for Active; 'I' for Inactive)
REMARK    1  A    between atoms: C_1  and  C_2
REMARK    2  A    between atoms: C_2  and  N_3
REMARK    3  A    between atoms: C_2  and  C_19
REMARK    4  A    between atoms: N_3  and  C_4
REMARK    5  A    between atoms: N_7  and  C_8
REMARK    6  A    between atoms: C_12  and  C_13
REMARK                            x       y       z     vdW  Elec       q    Type
REMARK                         _______ _______ _______ _____ _____    ______ ____
ROOT
ATOM      1  C   UNL     1       1.980   4.975  19.750  0.00  0.00    +0.000 C 
ATOM      2  C   UNL     1       1.847   5.183  18.240  0.00  0.00    +0.000 C 
ATOM      3  C   UNL     1       2.468   6.554  17.998  0.00  0.00    +0.000 C 
ATOM      4  N   UNL     1       2.086   7.317  19.172  0.00  0.00    +0.000 N 
ATOM      5  C   UNL     1       1.778   6.422  20.278  0.00  0.00    +0.000 C 
ENDROOT
BRANCH   4   6
ATOM      6  C   UNL     1       1.732   8.725  19.189  0.00  0.00    +0.000 A 
ATOM      7  C   UNL     1       2.072   9.603  18.130  0.00  0.00    +0.000 A 
ATOM      8  C   UNL     1       1.692  10.952  18.159  0.00  0.00    +0.000 A 
ATOM      9  C   UNL     1       0.987  11.467  19.244  0.00  0.00    +0.000 A 
ATOM     10  C   UNL     1       0.646  10.633  20.320  0.00  0.00    +0.000 A 
ATOM     11  C   UNL     1       1.009   9.272  20.279  0.00  0.00    +0.000 A 
BRANCH  10  12
ATOM     12  C   UNL     1      -0.096  11.176  21.519  0.00  0.00    +0.000 C 
ATOM     13  F   UNL     1       0.317  12.457  21.847  0.00  0.00    +0.000 F 
ATOM     14  F   UNL     1      -1.453  11.207  21.254  0.00  0.00    +0.000 F 
ATOM     15  F   UNL     1       0.133  10.353  22.606  0.00  0.00    +0.000 F 
ENDBRANCH  10  12
ENDBRANCH   4   6
BRANCH   1  16
ATOM     16  N   UNL     1       3.288   4.392  20.167  0.00  0.00    +0.000 NA
ATOM     17  H   UNL     1       3.881   5.092  20.666  0.00  0.00    +0.000 HD
BRANCH  16  19
ATOM     18  C   UNL     1       4.657   2.281  19.813  0.00  0.00    +0.000 C 
ATOM     19  C   UNL     1       4.099   3.588  19.179  0.00  0.00    +0.000 C 
BRANCH  19  20
ATOM     20  C   UNL     1       5.305   4.407  18.635  0.00  0.00    +0.000 A 
ATOM     21  C   UNL     1       6.159   5.071  19.553  0.00  0.00    +0.000 A 
ATOM     22  C   UNL     1       7.302   5.752  19.136  0.00  0.00    +0.000 A 
ATOM     23  C   UNL     1       7.660   5.768  17.796  0.00  0.00    +0.000 A 
ATOM     24  C   UNL     1       6.860   5.135  16.845  0.00  0.00    +0.000 A 
ATOM     25  C   UNL     1       7.271   5.139  15.500  0.00  0.00    +0.000 A 
ATOM     26  C   UNL     1       6.498   4.521  14.522  0.00  0.00    +0.000 A 
ATOM     27  C   UNL     1       5.289   3.933  14.871  0.00  0.00    +0.000 A 
ATOM     28  C   UNL     1       4.858   3.923  16.198  0.00  0.00    +0.000 A 
ATOM     29  C   UNL     1       5.652   4.481  17.234  0.00  0.00    +0.000 A 
ENDBRANCH  19  20
ENDBRANCH  16  19
ENDBRANCH   1  16
TORSDOF 5
ENDMDL
MODEL 6
REMARK VINA RESULT:      -8.0      5.465      9.356
REMARK  Name = 
REMARK  6 active torsions:
REMARK  status: ('A' for Active; 'I' for Inactive)
REMARK    1  A    between atoms: C_1  and  C_2
REMARK    2  A    between atoms: C_2  and  N_3
REMARK    3  A    between atoms: C_2  and  C_19
REMARK    4  A    between atoms: N_3  and  C_4
REMARK    5  A    between atoms: N_7  and  C_8
REMARK    6  A    between atoms: C_12  and  C_13
REMARK                            x       y       z     vdW  Elec       q    Type
REMARK                         _______ _______ _______ _____ _____    ______ ____
ROOT
ATOM      1  C   UNL     1       2.288   7.405  18.231  0.00  0.00    +0.000 C 
ATOM      2  C   UNL     1       1.697   8.622  17.516  0.00  0.00    +0.000 C 
ATOM      3  C   UNL     1       1.735   9.725  18.567  0.00  0.00    +0.000 C 
ATOM      4  N   UNL     1       1.446   9.029  19.808  0.00  0.00    +0.000 N 
ATOM      5  C   UNL     1       1.761   7.614  19.678  0.00  0.00    +0.000 C 
ENDROOT
BRANCH   4   6
ATOM      6  C   UNL     1       0.659   9.553  20.910  0.00  0.00    +0.000 A 
ATOM      7  C   UNL     1       0.743   9.020  22.220  0.00  0.00    +0.000 A 
ATOM      8  C   UNL     1      -0.006   9.564  23.272  0.00  0.00    +0.000 A 
ATOM      9  C   UNL     1      -0.868  10.634  23.048  0.00  0.00    +0.000 A 
ATOM     10  C   UNL     1      -0.992  11.181  21.762  0.00  0.00    +0.000 A 
ATOM     11  C   UNL     1      -0.221  10.646  20.709  0.00  0.00    +0.000 A 
BRANCH  10  12
ATOM     12  C   UNL     1      -1.940  12.325  21.491  0.00  0.00    +0.000 C 
ATOM     13  F   UNL     1      -2.398  12.318  20.183  0.00  0.00    +0.000 F 
ATOM     14  F   UNL     1      -3.030  12.240  22.337  0.00  0.00    +0.000 F 
ATOM     15  F   UNL     1      -1.285  13.522  21.716  0.00  0.00    +0.000 F 
ENDBRANCH  10  12
ENDBRANCH   4   6
BRANCH   1  16
ATOM     16  N   UNL     1       3.776   7.332  18.171  0.00  0.00    +0.000 NA
ATOM     17  H   UNL     1       4.141   7.639  17.242  0.00  0.00    +0.000 HD
BRANCH  16  19
ATOM     18  C   UNL     1       5.883   5.924  17.992  0.00  0.00    +0.000 C 
ATOM     19  C   UNL     1       4.487   6.092  18.658  0.00  0.00    +0.000 C 
BRANCH  19  20
ATOM     20  C   UNL     1       3.658   4.809  18.361  0.00  0.00    +0.000 A 
ATOM     21  C   UNL     1       3.684   4.257  17.054  0.00  0.00    +0.000 A 
ATOM     22  C   UNL     1       3.031   3.065  16.744  0.00  0.00    +0.000 A 
ATOM     23  C   UNL     1       2.357   2.358  17.729  0.00  0.00    +0.000 A 
ATOM     24  C   UNL     1       2.294   2.850  19.032  0.00  0.00    +0.000 A 
ATOM     25  C   UNL     1       1.634   2.090  20.014  0.00  0.00    +0.000 A 
ATOM     26  C   UNL     1       1.546   2.549  21.325  0.00  0.00    +0.000 A 
ATOM     27  C   UNL     1       2.078   3.789  21.656  0.00  0.00    +0.000 A 
ATOM     28  C   UNL     1       2.731   4.564  20.696  0.00  0.00    +0.000 A 
ATOM     29  C   UNL     1       2.902   4.098  19.366  0.00  0.00    +0.000 A 
ENDBRANCH  19  20
ENDBRANCH  16  19
ENDBRANCH   1  16
TORSDOF 5
ENDMDL
MODEL 7
REMARK VINA RESULT:      -7.9      4.547      7.335
REMARK  Name = 
REMARK  6 active torsions:
REMARK  status: ('A' for Active; 'I' for Inactive)
REMARK    1  A    between atoms: C_1  and  C_2
REMARK    2  A    between atoms: C_2  and  N_3
REMARK    3  A    between atoms: C_2  and  C_19
REMARK    4  A    between atoms: N_3  and  C_4
REMARK    5  A    between atoms: N_7  and  C_8
REMARK    6  A    between atoms: C_12  and  C_13
REMARK                            x       y       z     vdW  Elec       q    Type
REMARK                         _______ _______ _______ _____ _____    ______ ____
ROOT
ATOM      1  C   UNL     1       1.101  10.243  19.989  0.00  0.00    +0.000 C 
ATOM      2  C   UNL     1       1.780  10.402  18.626  0.00  0.00    +0.000 C 
ATOM      3  C   UNL     1       1.614   9.038  17.967  0.00  0.00    +0.000 C 
ATOM      4  N   UNL     1       1.745   8.104  19.071  0.00  0.00    +0.000 N 
ATOM      5  C   UNL     1       1.444   8.767  20.331  0.00  0.00    +0.000 C 
ENDROOT
BRANCH   4   6
ATOM      6  C   UNL     1       2.389   6.804  19.010  0.00  0.00    +0.000 A 
ATOM      7  C   UNL     1       3.386   6.498  18.049  0.00  0.00    +0.000 A 
ATOM      8  C   UNL     1       4.012   5.245  18.031  0.00  0.00    +0.000 A 
ATOM      9  C   UNL     1       3.655   4.261  18.949  0.00  0.00    +0.000 A 
ATOM     10  C   UNL     1       2.661   4.519  19.906  0.00  0.00    +0.000 A 
ATOM     11  C   UNL     1       2.048   5.788  19.936  0.00  0.00    +0.000 A 
BRANCH  10  12
ATOM     12  C   UNL     1       2.239   3.457  20.894  0.00  0.00    +0.000 C 
ATOM     13  F   UNL     1       2.470   3.848  22.203  0.00  0.00    +0.000 F 
ATOM     14  F   UNL     1       0.891   3.191  20.747  0.00  0.00    +0.000 F 
ATOM     15  F   UNL     1       2.957   2.300  20.654  0.00  0.00    +0.000 F 
ENDBRANCH  10  12
ENDBRANCH   4   6
BRANCH   1  16
ATOM     16  N   UNL     1      -0.368  10.497  19.965  0.00  0.00    +0.000 NA
ATOM     17  H   UNL     1      -0.854   9.891  19.267  0.00  0.00    +0.000 HD
BRANCH  16  19
ATOM     18  C   UNL     1      -0.773  12.622  21.296  0.00  0.00    +0.000 C 
ATOM     19  C   UNL     1      -0.883  11.915  19.914  0.00  0.00    +0.000 C 
BRANCH  19  20
ATOM     20  C   UNL     1      -2.374  11.962  19.471  0.00  0.00    +0.000 A 
ATOM     21  C   UNL     1      -3.325  12.598  20.311  0.00  0.00    +0.000 A 
ATOM     22  C   UNL     1      -4.659  12.746  19.935  0.00  0.00    +0.000 A 
ATOM     23  C   UNL     1      -5.091  12.301  18.694  0.00  0.00    +0.000 A 
ATOM     24  C   UNL     1      -4.204  11.667  17.824  0.00  0.00    +0.000 A 
ATOM     25  C   UNL     1      -4.667  11.261  16.559  0.00  0.00    +0.000 A 
ATOM     26  C   UNL     1      -3.814  10.622  15.665  0.00  0.00    +0.000 A 
ATOM     27  C   UNL     1      -2.506  10.344  16.042  0.00  0.00    +0.000 A 
ATOM     28  C   UNL     1      -2.028  10.731  17.295  0.00  0.00    +0.000 A 
ATOM     29  C   UNL     1      -2.847  11.447  18.207  0.00  0.00    +0.000 A 
ENDBRANCH  19  20
ENDBRANCH  16  19
ENDBRANCH   1  16
TORSDOF 5
ENDMDL
MODEL 8
REMARK VINA RESULT:      -7.9      4.806      7.794
REMARK  Name = 
REMARK  6 active torsions:
REMARK  status: ('A' for Active; 'I' for Inactive)
REMARK    1  A    between atoms: C_1  and  C_2
REMARK    2  A    between atoms: C_2  and  N_3
REMARK    3  A    between atoms: C_2  and  C_19
REMARK    4  A    between atoms: N_3  and  C_4
REMARK    5  A    between atoms: N_7  and  C_8
REMARK    6  A    between atoms: C_12  and  C_13
REMARK                            x       y       z     vdW  Elec       q    Type
REMARK                         _______ _______ _______ _____ _____    ______ ____
ROOT
ATOM      1  C   UNL     1       0.337  10.903  21.379  0.00  0.00    +0.000 C 
ATOM      2  C   UNL     1       1.225  11.513  20.291  0.00  0.00    +0.000 C 
ATOM      3  C   UNL     1       1.188  10.488  19.164  0.00  0.00    +0.000 C 
ATOM      4  N   UNL     1       1.150   9.213  19.856  0.00  0.00    +0.000 N 
ATOM      5  C   UNL     1       0.640   9.389  21.208  0.00  0.00    +0.000 C 
ENDROOT
BRANCH   4   6
ATOM      6  C   UNL     1       1.814   7.996  19.427  0.00  0.00    +0.000 A 
ATOM      7  C   UNL     1       2.624   7.945  18.265  0.00  0.00    +0.000 A 
ATOM      8  C   UNL     1       3.276   6.763  17.890  0.00  0.00    +0.000 A 
ATOM      9  C   UNL     1       3.127   5.601  18.642  0.00  0.00    +0.000 A 
ATOM     10  C   UNL     1       2.321   5.606  19.791  0.00  0.00    +0.000 A 
ATOM     11  C   UNL     1       1.683   6.802  20.179  0.00  0.00    +0.000 A 
BRANCH  10  12
ATOM     12  C   UNL     1       2.124   4.351  20.608  0.00  0.00    +0.000 C 
ATOM     13  F   UNL     1       0.815   3.900  20.556  0.00  0.00    +0.000 F 
ATOM     14  F   UNL     1       2.952   3.350  20.135  0.00  0.00    +0.000 F 
ATOM     15  F   UNL     1       2.441   4.613  21.929  0.00  0.00    +0.000 F 
ENDBRANCH  10  12
ENDBRANCH   4   6
BRANCH   1  16
ATOM     16  N   UNL     1      -1.113  11.216  21.220  0.00  0.00    +0.000 NA
ATOM     17  H   UNL     1      -1.652  10.389  20.879  0.00  0.00    +0.000 HD
BRANCH  16  19
ATOM     18  C   UNL     1      -1.660  13.683  21.483  0.00  0.00    +0.000 C 
ATOM     19  C   UNL     1      -1.533  12.479  20.506  0.00  0.00    +0.000 C 
BRANCH  19  20
ATOM     20  C   UNL     1      -2.903  12.298  19.791  0.00  0.00    +0.000 A 
ATOM     21  C   UNL     1      -4.062  12.888  20.357  0.00  0.00    +0.000 A 
ATOM     22  C   UNL     1      -5.302  12.833  19.725  0.00  0.00    +0.000 A 
ATOM     23  C   UNL     1      -5.431  12.220  18.487  0.00  0.00    +0.000 A 
ATOM     24  C   UNL     1      -4.329  11.620  17.878  0.00  0.00    +0.000 A 
ATOM     25  C   UNL     1      -4.487  11.040  16.607  0.00  0.00    +0.000 A 
ATOM     26  C   UNL     1      -3.412  10.428  15.969  0.00  0.00    +0.000 A 
ATOM     27  C   UNL     1      -2.184  10.353  16.614  0.00  0.00    +0.000 A 
ATOM     28  C   UNL     1      -2.006  10.915  17.878  0.00  0.00    +0.000 A 
ATOM     29  C   UNL     1      -3.059  11.608  18.530  0.00  0.00    +0.000 A 
ENDBRANCH  19  20
ENDBRANCH  16  19
ENDBRANCH   1  16
TORSDOF 5
ENDMDL
MODEL 9
REMARK VINA RESULT:      -7.9      4.165      6.756
REMARK  Name = 
REMARK  6 active torsions:
REMARK  status: ('A' for Active; 'I' for Inactive)
REMARK    1  A    between atoms: C_1  and  C_2
REMARK    2  A    between atoms: C_2  and  N_3
REMARK    3  A    between atoms: C_2  and  C_19
REMARK    4  A    between atoms: N_3  and  C_4
REMARK    5  A    between atoms: N_7  and  C_8
REMARK    6  A    between atoms: C_12  and  C_13
REMARK                            x       y       z     vdW  Elec       q    Type
REMARK                         _______ _______ _______ _____ _____    ______ ____
ROOT
ATOM      1  C   UNL     1       1.511   9.756  19.589  0.00  0.00    +0.000 C 
ATOM      2  C   UNL     1       2.149   9.866  18.202  0.00  0.00    +0.000 C 
ATOM      3  C   UNL     1       1.890   8.506  17.566  0.00  0.00    +0.000 C 
ATOM      4  N   UNL     1       2.010   7.577  18.675  0.00  0.00    +0.000 N 
ATOM      5  C   UNL     1       1.789   8.268  19.937  0.00  0.00    +0.000 C 
ENDROOT
BRANCH   4   6
ATOM      6  C   UNL     1       2.584   6.245  18.607  0.00  0.00    +0.000 A 
ATOM      7  C   UNL     1       3.816   5.984  17.957  0.00  0.00    +0.000 A 
ATOM      8  C   UNL     1       4.360   4.693  17.931  0.00  0.00    +0.000 A 
ATOM      9  C   UNL     1       3.691   3.629  18.530  0.00  0.00    +0.000 A 
ATOM     10  C   UNL     1       2.461   3.844  19.171  0.00  0.00    +0.000 A 
ATOM     11  C   UNL     1       1.925   5.147  19.215  0.00  0.00    +0.000 A 
BRANCH  10  12
ATOM     12  C   UNL     1       1.705   2.700  19.806  0.00  0.00    +0.000 C 
ATOM     13  F   UNL     1       0.334   2.862  19.696  0.00  0.00    +0.000 F 
ATOM     14  F   UNL     1       2.056   1.511  19.194  0.00  0.00    +0.000 F 
ATOM     15  F   UNL     1       2.029   2.630  21.148  0.00  0.00    +0.000 F 
ENDBRANCH  10  12
ENDBRANCH   4   6
BRANCH   1  16
ATOM     16  N   UNL     1       0.057  10.086  19.613  0.00  0.00    +0.000 NA
ATOM     17  H   UNL     1      -0.476   9.534  18.905  0.00  0.00    +0.000 HD
BRANCH  16  19
ATOM     18  C   UNL     1      -0.084  12.213  20.995  0.00  0.00    +0.000 C 
ATOM     19  C   UNL     1      -0.383  11.531  19.629  0.00  0.00    +0.000 C 
BRANCH  19  20
ATOM     20  C   UNL     1      -1.909  11.662  19.354  0.00  0.00    +0.000 A 
ATOM     21  C   UNL     1      -2.727  12.330  20.300  0.00  0.00    +0.000 A 
ATOM     22  C   UNL     1      -4.085  12.553  20.075  0.00  0.00    +0.000 A 
ATOM     23  C   UNL     1      -4.673  12.153  18.884  0.00  0.00    +0.000 A 
ATOM     24  C   UNL     1      -3.921  11.489  17.914  0.00  0.00    +0.000 A 
ATOM     25  C   UNL     1      -4.540  11.131  16.704  0.00  0.00    +0.000 A 
ATOM     26  C   UNL     1      -3.825  10.464  15.713  0.00  0.00    +0.000 A 
ATOM     27  C   UNL     1      -2.500  10.113  15.941  0.00  0.00    +0.000 A 
ATOM     28  C   UNL     1      -1.868  10.453  17.138  0.00  0.00    +0.000 A 
ATOM     29  C   UNL     1      -2.544  11.194  18.143  0.00  0.00    +0.000 A 
ENDBRANCH  19  20
ENDBRANCH  16  19
ENDBRANCH   1  16
TORSDOF 5
ENDMDL
