MODEL 1
REMARK VINA RESULT:      -7.6      0.000      0.000
REMARK  Name = 
REMARK  7 active torsions:
REMARK  status: ('A' for Active; 'I' for Inactive)
REMARK    1  A    between atoms: C_1  and  C_2
REMARK    2  A    between atoms: C_4  and  C_5
REMARK    3  A    between atoms: N_7  and  C_8
REMARK    4  A    between atoms: C_8  and  C_9
REMARK    5  A    between atoms: C_9  and  N_10
REMARK    6  A    between atoms: C_14  and  C_15
REMARK    7  A    between atoms: N_18  and  C_19
REMARK                            x       y       z     vdW  Elec       q    Type
REMARK                         _______ _______ _______ _____ _____    ______ ____
ROOT
ATOM      1  C   UNL     1       6.932   4.760  16.868  0.00  0.00    +0.000 C 
ATOM      2  O   UNL     1       7.946   4.498  17.515  0.00  0.00    +0.000 OA
ATOM      3  N   UNL     1       5.765   5.189  17.458  0.00  0.00    +0.000 N 
ATOM      4  H   UNL     1       4.941   5.269  16.866  0.00  0.00    +0.000 HD
ENDROOT
BRANCH   1   8
ATOM      5  C   UNL     1       5.860   3.269  12.133  0.00  0.00    +0.000 C 
ATOM      6  C   UNL     1       6.378   3.941  13.348  0.00  0.00    +0.000 A 
ATOM      7  C   UNL     1       6.084   3.730  14.678  0.00  0.00    +0.000 A 
ATOM      8  C   UNL     1       6.887   4.646  15.403  0.00  0.00    +0.000 A 
ATOM      9  N   UNL     1       7.630   5.405  14.569  0.00  0.00    +0.000 NA
ATOM     10  N   UNL     1       7.305   4.950  13.339  0.00  0.00    +0.000 N 
ATOM     11  C   UNL     1       7.942   5.520  12.175  0.00  0.00    +0.000 C 
ENDBRANCH   1   8
BRANCH   3  12
ATOM     12  C   UNL     1       5.672   5.323  18.892  0.00  0.00    +0.000 C 
BRANCH  12  13
ATOM     13  C   UNL     1       4.562   4.471  19.524  0.00  0.00    +0.000 C 
BRANCH  13  14
ATOM     14  N   UNL     1       3.301   5.190  19.809  0.00  0.00    +0.000 NA
ATOM     15  C   UNL     1       2.413   5.307  18.641  0.00  0.00    +0.000 C 
ATOM     16  C   UNL     1       1.835   3.969  18.176  0.00  0.00    +0.000 C 
ATOM     17  C   UNL     1       1.113   3.252  19.315  0.00  0.00    +0.000 C 
ATOM     18  C   UNL     1       1.973   3.183  20.584  0.00  0.00    +0.000 C 
ATOM     19  C   UNL     1       1.155   2.636  21.754  0.00  0.00    +0.000 C 
ATOM     20  C   UNL     1       2.564   4.564  20.924  0.00  0.00    +0.000 C 
ENDBRANCH  13  14
ENDBRANCH  12  13
ENDBRANCH   3  12
TORSDOF 4
ENDMDL
MODEL 2
REMARK VINA RESULT:      -7.5      1.256      1.608
REMARK  Name = 
REMARK  7 active torsions:
REMARK  status: ('A' for Active; 'I' for Inactive)
REMARK    1  A    between atoms: C_1  and  C_2
REMARK    2  A    between atoms: C_4  and  C_5
REMARK    3  A    between atoms: N_7  and  C_8
REMARK    4  A    between atoms: C_8  and  C_9
REMARK    5  A    between atoms: C_9  and  N_10
REMARK    6  A    between atoms: C_14  and  C_15
REMARK    7  A    between atoms: N_18  and  C_19
REMARK                            x       y       z     vdW  Elec       q    Type
REMARK                         _______ _______ _______ _____ _____    ______ ____
ROOT
ATOM      1  C   UNL     1       6.442   4.790  17.434  0.00  0.00    +0.000 C 
ATOM      2  O   UNL     1       7.325   4.422  18.208  0.00  0.00    +0.000 OA
ATOM      3  N   UNL     1       5.256   5.338  17.868  0.00  0.00    +0.000 N 
ATOM      4  H   UNL     1       4.534   5.505  17.172  0.00  0.00    +0.000 HD
ENDROOT
BRANCH   1   8
ATOM      5  C   UNL     1       5.910   3.397  12.580  0.00  0.00    +0.000 C 
ATOM      6  C   UNL     1       6.307   4.025  13.862  0.00  0.00    +0.000 A 
ATOM      7  C   UNL     1       5.824   3.832  15.137  0.00  0.00    +0.000 A 
ATOM      8  C   UNL     1       6.586   4.685  15.975  0.00  0.00    +0.000 A 
ATOM      9  N   UNL     1       7.486   5.391  15.257  0.00  0.00    +0.000 NA
ATOM     10  N   UNL     1       7.296   4.964  13.989  0.00  0.00    +0.000 N 
ATOM     11  C   UNL     1       8.122   5.490  12.928  0.00  0.00    +0.000 C 
ENDBRANCH   1   8
BRANCH   3  12
ATOM     12  C   UNL     1       4.983   5.478  19.278  0.00  0.00    +0.000 C 
BRANCH  12  13
ATOM     13  C   UNL     1       3.493   5.374  19.635  0.00  0.00    +0.000 C 
BRANCH  13  14
ATOM     14  N   UNL     1       3.134   4.239  20.512  0.00  0.00    +0.000 NA
ATOM     15  C   UNL     1       1.682   4.065  20.685  0.00  0.00    +0.000 C 
ATOM     16  C   UNL     1       0.962   3.629  19.408  0.00  0.00    +0.000 C 
ATOM     17  C   UNL     1       1.578   2.356  18.831  0.00  0.00    +0.000 C 
ATOM     18  C   UNL     1       3.104   2.462  18.713  0.00  0.00    +0.000 C 
ATOM     19  C   UNL     1       3.704   1.113  18.318  0.00  0.00    +0.000 C 
ATOM     20  C   UNL     1       3.723   2.977  20.026  0.00  0.00    +0.000 C 
ENDBRANCH  13  14
ENDBRANCH  12  13
ENDBRANCH   3  12
TORSDOF 4
ENDMDL
MODEL 3
REMARK VINA RESULT:      -7.1      0.927      1.828
REMARK  Name = 
REMARK  7 active torsions:
REMARK  status: ('A' for Active; 'I' for Inactive)
REMARK    1  A    between atoms: C_1  and  C_2
REMARK    2  A    between atoms: C_4  and  C_5
REMARK    3  A    between atoms: N_7  and  C_8
REMARK    4  A    between atoms: C_8  and  C_9
REMARK    5  A    between atoms: C_9  and  N_10
REMARK    6  A    between atoms: C_14  and  C_15
REMARK    7  A    between atoms: N_18  and  C_19
REMARK                            x       y       z     vdW  Elec       q    Type
REMARK                         _______ _______ _______ _____ _____    ______ ____
ROOT
ATOM      1  C   UNL     1       7.021   4.533  16.860  0.00  0.00    +0.000 C 
ATOM      2  O   UNL     1       8.080   4.368  17.465  0.00  0.00    +0.000 OA
ATOM      3  N   UNL     1       5.826   4.761  17.504  0.00  0.00    +0.000 N 
ATOM      4  H   UNL     1       4.981   4.768  16.938  0.00  0.00    +0.000 HD
ENDROOT
BRANCH   1   8
ATOM      5  C   UNL     1       5.831   3.363  12.064  0.00  0.00    +0.000 C 
ATOM      6  C   UNL     1       6.384   3.947  13.308  0.00  0.00    +0.000 A 
ATOM      7  C   UNL     1       6.112   3.659  14.627  0.00  0.00    +0.000 A 
ATOM      8  C   UNL     1       6.946   4.513  15.392  0.00  0.00    +0.000 A 
ATOM      9  N   UNL     1       7.687   5.310  14.592  0.00  0.00    +0.000 NA
ATOM     10  N   UNL     1       7.329   4.939  13.343  0.00  0.00    +0.000 N 
ATOM     11  C   UNL     1       7.954   5.569  12.204  0.00  0.00    +0.000 C 
ENDBRANCH   1   8
BRANCH   3  12
ATOM     12  C   UNL     1       5.761   4.785  18.946  0.00  0.00    +0.000 C 
BRANCH  12  13
ATOM     13  C   UNL     1       4.614   3.947  19.529  0.00  0.00    +0.000 C 
BRANCH  13  14
ATOM     14  N   UNL     1       3.320   4.074  18.825  0.00  0.00    +0.000 NA
ATOM     15  C   UNL     1       2.243   3.266  19.420  0.00  0.00    +0.000 C 
ATOM     16  C   UNL     1       1.817   3.744  20.809  0.00  0.00    +0.000 C 
ATOM     17  C   UNL     1       1.417   5.218  20.790  0.00  0.00    +0.000 C 
ATOM     18  C   UNL     1       2.476   6.089  20.100  0.00  0.00    +0.000 C 
ATOM     19  C   UNL     1       1.961   7.517  19.926  0.00  0.00    +0.000 C 
ATOM     20  C   UNL     1       2.888   5.483  18.744  0.00  0.00    +0.000 C 
ENDBRANCH  13  14
ENDBRANCH  12  13
ENDBRANCH   3  12
TORSDOF 4
ENDMDL
MODEL 4
REMARK VINA RESULT:      -7.1      1.364      1.941
REMARK  Name = 
REMARK  7 active torsions:
REMARK  status: ('A' for Active; 'I' for Inactive)
REMARK    1  A    between atoms: C_1  and  C_2
REMARK    2  A    between atoms: C_4  and  C_5
REMARK    3  A    between atoms: N_7  and  C_8
REMARK    4  A    between atoms: C_8  and  C_9
REMARK    5  A    between atoms: C_9  and  N_10
REMARK    6  A    between atoms: C_14  and  C_15
REMARK    7  A    between atoms: N_18  and  C_19
REMARK                            x       y       z     vdW  Elec       q    Type
REMARK                         _______ _______ _______ _____ _____    ______ ____
ROOT
ATOM      1  C   UNL     1       5.671   4.974  16.743  0.00  0.00    +0.000 C 
ATOM      2  O   UNL     1       5.238   6.049  17.160  0.00  0.00    +0.000 OA
ATOM      3  N   UNL     1       5.678   3.830  17.508  0.00  0.00    +0.000 N 
ATOM      4  H   UNL     1       6.160   3.017  17.132  0.00  0.00    +0.000 HD
ENDROOT
BRANCH   1   8
ATOM      5  C   UNL     1       6.566   3.331  12.022  0.00  0.00    +0.000 C 
ATOM      6  C   UNL     1       6.556   4.048  13.319  0.00  0.00    +0.000 A 
ATOM      7  C   UNL     1       5.766   3.866  14.432  0.00  0.00    +0.000 A 
ATOM      8  C   UNL     1       6.207   4.820  15.383  0.00  0.00    +0.000 A 
ATOM      9  N   UNL     1       7.209   5.575  14.881  0.00  0.00    +0.000 NA
ATOM     10  N   UNL     1       7.399   5.079  13.639  0.00  0.00    +0.000 N 
ATOM     11  C   UNL     1       8.435   5.634  12.800  0.00  0.00    +0.000 C 
ENDBRANCH   1   8
BRANCH   3  12
ATOM     12  C   UNL     1       5.196   3.852  18.868  0.00  0.00    +0.000 C 
BRANCH  12  13
ATOM     13  C   UNL     1       3.986   2.939  19.113  0.00  0.00    +0.000 C 
BRANCH  13  14
ATOM     14  N   UNL     1       2.728   3.377  18.472  0.00  0.00    +0.000 NA
ATOM     15  C   UNL     1       1.550   2.601  18.895  0.00  0.00    +0.000 C 
ATOM     16  C   UNL     1       1.169   2.818  20.361  0.00  0.00    +0.000 C 
ATOM     17  C   UNL     1       0.959   4.300  20.666  0.00  0.00    +0.000 C 
ATOM     18  C   UNL     1       2.127   5.159  20.163  0.00  0.00    +0.000 C 
ATOM     19  C   UNL     1       1.799   6.644  20.309  0.00  0.00    +0.000 C 
ATOM     20  C   UNL     1       2.477   4.813  18.703  0.00  0.00    +0.000 C 
ENDBRANCH  13  14
ENDBRANCH  12  13
ENDBRANCH   3  12
TORSDOF 4
ENDMDL
MODEL 5
REMARK VINA RESULT:      -6.9      1.042      1.332
REMARK  Name = 
REMARK  7 active torsions:
REMARK  status: ('A' for Active; 'I' for Inactive)
REMARK    1  A    between atoms: C_1  and  C_2
REMARK    2  A    between atoms: C_4  and  C_5
REMARK    3  A    between atoms: N_7  and  C_8
REMARK    4  A    between atoms: C_8  and  C_9
REMARK    5  A    between atoms: C_9  and  N_10
REMARK    6  A    between atoms: C_14  and  C_15
REMARK    7  A    between atoms: N_18  and  C_19
REMARK                            x       y       z     vdW  Elec       q    Type
REMARK                         _______ _______ _______ _____ _____    ______ ____
ROOT
ATOM      1  C   UNL     1       6.270   5.247  16.885  0.00  0.00    +0.000 C 
ATOM      2  O   UNL     1       6.316   6.392  17.335  0.00  0.00    +0.000 OA
ATOM      3  N   UNL     1       5.993   4.151  17.671  0.00  0.00    +0.000 N 
ATOM      4  H   UNL     1       6.090   3.232  17.247  0.00  0.00    +0.000 HD
ENDROOT
BRANCH   1   8
ATOM      5  C   UNL     1       6.014   3.229  12.232  0.00  0.00    +0.000 C 
ATOM      6  C   UNL     1       6.337   4.023  13.441  0.00  0.00    +0.000 A 
ATOM      7  C   UNL     1       5.784   3.991  14.702  0.00  0.00    +0.000 A 
ATOM      8  C   UNL     1       6.495   4.955  15.462  0.00  0.00    +0.000 A 
ATOM      9  N   UNL     1       7.430   5.572  14.708  0.00  0.00    +0.000 NA
ATOM     10  N   UNL     1       7.313   4.982  13.498  0.00  0.00    +0.000 N 
ATOM     11  C   UNL     1       8.194   5.376  12.424  0.00  0.00    +0.000 C 
ENDBRANCH   1   8
BRANCH   3  12
ATOM     12  C   UNL     1       5.772   4.301  19.089  0.00  0.00    +0.000 C 
BRANCH  12  13
ATOM     13  C   UNL     1       4.615   3.448  19.631  0.00  0.00    +0.000 C 
BRANCH  13  14
ATOM     14  N   UNL     1       3.440   4.210  20.104  0.00  0.00    +0.000 NA
ATOM     15  C   UNL     1       3.175   5.429  19.323  0.00  0.00    +0.000 C 
ATOM     16  C   UNL     1       2.727   5.150  17.887  0.00  0.00    +0.000 C 
ATOM     17  C   UNL     1       1.508   4.232  17.855  0.00  0.00    +0.000 C 
ATOM     18  C   UNL     1       1.708   2.985  18.728  0.00  0.00    +0.000 C 
ATOM     19  C   UNL     1       0.407   2.189  18.828  0.00  0.00    +0.000 C 
ATOM     20  C   UNL     1       2.227   3.370  20.126  0.00  0.00    +0.000 C 
ENDBRANCH  13  14
ENDBRANCH  12  13
ENDBRANCH   3  12
TORSDOF 4
ENDMDL
MODEL 6
REMARK VINA RESULT:      -6.9      1.441      2.645
REMARK  Name = 
REMARK  7 active torsions:
REMARK  status: ('A' for Active; 'I' for Inactive)
REMARK    1  A    between atoms: C_1  and  C_2
REMARK    2  A    between atoms: C_4  and  C_5
REMARK    3  A    between atoms: N_7  and  C_8
REMARK    4  A    between atoms: C_8  and  C_9
REMARK    5  A    between atoms: C_9  and  N_10
REMARK    6  A    between atoms: C_14  and  C_15
REMARK    7  A    between atoms: N_18  and  C_19
REMARK                            x       y       z     vdW  Elec       q    Type
REMARK                         _______ _______ _______ _____ _____    ______ ____
ROOT
ATOM      1  C   UNL     1       6.340   4.657  17.194  0.00  0.00    +0.000 C 
ATOM      2  O   UNL     1       7.064   5.342  17.916  0.00  0.00    +0.000 OA
ATOM      3  N   UNL     1       5.289   3.917  17.685  0.00  0.00    +0.000 N 
ATOM      4  H   UNL     1       4.815   3.288  17.041  0.00  0.00    +0.000 HD
ENDROOT
BRANCH   1   8
ATOM      5  C   UNL     1       5.990   3.343  12.301  0.00  0.00    +0.000 C 
ATOM      6  C   UNL     1       6.333   3.956  13.606  0.00  0.00    +0.000 A 
ATOM      7  C   UNL     1       5.815   3.729  14.862  0.00  0.00    +0.000 A 
ATOM      8  C   UNL     1       6.531   4.582  15.738  0.00  0.00    +0.000 A 
ATOM      9  N   UNL     1       7.437   5.321  15.061  0.00  0.00    +0.000 NA
ATOM     10  N   UNL     1       7.297   4.914  13.781  0.00  0.00    +0.000 N 
ATOM     11  C   UNL     1       8.143   5.478  12.755  0.00  0.00    +0.000 C 
ENDBRANCH   1   8
BRANCH   3  12
ATOM     12  C   UNL     1       5.007   3.890  19.100  0.00  0.00    +0.000 C 
BRANCH  12  13
ATOM     13  C   UNL     1       4.161   5.076  19.587  0.00  0.00    +0.000 C 
BRANCH  13  14
ATOM     14  N   UNL     1       2.757   5.080  19.125  0.00  0.00    +0.000 NA
ATOM     15  C   UNL     1       1.776   5.167  20.219  0.00  0.00    +0.000 C 
ATOM     16  C   UNL     1       1.798   6.509  20.954  0.00  0.00    +0.000 C 
ATOM     17  C   UNL     1       1.609   7.674  19.986  0.00  0.00    +0.000 C 
ATOM     18  C   UNL     1       2.555   7.577  18.781  0.00  0.00    +0.000 C 
ATOM     19  C   UNL     1       2.209   8.644  17.743  0.00  0.00    +0.000 C 
ATOM     20  C   UNL     1       2.511   6.168  18.159  0.00  0.00    +0.000 C 
ENDBRANCH  13  14
ENDBRANCH  12  13
ENDBRANCH   3  12
TORSDOF 4
ENDMDL
MODEL 7
REMARK VINA RESULT:      -6.9      1.080      1.080
REMARK  Name = 
REMARK  7 active torsions:
REMARK  status: ('A' for Active; 'I' for Inactive)
REMARK    1  A    between atoms: C_1  and  C_2
REMARK    2  A    between atoms: C_4  and  C_5
REMARK    3  A    between atoms: N_7  and  C_8
REMARK    4  A    between atoms: C_8  and  C_9
REMARK    5  A    between atoms: C_9  and  N_10
REMARK    6  A    between atoms: C_14  and  C_15
REMARK    7  A    between atoms: N_18  and  C_19
REMARK                            x       y       z     vdW  Elec       q    Type
REMARK                         _______ _______ _______ _____ _____    ______ ____
ROOT
ATOM      1  C   UNL     1       5.552   5.138  16.649  0.00  0.00    +0.000 C 
ATOM      2  O   UNL     1       4.703   6.002  16.868  0.00  0.00    +0.000 OA
ATOM      3  N   UNL     1       6.053   4.322  17.637  0.00  0.00    +0.000 N 
ATOM      4  H   UNL     1       6.835   3.718  17.397  0.00  0.00    +0.000 HD
ENDROOT
BRANCH   1   8
ATOM      5  C   UNL     1       6.421   3.249  12.016  0.00  0.00    +0.000 C 
ATOM      6  C   UNL     1       6.431   4.021  13.281  0.00  0.00    +0.000 A 
ATOM      7  C   UNL     1       5.619   3.927  14.390  0.00  0.00    +0.000 A 
ATOM      8  C   UNL     1       6.097   4.899  15.305  0.00  0.00    +0.000 A 
ATOM      9  N   UNL     1       7.141   5.580  14.786  0.00  0.00    +0.000 NA
ATOM     10  N   UNL     1       7.321   5.022  13.569  0.00  0.00    +0.000 N 
ATOM     11  C   UNL     1       8.394   5.487  12.722  0.00  0.00    +0.000 C 
ENDBRANCH   1   8
BRANCH   3  12
ATOM     12  C   UNL     1       5.614   4.469  19.005  0.00  0.00    +0.000 C 
BRANCH  12  13
ATOM     13  C   UNL     1       4.299   3.738  19.316  0.00  0.00    +0.000 C 
BRANCH  13  14
ATOM     14  N   UNL     1       3.171   4.612  19.704  0.00  0.00    +0.000 NA
ATOM     15  C   UNL     1       2.134   4.731  18.666  0.00  0.00    +0.000 C 
ATOM     16  C   UNL     1       1.366   3.431  18.418  0.00  0.00    +0.000 C 
ATOM     17  C   UNL     1       0.757   2.892  19.710  0.00  0.00    +0.000 C 
ATOM     18  C   UNL     1       1.786   2.832  20.847  0.00  0.00    +0.000 C 
ATOM     19  C   UNL     1       1.103   2.475  22.167  0.00  0.00    +0.000 C 
ATOM     20  C   UNL     1       2.552   4.163  20.966  0.00  0.00    +0.000 C 
ENDBRANCH  13  14
ENDBRANCH  12  13
ENDBRANCH   3  12
TORSDOF 4
ENDMDL
MODEL 8
REMARK VINA RESULT:      -6.7      1.345      2.327
REMARK  Name = 
REMARK  7 active torsions:
REMARK  status: ('A' for Active; 'I' for Inactive)
REMARK    1  A    between atoms: C_1  and  C_2
REMARK    2  A    between atoms: C_4  and  C_5
REMARK    3  A    between atoms: N_7  and  C_8
REMARK    4  A    between atoms: C_8  and  C_9
REMARK    5  A    between atoms: C_9  and  N_10
REMARK    6  A    between atoms: C_14  and  C_15
REMARK    7  A    between atoms: N_18  and  C_19
REMARK                            x       y       z     vdW  Elec       q    Type
REMARK                         _______ _______ _______ _____ _____    ______ ____
ROOT
ATOM      1  C   UNL     1       7.040   5.292  16.389  0.00  0.00    +0.000 C 
ATOM      2  O   UNL     1       7.501   6.387  16.712  0.00  0.00    +0.000 OA
ATOM      3  N   UNL     1       6.618   4.362  17.312  0.00  0.00    +0.000 N 
ATOM      4  H   UNL     1       6.363   3.440  16.967  0.00  0.00    +0.000 HD
ENDROOT
BRANCH   1   8
ATOM      5  C   UNL     1       5.604   2.927  12.130  0.00  0.00    +0.000 C 
ATOM      6  C   UNL     1       6.222   3.807  13.150  0.00  0.00    +0.000 A 
ATOM      7  C   UNL     1       6.017   3.878  14.510  0.00  0.00    +0.000 A 
ATOM      8  C   UNL     1       6.890   4.889  14.983  0.00  0.00    +0.000 A 
ATOM      9  N   UNL     1       7.591   5.438  13.967  0.00  0.00    +0.000 NA
ATOM     10  N   UNL     1       7.170   4.758  12.878  0.00  0.00    +0.000 N 
ATOM     11  C   UNL     1       7.738   5.059  11.584  0.00  0.00    +0.000 C 
ENDBRANCH   1   8
BRANCH   3  12
ATOM     12  C   UNL     1       6.730   4.627  18.726  0.00  0.00    +0.000 C 
BRANCH  12  13
ATOM     13  C   UNL     1       5.404   5.028  19.389  0.00  0.00    +0.000 C 
BRANCH  13  14
ATOM     14  N   UNL     1       4.186   4.631  18.651  0.00  0.00    +0.000 NA
ATOM     15  C   UNL     1       3.178   3.965  19.492  0.00  0.00    +0.000 C 
ATOM     16  C   UNL     1       2.545   4.888  20.534  0.00  0.00    +0.000 C 
ATOM     17  C   UNL     1       1.945   6.132  19.882  0.00  0.00    +0.000 C 
ATOM     18  C   UNL     1       2.937   6.812  18.928  0.00  0.00    +0.000 C 
ATOM     19  C   UNL     1       2.246   7.932  18.150  0.00  0.00    +0.000 C 
ATOM     20  C   UNL     1       3.570   5.785  17.969  0.00  0.00    +0.000 C 
ENDBRANCH  13  14
ENDBRANCH  12  13
ENDBRANCH   3  12
TORSDOF 4
ENDMDL
MODEL 9
REMARK VINA RESULT:      -6.6      1.227      1.300
REMARK  Name = 
REMARK  7 active torsions:
REMARK  status: ('A' for Active; 'I' for Inactive)
REMARK    1  A    between atoms: C_1  and  C_2
REMARK    2  A    between atoms: C_4  and  C_5
REMARK    3  A    between atoms: N_7  and  C_8
REMARK    4  A    between atoms: C_8  and  C_9
REMARK    5  A    between atoms: C_9  and  N_10
REMARK    6  A    between atoms: C_14  and  C_15
REMARK    7  A    between atoms: N_18  and  C_19
REMARK                            x       y       z     vdW  Elec       q    Type
REMARK                         _______ _______ _______ _____ _____    ______ ____
ROOT
ATOM      1  C   UNL     1       6.898   5.242  16.322  0.00  0.00    +0.000 C 
ATOM      2  O   UNL     1       7.404   6.302  16.690  0.00  0.00    +0.000 OA
ATOM      3  N   UNL     1       6.353   4.334  17.202  0.00  0.00    +0.000 N 
ATOM      4  H   UNL     1       6.063   3.434  16.829  0.00  0.00    +0.000 HD
ENDROOT
BRANCH   1   8
ATOM      5  C   UNL     1       5.738   2.901  11.968  0.00  0.00    +0.000 C 
ATOM      6  C   UNL     1       6.275   3.787  13.026  0.00  0.00    +0.000 A 
ATOM      7  C   UNL     1       6.014   3.822  14.379  0.00  0.00    +0.000 A 
ATOM      8  C   UNL     1       6.822   4.861  14.904  0.00  0.00    +0.000 A 
ATOM      9  N   UNL     1       7.536   5.461  13.927  0.00  0.00    +0.000 NA
ATOM     10  N   UNL     1       7.189   4.785  12.810  0.00  0.00    +0.000 N 
ATOM     11  C   UNL     1       7.792   5.137  11.546  0.00  0.00    +0.000 C 
ENDBRANCH   1   8
BRANCH   3  12
ATOM     12  C   UNL     1       6.382   4.581  18.624  0.00  0.00    +0.000 C 
BRANCH  12  13
ATOM     13  C   UNL     1       5.083   4.196  19.347  0.00  0.00    +0.000 C 
BRANCH  13  14
ATOM     14  N   UNL     1       3.848   4.352  18.548  0.00  0.00    +0.000 NA
ATOM     15  C   UNL     1       3.662   3.295  17.540  0.00  0.00    +0.000 C 
ATOM     16  C   UNL     1       3.393   1.916  18.144  0.00  0.00    +0.000 C 
ATOM     17  C   UNL     1       2.200   1.950  19.096  0.00  0.00    +0.000 C 
ATOM     18  C   UNL     1       2.311   3.094  20.113  0.00  0.00    +0.000 C 
ATOM     19  C   UNL     1       1.019   3.219  20.919  0.00  0.00    +0.000 C 
ATOM     20  C   UNL     1       2.654   4.422  19.411  0.00  0.00    +0.000 C 
ENDBRANCH  13  14
ENDBRANCH  12  13
ENDBRANCH   3  12
TORSDOF 4
ENDMDL
