MODEL 1
REMARK VINA RESULT:      -7.9      0.000      0.000
REMARK  Name = 
REMARK  9 active torsions:
REMARK  status: ('A' for Active; 'I' for Inactive)
REMARK    1  A    between atoms: C_2  and  C_3
REMARK    2  A    between atoms: C_6  and  C_7
REMARK    3  A    between atoms: C_7  and  C_8
REMARK    4  A    between atoms: C_7  and  N_16
REMARK    5  A    between atoms: C_11  and  C_12
REMARK    6  A    between atoms: C_18  and  C_19
REMARK    7  A    between atoms: C_19  and  O_20
REMARK    8  A    between atoms: O_20  and  C_21
REMARK    9  A    between atoms: C_24  and  N_25
REMARK                            x       y       z     vdW  Elec       q    Type
REMARK                         _______ _______ _______ _____ _____    ______ ____
ROOT
ATOM      1  C   UNL     1       0.961  10.535  18.304  0.00  0.00    +0.000 C 
ENDROOT
BRANCH   1   5
ATOM      2  C   UNL     1      -3.383  10.878  18.076  0.00  0.00    +0.000 A 
ATOM      3  C   UNL     1      -2.635  11.757  18.864  0.00  0.00    +0.000 A 
ATOM      4  C   UNL     1      -1.242  11.641  18.925  0.00  0.00    +0.000 A 
ATOM      5  C   UNL     1      -0.568  10.641  18.200  0.00  0.00    +0.000 A 
ATOM      6  C   UNL     1      -1.349   9.738  17.454  0.00  0.00    +0.000 A 
ATOM      7  C   UNL     1      -2.737   9.864  17.375  0.00  0.00    +0.000 A 
BRANCH   2   9
ATOM      8  N   UNL     1      -5.962  11.117  17.915  0.00  0.00    +0.000 NA
ATOM      9  C   UNL     1      -4.805  11.012  17.985  0.00  0.00    +0.000 C 
ENDBRANCH   2   9
ENDBRANCH   1   5
BRANCH   1  10
ATOM     10  C   UNL     1       1.618  11.787  18.874  0.00  0.00    +0.000 A 
ATOM     11  C   UNL     1       1.444  12.123  20.225  0.00  0.00    +0.000 A 
ATOM     12  C   UNL     1       2.055  13.249  20.773  0.00  0.00    +0.000 A 
ATOM     13  C   UNL     1       2.849  14.067  19.969  0.00  0.00    +0.000 A 
ATOM     14  C   UNL     1       3.024  13.757  18.618  0.00  0.00    +0.000 A 
ATOM     15  C   UNL     1       2.415  12.623  18.070  0.00  0.00    +0.000 A 
BRANCH  13  16
ATOM     16  C   UNL     1       3.486  15.215  20.537  0.00  0.00    +0.000 C 
ATOM     17  N   UNL     1       4.004  16.146  20.997  0.00  0.00    +0.000 NA
ENDBRANCH  13  16
ENDBRANCH   1  10
BRANCH   1  18
ATOM     18  N   UNL     1       1.426   9.316  18.996  0.00  0.00    +0.000 N 
ATOM     19  C   UNL     1       2.160   8.290  18.467  0.00  0.00    +0.000 A 
ATOM     20  C   UNL     1       2.147   7.324  19.452  0.00  0.00    +0.000 A 
ATOM     21  N   UNL     1       1.501   7.814  20.553  0.00  0.00    +0.000 NA
ATOM     22  N   UNL     1       1.108   9.046  20.282  0.00  0.00    +0.000 NA
BRANCH  20  23
ATOM     23  C   UNL     1       2.678   5.938  19.434  0.00  0.00    +0.000 C 
BRANCH  23  24
ATOM     24  O   UNL     1       4.103   5.955  19.369  0.00  0.00    +0.000 OA
BRANCH  24  25
ATOM     25  C   UNL     1       4.668   5.586  18.184  0.00  0.00    +0.000 A 
ATOM     26  C   UNL     1       5.815   6.310  17.846  0.00  0.00    +0.000 A 
ATOM     27  C   UNL     1       6.501   6.046  16.660  0.00  0.00    +0.000 A 
ATOM     28  C   UNL     1       6.047   5.022  15.824  0.00  0.00    +0.000 A 
ATOM     29  C   UNL     1       4.905   4.281  16.159  0.00  0.00    +0.000 A 
ATOM     30  C   UNL     1       4.216   4.565  17.343  0.00  0.00    +0.000 A 
BRANCH  28  31
ATOM     31  N   UNL     1       6.778   4.716  14.587  0.00  0.00    +0.000 N 
ATOM     32  O   UNL     1       7.747   5.432  14.299  0.00  0.00    +0.000 OA
ATOM     33  O   UNL     1       6.381   3.761  13.904  0.00  0.00    +0.000 OA
ENDBRANCH  28  31
ENDBRANCH  24  25
ENDBRANCH  23  24
ENDBRANCH  20  23
ENDBRANCH   1  18
TORSDOF 9
ENDMDL
MODEL 2
REMARK VINA RESULT:      -7.9      1.392      5.198
REMARK  Name = 
REMARK  9 active torsions:
REMARK  status: ('A' for Active; 'I' for Inactive)
REMARK    1  A    between atoms: C_2  and  C_3
REMARK    2  A    between atoms: C_6  and  C_7
REMARK    3  A    between atoms: C_7  and  C_8
REMARK    4  A    between atoms: C_7  and  N_16
REMARK    5  A    between atoms: C_11  and  C_12
REMARK    6  A    between atoms: C_18  and  C_19
REMARK    7  A    between atoms: C_19  and  O_20
REMARK    8  A    between atoms: O_20  and  C_21
REMARK    9  A    between atoms: C_24  and  N_25
REMARK                            x       y       z     vdW  Elec       q    Type
REMARK                         _______ _______ _______ _____ _____    ______ ____
ROOT
ATOM      1  C   UNL     1       0.470  11.031  20.057  0.00  0.00    +0.000 C 
ENDROOT
BRANCH   1   5
ATOM      2  C   UNL     1       3.218  14.300  19.163  0.00  0.00    +0.000 A 
ATOM      3  C   UNL     1       2.897  13.975  20.483  0.00  0.00    +0.000 A 
ATOM      4  C   UNL     1       2.019  12.920  20.758  0.00  0.00    +0.000 A 
ATOM      5  C   UNL     1       1.443  12.171  19.716  0.00  0.00    +0.000 A 
ATOM      6  C   UNL     1       1.743  12.552  18.395  0.00  0.00    +0.000 A 
ATOM      7  C   UNL     1       2.634  13.589  18.118  0.00  0.00    +0.000 A 
BRANCH   2   9
ATOM      8  N   UNL     1       4.892  16.213  18.639  0.00  0.00    +0.000 NA
ATOM      9  C   UNL     1       4.140  15.357  18.876  0.00  0.00    +0.000 C 
ENDBRANCH   2   9
ENDBRANCH   1   5
BRANCH   1  10
ATOM     10  C   UNL     1      -0.927  11.235  19.483  0.00  0.00    +0.000 A 
ATOM     11  C   UNL     1      -1.364  10.460  18.397  0.00  0.00    +0.000 A 
ATOM     12  C   UNL     1      -2.646  10.611  17.873  0.00  0.00    +0.000 A 
ATOM     13  C   UNL     1      -3.514  11.552  18.426  0.00  0.00    +0.000 A 
ATOM     14  C   UNL     1      -3.094  12.343  19.499  0.00  0.00    +0.000 A 
ATOM     15  C   UNL     1      -1.809  12.187  20.029  0.00  0.00    +0.000 A 
BRANCH  13  16
ATOM     16  C   UNL     1      -4.834  11.697  17.893  0.00  0.00    +0.000 C 
ATOM     17  N   UNL     1      -5.905  11.816  17.461  0.00  0.00    +0.000 NA
ENDBRANCH  13  16
ENDBRANCH   1  10
BRANCH   1  18
ATOM     18  N   UNL     1       0.996   9.688  19.742  0.00  0.00    +0.000 N 
ATOM     19  C   UNL     1       0.969   8.578  20.542  0.00  0.00    +0.000 A 
ATOM     20  C   UNL     1       1.758   7.664  19.874  0.00  0.00    +0.000 A 
ATOM     21  N   UNL     1       2.156   8.200  18.681  0.00  0.00    +0.000 NA
ATOM     22  N   UNL     1       1.646   9.416  18.589  0.00  0.00    +0.000 NA
BRANCH  20  23
ATOM     23  C   UNL     1       2.205   6.309  20.287  0.00  0.00    +0.000 C 
BRANCH  23  24
ATOM     24  O   UNL     1       2.365   5.472  19.143  0.00  0.00    +0.000 OA
BRANCH  24  25
ATOM     25  C   UNL     1       3.642   5.251  18.718  0.00  0.00    +0.000 A 
ATOM     26  C   UNL     1       3.741   4.876  17.375  0.00  0.00    +0.000 A 
ATOM     27  C   UNL     1       4.984   4.614  16.798  0.00  0.00    +0.000 A 
ATOM     28  C   UNL     1       6.140   4.764  17.571  0.00  0.00    +0.000 A 
ATOM     29  C   UNL     1       6.052   5.152  18.915  0.00  0.00    +0.000 A 
ATOM     30  C   UNL     1       4.799   5.397  19.487  0.00  0.00    +0.000 A 
BRANCH  28  31
ATOM     31  N   UNL     1       7.455   4.519  16.966  0.00  0.00    +0.000 N 
ATOM     32  O   UNL     1       8.349   4.068  17.696  0.00  0.00    +0.000 OA
ATOM     33  O   UNL     1       7.593   4.778  15.762  0.00  0.00    +0.000 OA
ENDBRANCH  28  31
ENDBRANCH  24  25
ENDBRANCH  23  24
ENDBRANCH  20  23
ENDBRANCH   1  18
TORSDOF 9
ENDMDL
MODEL 3
REMARK VINA RESULT:      -7.8      0.514      1.363
REMARK  Name = 
REMARK  9 active torsions:
REMARK  status: ('A' for Active; 'I' for Inactive)
REMARK    1  A    between atoms: C_2  and  C_3
REMARK    2  A    between atoms: C_6  and  C_7
REMARK    3  A    between atoms: C_7  and  C_8
REMARK    4  A    between atoms: C_7  and  N_16
REMARK    5  A    between atoms: C_11  and  C_12
REMARK    6  A    between atoms: C_18  and  C_19
REMARK    7  A    between atoms: C_19  and  O_20
REMARK    8  A    between atoms: O_20  and  C_21
REMARK    9  A    between atoms: C_24  and  N_25
REMARK                            x       y       z     vdW  Elec       q    Type
REMARK                         _______ _______ _______ _____ _____    ______ ____
ROOT
ATOM      1  C   UNL     1       0.876  10.661  18.378  0.00  0.00    +0.000 C 
ENDROOT
BRANCH   1   5
ATOM      2  C   UNL     1      -3.473  10.913  18.128  0.00  0.00    +0.000 A 
ATOM      3  C   UNL     1      -2.771   9.932  17.424  0.00  0.00    +0.000 A 
ATOM      4  C   UNL     1      -1.376   9.857  17.516  0.00  0.00    +0.000 A 
ATOM      5  C   UNL     1      -0.656  10.765  18.314  0.00  0.00    +0.000 A 
ATOM      6  C   UNL     1      -1.383  11.774  18.973  0.00  0.00    +0.000 A 
ATOM      7  C   UNL     1      -2.775  11.838  18.900  0.00  0.00    +0.000 A 
BRANCH   2   9
ATOM      8  N   UNL     1      -6.062  11.028  18.005  0.00  0.00    +0.000 NA
ATOM      9  C   UNL     1      -4.901  10.975  18.063  0.00  0.00    +0.000 C 
ENDBRANCH   2   9
ENDBRANCH   1   5
BRANCH   1  10
ATOM     10  C   UNL     1       1.543  11.902  18.960  0.00  0.00    +0.000 A 
ATOM     11  C   UNL     1       2.333  12.727  18.145  0.00  0.00    +0.000 A 
ATOM     12  C   UNL     1       2.932  13.879  18.650  0.00  0.00    +0.000 A 
ATOM     13  C   UNL     1       2.754  14.222  19.990  0.00  0.00    +0.000 A 
ATOM     14  C   UNL     1       1.982  13.408  20.822  0.00  0.00    +0.000 A 
ATOM     15  C   UNL     1       1.376  12.253  20.313  0.00  0.00    +0.000 A 
BRANCH  13  16
ATOM     16  C   UNL     1       3.360  15.413  20.502  0.00  0.00    +0.000 C 
ATOM     17  N   UNL     1       3.850  16.379  20.920  0.00  0.00    +0.000 NA
ENDBRANCH  13  16
ENDBRANCH   1  10
BRANCH   1  18
ATOM     18  N   UNL     1       1.362   9.428  19.027  0.00  0.00    +0.000 N 
ATOM     19  C   UNL     1       2.105   8.429  18.460  0.00  0.00    +0.000 A 
ATOM     20  C   UNL     1       2.113   7.432  19.415  0.00  0.00    +0.000 A 
ATOM     21  N   UNL     1       1.468   7.878  20.535  0.00  0.00    +0.000 NA
ATOM     22  N   UNL     1       1.056   9.112  20.305  0.00  0.00    +0.000 NA
BRANCH  20  23
ATOM     23  C   UNL     1       2.662   6.054  19.349  0.00  0.00    +0.000 C 
BRANCH  23  24
ATOM     24  O   UNL     1       4.088   6.089  19.361  0.00  0.00    +0.000 OA
BRANCH  24  25
ATOM     25  C   UNL     1       4.718   5.859  18.173  0.00  0.00    +0.000 A 
ATOM     26  C   UNL     1       5.567   4.748  18.181  0.00  0.00    +0.000 A 
ATOM     27  C   UNL     1       6.282   4.389  17.038  0.00  0.00    +0.000 A 
ATOM     28  C   UNL     1       6.114   5.134  15.867  0.00  0.00    +0.000 A 
ATOM     29  C   UNL     1       5.255   6.242  15.845  0.00  0.00    +0.000 A 
ATOM     30  C   UNL     1       4.556   6.603  17.002  0.00  0.00    +0.000 A 
BRANCH  28  31
ATOM     31  N   UNL     1       6.840   4.749  14.651  0.00  0.00    +0.000 N 
ATOM     32  O   UNL     1       7.826   5.426  14.329  0.00  0.00    +0.000 OA
ATOM     33  O   UNL     1       6.422   3.769  14.017  0.00  0.00    +0.000 OA
ENDBRANCH  28  31
ENDBRANCH  24  25
ENDBRANCH  23  24
ENDBRANCH  20  23
ENDBRANCH   1  18
TORSDOF 9
ENDMDL
MODEL 4
REMARK VINA RESULT:      -7.8      2.428      2.998
REMARK  Name = 
REMARK  9 active torsions:
REMARK  status: ('A' for Active; 'I' for Inactive)
REMARK    1  A    between atoms: C_2  and  C_3
REMARK    2  A    between atoms: C_6  and  C_7
REMARK    3  A    between atoms: C_7  and  C_8
REMARK    4  A    between atoms: C_7  and  N_16
REMARK    5  A    between atoms: C_11  and  C_12
REMARK    6  A    between atoms: C_18  and  C_19
REMARK    7  A    between atoms: C_19  and  O_20
REMARK    8  A    between atoms: O_20  and  C_21
REMARK    9  A    between atoms: C_24  and  N_25
REMARK                            x       y       z     vdW  Elec       q    Type
REMARK                         _______ _______ _______ _____ _____    ______ ____
ROOT
ATOM      1  C   UNL     1      -0.033  12.162  19.548  0.00  0.00    +0.000 C 
ENDROOT
BRANCH   1   5
ATOM      2  C   UNL     1      -2.924  12.356  22.810  0.00  0.00    +0.000 A 
ATOM      3  C   UNL     1      -3.319  12.579  21.489  0.00  0.00    +0.000 A 
ATOM      4  C   UNL     1      -2.384  12.509  20.450  0.00  0.00    +0.000 A 
ATOM      5  C   UNL     1      -1.033  12.215  20.713  0.00  0.00    +0.000 A 
ATOM      6  C   UNL     1      -0.653  12.045  22.057  0.00  0.00    +0.000 A 
ATOM      7  C   UNL     1      -1.586  12.094  23.093  0.00  0.00    +0.000 A 
BRANCH   2   9
ATOM      8  N   UNL     1      -4.658  12.423  24.740  0.00  0.00    +0.000 NA
ATOM      9  C   UNL     1      -3.881  12.396  23.873  0.00  0.00    +0.000 C 
ENDBRANCH   2   9
ENDBRANCH   1   5
BRANCH   1  10
ATOM     10  C   UNL     1       0.946  13.331  19.536  0.00  0.00    +0.000 A 
ATOM     11  C   UNL     1       2.165  13.237  20.224  0.00  0.00    +0.000 A 
ATOM     12  C   UNL     1       3.086  14.282  20.206  0.00  0.00    +0.000 A 
ATOM     13  C   UNL     1       2.795  15.450  19.500  0.00  0.00    +0.000 A 
ATOM     14  C   UNL     1       1.581  15.568  18.819  0.00  0.00    +0.000 A 
ATOM     15  C   UNL     1       0.659  14.516  18.833  0.00  0.00    +0.000 A 
BRANCH  13  16
ATOM     16  C   UNL     1       3.748  16.517  19.473  0.00  0.00    +0.000 C 
ATOM     17  N   UNL     1       4.519  17.383  19.451  0.00  0.00    +0.000 NA
ENDBRANCH  13  16
ENDBRANCH   1  10
BRANCH   1  18
ATOM     18  N   UNL     1       0.666  10.868  19.423  0.00  0.00    +0.000 N 
ATOM     19  C   UNL     1       1.304  10.372  18.319  0.00  0.00    +0.000 A 
ATOM     20  C   UNL     1       1.600   9.068  18.659  0.00  0.00    +0.000 A 
ATOM     21  N   UNL     1       1.224   8.845  19.954  0.00  0.00    +0.000 NA
ATOM     22  N   UNL     1       0.699   9.962  20.426  0.00  0.00    +0.000 NA
BRANCH  20  23
ATOM     23  C   UNL     1       2.194   7.981  17.840  0.00  0.00    +0.000 C 
BRANCH  23  24
ATOM     24  O   UNL     1       2.685   6.940  18.682  0.00  0.00    +0.000 OA
BRANCH  24  25
ATOM     25  C   UNL     1       3.820   6.303  18.274  0.00  0.00    +0.000 A 
ATOM     26  C   UNL     1       4.380   6.825  17.104  0.00  0.00    +0.000 A 
ATOM     27  C   UNL     1       5.543   6.276  16.563  0.00  0.00    +0.000 A 
ATOM     28  C   UNL     1       6.165   5.212  17.224  0.00  0.00    +0.000 A 
ATOM     29  C   UNL     1       5.619   4.689  18.404  0.00  0.00    +0.000 A 
ATOM     30  C   UNL     1       4.444   5.238  18.929  0.00  0.00    +0.000 A 
BRANCH  28  31
ATOM     31  N   UNL     1       7.404   4.644  16.679  0.00  0.00    +0.000 N 
ATOM     32  O   UNL     1       8.212   4.150  17.479  0.00  0.00    +0.000 OA
ATOM     33  O   UNL     1       7.570   4.693  15.452  0.00  0.00    +0.000 OA
ENDBRANCH  28  31
ENDBRANCH  24  25
ENDBRANCH  23  24
ENDBRANCH  20  23
ENDBRANCH   1  18
TORSDOF 9
ENDMDL
MODEL 5
REMARK VINA RESULT:      -7.8      1.326      1.654
REMARK  Name = 
REMARK  9 active torsions:
REMARK  status: ('A' for Active; 'I' for Inactive)
REMARK    1  A    between atoms: C_2  and  C_3
REMARK    2  A    between atoms: C_6  and  C_7
REMARK    3  A    between atoms: C_7  and  C_8
REMARK    4  A    between atoms: C_7  and  N_16
REMARK    5  A    between atoms: C_11  and  C_12
REMARK    6  A    between atoms: C_18  and  C_19
REMARK    7  A    between atoms: C_19  and  O_20
REMARK    8  A    between atoms: O_20  and  C_21
REMARK    9  A    between atoms: C_24  and  N_25
REMARK                            x       y       z     vdW  Elec       q    Type
REMARK                         _______ _______ _______ _____ _____    ______ ____
ROOT
ATOM      1  C   UNL     1       0.118  11.264  18.422  0.00  0.00    +0.000 C 
ENDROOT
BRANCH   1   5
ATOM      2  C   UNL     1      -4.239  11.121  18.255  0.00  0.00    +0.000 A 
ATOM      3  C   UNL     1      -3.464  10.385  17.357  0.00  0.00    +0.000 A 
ATOM      4  C   UNL     1      -2.066  10.434  17.423  0.00  0.00    +0.000 A 
ATOM      5  C   UNL     1      -1.417  11.223  18.390  0.00  0.00    +0.000 A 
ATOM      6  C   UNL     1      -2.222  11.994  19.250  0.00  0.00    +0.000 A 
ATOM      7  C   UNL     1      -3.615  11.931  19.200  0.00  0.00    +0.000 A 
BRANCH   2   9
ATOM      8  N   UNL     1      -6.830  10.998  18.180  0.00  0.00    +0.000 NA
ATOM      9  C   UNL     1      -5.668  11.051  18.212  0.00  0.00    +0.000 C 
ENDBRANCH   2   9
ENDBRANCH   1   5
BRANCH   1  10
ATOM     10  C   UNL     1       0.679  12.595  18.910  0.00  0.00    +0.000 A 
ATOM     11  C   UNL     1       1.812  12.623  19.738  0.00  0.00    +0.000 A 
ATOM     12  C   UNL     1       2.356  13.828  20.176  0.00  0.00    +0.000 A 
ATOM     13  C   UNL     1       1.767  15.033  19.795  0.00  0.00    +0.000 A 
ATOM     14  C   UNL     1       0.630  15.028  18.982  0.00  0.00    +0.000 A 
ATOM     15  C   UNL     1       0.087  13.817  18.538  0.00  0.00    +0.000 A 
BRANCH  13  16
ATOM     16  C   UNL     1       2.336  16.270  20.236  0.00  0.00    +0.000 C 
ATOM     17  N   UNL     1       2.798  17.274  20.591  0.00  0.00    +0.000 NA
ENDBRANCH  13  16
ENDBRANCH   1  10
BRANCH   1  18
ATOM     18  N   UNL     1       0.729  10.124  19.134  0.00  0.00    +0.000 N 
ATOM     19  C   UNL     1       1.554   9.165  18.613  0.00  0.00    +0.000 A 
ATOM     20  C   UNL     1       1.670   8.235  19.625  0.00  0.00    +0.000 A 
ATOM     21  N   UNL     1       1.005   8.689  20.730  0.00  0.00    +0.000 NA
ATOM     22  N   UNL     1       0.475   9.863  20.436  0.00  0.00    +0.000 NA
BRANCH  20  23
ATOM     23  C   UNL     1       2.345   6.913  19.631  0.00  0.00    +0.000 C 
BRANCH  23  24
ATOM     24  O   UNL     1       2.274   6.316  18.337  0.00  0.00    +0.000 OA
BRANCH  24  25
ATOM     25  C   UNL     1       3.445   5.859  17.807  0.00  0.00    +0.000 A 
ATOM     26  C   UNL     1       4.292   6.867  17.336  0.00  0.00    +0.000 A 
ATOM     27  C   UNL     1       5.525   6.553  16.764  0.00  0.00    +0.000 A 
ATOM     28  C   UNL     1       5.923   5.214  16.695  0.00  0.00    +0.000 A 
ATOM     29  C   UNL     1       5.086   4.196  17.175  0.00  0.00    +0.000 A 
ATOM     30  C   UNL     1       3.845   4.523  17.733  0.00  0.00    +0.000 A 
BRANCH  28  31
ATOM     31  N   UNL     1       7.230   4.873  16.121  0.00  0.00    +0.000 N 
ATOM     32  O   UNL     1       7.469   5.254  14.966  0.00  0.00    +0.000 OA
ATOM     33  O   UNL     1       8.017   4.224  16.824  0.00  0.00    +0.000 OA
ENDBRANCH  28  31
ENDBRANCH  24  25
ENDBRANCH  23  24
ENDBRANCH  20  23
ENDBRANCH   1  18
TORSDOF 9
ENDMDL
MODEL 6
REMARK VINA RESULT:      -7.7      1.503      5.038
REMARK  Name = 
REMARK  9 active torsions:
REMARK  status: ('A' for Active; 'I' for Inactive)
REMARK    1  A    between atoms: C_2  and  C_3
REMARK    2  A    between atoms: C_6  and  C_7
REMARK    3  A    between atoms: C_7  and  C_8
REMARK    4  A    between atoms: C_7  and  N_16
REMARK    5  A    between atoms: C_11  and  C_12
REMARK    6  A    between atoms: C_18  and  C_19
REMARK    7  A    between atoms: C_19  and  O_20
REMARK    8  A    between atoms: O_20  and  C_21
REMARK    9  A    between atoms: C_24  and  N_25
REMARK                            x       y       z     vdW  Elec       q    Type
REMARK                         _______ _______ _______ _____ _____    ______ ____
ROOT
ATOM      1  C   UNL     1      -0.525  11.007  19.922  0.00  0.00    +0.000 C 
ENDROOT
BRANCH   1   5
ATOM      2  C   UNL     1       1.752  14.728  19.962  0.00  0.00    +0.000 A 
ATOM      3  C   UNL     1       1.219  14.202  21.141  0.00  0.00    +0.000 A 
ATOM      4  C   UNL     1       0.495  13.004  21.117  0.00  0.00    +0.000 A 
ATOM      5  C   UNL     1       0.289  12.310  19.911  0.00  0.00    +0.000 A 
ATOM      6  C   UNL     1       0.793  12.888  18.731  0.00  0.00    +0.000 A 
ATOM      7  C   UNL     1       1.533  14.071  18.755  0.00  0.00    +0.000 A 
BRANCH   2   9
ATOM      8  N   UNL     1       3.145  16.917  20.009  0.00  0.00    +0.000 NA
ATOM      9  C   UNL     1       2.520  15.936  19.985  0.00  0.00    +0.000 C 
ENDBRANCH   2   9
ENDBRANCH   1   5
BRANCH   1  10
ATOM     10  C   UNL     1      -1.324  10.781  18.643  0.00  0.00    +0.000 A 
ATOM     11  C   UNL     1      -2.441  11.582  18.357  0.00  0.00    +0.000 A 
ATOM     12  C   UNL     1      -3.170  11.410  17.183  0.00  0.00    +0.000 A 
ATOM     13  C   UNL     1      -2.796  10.422  16.273  0.00  0.00    +0.000 A 
ATOM     14  C   UNL     1      -1.695   9.605  16.544  0.00  0.00    +0.000 A 
ATOM     15  C   UNL     1      -0.959   9.782  17.722  0.00  0.00    +0.000 A 
BRANCH  13  16
ATOM     16  C   UNL     1      -3.539  10.257  15.062  0.00  0.00    +0.000 C 
ATOM     17  N   UNL     1      -4.140  10.123  14.078  0.00  0.00    +0.000 NA
ENDBRANCH  13  16
ENDBRANCH   1  10
BRANCH   1  18
ATOM     18  N   UNL     1       0.266   9.815  20.285  0.00  0.00    +0.000 N 
ATOM     19  C   UNL     1       1.328   9.284  19.604  0.00  0.00    +0.000 A 
ATOM     20  C   UNL     1       1.568   8.083  20.239  0.00  0.00    +0.000 A 
ATOM     21  N   UNL     1       0.728   7.966  21.311  0.00  0.00    +0.000 NA
ATOM     22  N   UNL     1      -0.028   9.048  21.359  0.00  0.00    +0.000 NA
BRANCH  20  23
ATOM     23  C   UNL     1       2.522   6.998  19.896  0.00  0.00    +0.000 C 
BRANCH  23  24
ATOM     24  O   UNL     1       2.157   6.393  18.656  0.00  0.00    +0.000 OA
BRANCH  24  25
ATOM     25  C   UNL     1       3.176   5.930  17.876  0.00  0.00    +0.000 A 
ATOM     26  C   UNL     1       4.031   6.927  17.398  0.00  0.00    +0.000 A 
ATOM     27  C   UNL     1       5.118   6.606  16.585  0.00  0.00    +0.000 A 
ATOM     28  C   UNL     1       5.366   5.264  16.278  0.00  0.00    +0.000 A 
ATOM     29  C   UNL     1       4.522   4.255  16.762  0.00  0.00    +0.000 A 
ATOM     30  C   UNL     1       3.425   4.591  17.564  0.00  0.00    +0.000 A 
BRANCH  28  31
ATOM     31  N   UNL     1       6.523   4.911  15.446  0.00  0.00    +0.000 N 
ATOM     32  O   UNL     1       6.426   3.913  14.718  0.00  0.00    +0.000 OA
ATOM     33  O   UNL     1       7.528   5.632  15.521  0.00  0.00    +0.000 OA
ENDBRANCH  28  31
ENDBRANCH  24  25
ENDBRANCH  23  24
ENDBRANCH  20  23
ENDBRANCH   1  18
TORSDOF 9
ENDMDL
MODEL 7
REMARK VINA RESULT:      -7.7      1.518      5.207
REMARK  Name = 
REMARK  9 active torsions:
REMARK  status: ('A' for Active; 'I' for Inactive)
REMARK    1  A    between atoms: C_2  and  C_3
REMARK    2  A    between atoms: C_6  and  C_7
REMARK    3  A    between atoms: C_7  and  C_8
REMARK    4  A    between atoms: C_7  and  N_16
REMARK    5  A    between atoms: C_11  and  C_12
REMARK    6  A    between atoms: C_18  and  C_19
REMARK    7  A    between atoms: C_19  and  O_20
REMARK    8  A    between atoms: O_20  and  C_21
REMARK    9  A    between atoms: C_24  and  N_25
REMARK                            x       y       z     vdW  Elec       q    Type
REMARK                         _______ _______ _______ _____ _____    ______ ____
ROOT
ATOM      1  C   UNL     1       0.110  11.137  19.784  0.00  0.00    +0.000 C 
ENDROOT
BRANCH   1   5
ATOM      2  C   UNL     1       2.852  14.479  19.190  0.00  0.00    +0.000 A 
ATOM      3  C   UNL     1       2.751  13.458  18.242  0.00  0.00    +0.000 A 
ATOM      4  C   UNL     1       1.864  12.394  18.440  0.00  0.00    +0.000 A 
ATOM      5  C   UNL     1       1.061  12.329  19.594  0.00  0.00    +0.000 A 
ATOM      6  C   UNL     1       1.218  13.344  20.556  0.00  0.00    +0.000 A 
ATOM      7  C   UNL     1       2.087  14.417  20.352  0.00  0.00    +0.000 A 
BRANCH   2   9
ATOM      8  N   UNL     1       4.452  16.486  18.812  0.00  0.00    +0.000 NA
ATOM      9  C   UNL     1       3.734  15.586  18.979  0.00  0.00    +0.000 C 
ENDBRANCH   2   9
ENDBRANCH   1   5
BRANCH   1  10
ATOM     10  C   UNL     1      -0.807  10.897  18.590  0.00  0.00    +0.000 A 
ATOM     11  C   UNL     1      -1.720  11.887  18.191  0.00  0.00    +0.000 A 
ATOM     12  C   UNL     1      -2.550  11.700  17.089  0.00  0.00    +0.000 A 
ATOM     13  C   UNL     1      -2.485  10.509  16.366  0.00  0.00    +0.000 A 
ATOM     14  C   UNL     1      -1.593   9.506  16.754  0.00  0.00    +0.000 A 
ATOM     15  C   UNL     1      -0.755   9.696  17.859  0.00  0.00    +0.000 A 
BRANCH  13  16
ATOM     16  C   UNL     1      -3.330  10.325  15.226  0.00  0.00    +0.000 C 
ATOM     17  N   UNL     1      -4.015  10.178  14.301  0.00  0.00    +0.000 NA
ENDBRANCH  13  16
ENDBRANCH   1  10
BRANCH   1  18
ATOM     18  N   UNL     1       0.791   9.896  20.203  0.00  0.00    +0.000 N 
ATOM     19  C   UNL     1       1.446   8.998  19.405  0.00  0.00    +0.000 A 
ATOM     20  C   UNL     1       1.713   7.936  20.244  0.00  0.00    +0.000 A 
ATOM     21  N   UNL     1       1.304   8.248  21.510  0.00  0.00    +0.000 NA
ATOM     22  N   UNL     1       0.787   9.464  21.484  0.00  0.00    +0.000 NA
BRANCH  20  23
ATOM     23  C   UNL     1       2.307   6.609  19.941  0.00  0.00    +0.000 C 
BRANCH  23  24
ATOM     24  O   UNL     1       2.319   6.382  18.532  0.00  0.00    +0.000 OA
BRANCH  24  25
ATOM     25  C   UNL     1       3.533   6.141  17.959  0.00  0.00    +0.000 A 
ATOM     26  C   UNL     1       3.984   4.826  18.106  0.00  0.00    +0.000 A 
ATOM     27  C   UNL     1       5.212   4.431  17.574  0.00  0.00    +0.000 A 
ATOM     28  C   UNL     1       5.976   5.359  16.859  0.00  0.00    +0.000 A 
ATOM     29  C   UNL     1       5.527   6.677  16.696  0.00  0.00    +0.000 A 
ATOM     30  C   UNL     1       4.301   7.066  17.247  0.00  0.00    +0.000 A 
BRANCH  28  31
ATOM     31  N   UNL     1       7.256   4.946  16.270  0.00  0.00    +0.000 N 
ATOM     32  O   UNL     1       7.997   4.222  16.951  0.00  0.00    +0.000 OA
ATOM     33  O   UNL     1       7.521   5.347  15.128  0.00  0.00    +0.000 OA
ENDBRANCH  28  31
ENDBRANCH  24  25
ENDBRANCH  23  24
ENDBRANCH  20  23
ENDBRANCH   1  18
TORSDOF 9
ENDMDL
MODEL 8
REMARK VINA RESULT:      -7.7      1.680      5.108
REMARK  Name = 
REMARK  9 active torsions:
REMARK  status: ('A' for Active; 'I' for Inactive)
REMARK    1  A    between atoms: C_2  and  C_3
REMARK    2  A    between atoms: C_6  and  C_7
REMARK    3  A    between atoms: C_7  and  C_8
REMARK    4  A    between atoms: C_7  and  N_16
REMARK    5  A    between atoms: C_11  and  C_12
REMARK    6  A    between atoms: C_18  and  C_19
REMARK    7  A    between atoms: C_19  and  O_20
REMARK    8  A    between atoms: O_20  and  C_21
REMARK    9  A    between atoms: C_24  and  N_25
REMARK                            x       y       z     vdW  Elec       q    Type
REMARK                         _______ _______ _______ _____ _____    ______ ____
ROOT
ATOM      1  C   UNL     1      -0.667  11.109  20.005  0.00  0.00    +0.000 C 
ENDROOT
BRANCH   1   5
ATOM      2  C   UNL     1       1.568  14.854  20.164  0.00  0.00    +0.000 A 
ATOM      3  C   UNL     1       0.795  14.434  21.249  0.00  0.00    +0.000 A 
ATOM      4  C   UNL     1       0.088  13.228  21.190  0.00  0.00    +0.000 A 
ATOM      5  C   UNL     1       0.137  12.418  20.040  0.00  0.00    +0.000 A 
ATOM      6  C   UNL     1       0.882  12.889  18.942  0.00  0.00    +0.000 A 
ATOM      7  C   UNL     1       1.605  14.081  19.007  0.00  0.00    +0.000 A 
BRANCH   2   9
ATOM      8  N   UNL     1       2.935  17.056  20.285  0.00  0.00    +0.000 NA
ATOM      9  C   UNL     1       2.319  16.070  20.231  0.00  0.00    +0.000 C 
ENDBRANCH   2   9
ENDBRANCH   1   5
BRANCH   1  10
ATOM     10  C   UNL     1      -1.431  10.902  18.702  0.00  0.00    +0.000 A 
ATOM     11  C   UNL     1      -1.019   9.917  17.791  0.00  0.00    +0.000 A 
ATOM     12  C   UNL     1      -1.717   9.693  16.606  0.00  0.00    +0.000 A 
ATOM     13  C   UNL     1      -2.841  10.462  16.309  0.00  0.00    +0.000 A 
ATOM     14  C   UNL     1      -3.261  11.457  17.196  0.00  0.00    +0.000 A 
ATOM     15  C   UNL     1      -2.562  11.678  18.388  0.00  0.00    +0.000 A 
BRANCH  13  16
ATOM     16  C   UNL     1      -3.564  10.221  15.097  0.00  0.00    +0.000 C 
ATOM     17  N   UNL     1      -4.150  10.028  14.114  0.00  0.00    +0.000 NA
ENDBRANCH  13  16
ENDBRANCH   1  10
BRANCH   1  18
ATOM     18  N   UNL     1       0.125   9.917  20.365  0.00  0.00    +0.000 N 
ATOM     19  C   UNL     1       1.161   9.364  19.662  0.00  0.00    +0.000 A 
ATOM     20  C   UNL     1       1.409   8.172  20.311  0.00  0.00    +0.000 A 
ATOM     21  N   UNL     1       0.599   8.080  21.409  0.00  0.00    +0.000 NA
ATOM     22  N   UNL     1      -0.145   9.171  21.460  0.00  0.00    +0.000 NA
BRANCH  20  23
ATOM     23  C   UNL     1       2.343   7.072  19.959  0.00  0.00    +0.000 C 
BRANCH  23  24
ATOM     24  O   UNL     1       2.608   7.079  18.557  0.00  0.00    +0.000 OA
BRANCH  24  25
ATOM     25  C   UNL     1       3.723   6.412  18.141  0.00  0.00    +0.000 A 
ATOM     26  C   UNL     1       4.397   7.028  17.082  0.00  0.00    +0.000 A 
ATOM     27  C   UNL     1       5.554   6.461  16.546  0.00  0.00    +0.000 A 
ATOM     28  C   UNL     1       6.055   5.281  17.104  0.00  0.00    +0.000 A 
ATOM     29  C   UNL     1       5.394   4.661  18.174  0.00  0.00    +0.000 A 
ATOM     30  C   UNL     1       4.225   5.231  18.692  0.00  0.00    +0.000 A 
BRANCH  28  31
ATOM     31  N   UNL     1       7.287   4.690  16.567  0.00  0.00    +0.000 N 
ATOM     32  O   UNL     1       8.091   4.201  17.374  0.00  0.00    +0.000 OA
ATOM     33  O   UNL     1       7.451   4.716  15.339  0.00  0.00    +0.000 OA
ENDBRANCH  28  31
ENDBRANCH  24  25
ENDBRANCH  23  24
ENDBRANCH  20  23
ENDBRANCH   1  18
TORSDOF 9
ENDMDL
MODEL 9
REMARK VINA RESULT:      -7.6      1.323      5.129
REMARK  Name = 
REMARK  9 active torsions:
REMARK  status: ('A' for Active; 'I' for Inactive)
REMARK    1  A    between atoms: C_2  and  C_3
REMARK    2  A    between atoms: C_6  and  C_7
REMARK    3  A    between atoms: C_7  and  C_8
REMARK    4  A    between atoms: C_7  and  N_16
REMARK    5  A    between atoms: C_11  and  C_12
REMARK    6  A    between atoms: C_18  and  C_19
REMARK    7  A    between atoms: C_19  and  O_20
REMARK    8  A    between atoms: O_20  and  C_21
REMARK    9  A    between atoms: C_24  and  N_25
REMARK                            x       y       z     vdW  Elec       q    Type
REMARK                         _______ _______ _______ _____ _____    ______ ____
ROOT
ATOM      1  C   UNL     1       0.359  11.291  20.524  0.00  0.00    +0.000 C 
ENDROOT
BRANCH   1   5
ATOM      2  C   UNL     1       3.320  14.121  19.019  0.00  0.00    +0.000 A 
ATOM      3  C   UNL     1       3.044  14.032  20.385  0.00  0.00    +0.000 A 
ATOM      4  C   UNL     1       2.096  13.116  20.858  0.00  0.00    +0.000 A 
ATOM      5  C   UNL     1       1.404  12.272  19.970  0.00  0.00    +0.000 A 
ATOM      6  C   UNL     1       1.664  12.418  18.594  0.00  0.00    +0.000 A 
ATOM      7  C   UNL     1       2.623  13.315  18.123  0.00  0.00    +0.000 A 
BRANCH   2   9
ATOM      8  N   UNL     1       5.118  15.774  18.143  0.00  0.00    +0.000 NA
ATOM      9  C   UNL     1       4.310  15.033  18.534  0.00  0.00    +0.000 C 
ENDBRANCH   2   9
ENDBRANCH   1   5
BRANCH   1  10
ATOM     10  C   UNL     1      -0.959  11.313  19.758  0.00  0.00    +0.000 A 
ATOM     11  C   UNL     1      -1.948  12.255  20.082  0.00  0.00    +0.000 A 
ATOM     12  C   UNL     1      -3.149  12.311  19.380  0.00  0.00    +0.000 A 
ATOM     13  C   UNL     1      -3.385  11.414  18.338  0.00  0.00    +0.000 A 
ATOM     14  C   UNL     1      -2.419  10.460  18.007  0.00  0.00    +0.000 A 
ATOM     15  C   UNL     1      -1.210  10.408  18.710  0.00  0.00    +0.000 A 
BRANCH  13  16
ATOM     16  C   UNL     1      -4.615  11.482  17.609  0.00  0.00    +0.000 C 
ATOM     17  N   UNL     1      -5.611  11.535  17.017  0.00  0.00    +0.000 NA
ENDBRANCH  13  16
ENDBRANCH   1  10
BRANCH   1  18
ATOM     18  N   UNL     1       0.866   9.915  20.691  0.00  0.00    +0.000 N 
ATOM     19  C   UNL     1       1.615   9.192  19.802  0.00  0.00    +0.000 A 
ATOM     20  C   UNL     1       1.644   7.923  20.341  0.00  0.00    +0.000 A 
ATOM     21  N   UNL     1       1.007   7.933  21.551  0.00  0.00    +0.000 NA
ATOM     22  N   UNL     1       0.578   9.163  21.776  0.00  0.00    +0.000 NA
BRANCH  20  23
ATOM     23  C   UNL     1       2.208   6.665  19.788  0.00  0.00    +0.000 C 
BRANCH  23  24
ATOM     24  O   UNL     1       2.291   6.744  18.366  0.00  0.00    +0.000 OA
BRANCH  24  25
ATOM     25  C   UNL     1       3.445   6.297  17.792  0.00  0.00    +0.000 A 
ATOM     26  C   UNL     1       3.637   4.916  17.893  0.00  0.00    +0.000 A 
ATOM     27  C   UNL     1       4.774   4.313  17.355  0.00  0.00    +0.000 A 
ATOM     28  C   UNL     1       5.709   5.103  16.680  0.00  0.00    +0.000 A 
ATOM     29  C   UNL     1       5.520   6.488  16.562  0.00  0.00    +0.000 A 
ATOM     30  C   UNL     1       4.383   7.083  17.120  0.00  0.00    +0.000 A 
BRANCH  28  31
ATOM     31  N   UNL     1       6.896   4.476  16.085  0.00  0.00    +0.000 N 
ATOM     32  O   UNL     1       6.807   4.066  14.918  0.00  0.00    +0.000 OA
ATOM     33  O   UNL     1       7.915   4.392  16.784  0.00  0.00    +0.000 OA
ENDBRANCH  28  31
ENDBRANCH  24  25
ENDBRANCH  23  24
ENDBRANCH  20  23
ENDBRANCH   1  18
TORSDOF 9
ENDMDL
