MODEL 1
REMARK VINA RESULT:      -7.8      0.000      0.000
REMARK  Name = 
REMARK  10 active torsions:
REMARK  status: ('A' for Active; 'I' for Inactive)
REMARK    1  A    between atoms: C_1  and  C_2
REMARK    2  A    between atoms: C_2  and  O_3
REMARK    3  A    between atoms: O_3  and  C_4
REMARK    4  A    between atoms: C_4  and  C_6
REMARK    5  A    between atoms: C_9  and  N_10
REMARK    6  A    between atoms: C_11  and  C_12
REMARK    7  A    between atoms: C_12  and  C_13
REMARK    8  A    between atoms: C_13  and  C_14
REMARK    9  A    between atoms: C_14  and  O_16
REMARK   10  A    between atoms: C_19  and  C_20
REMARK                            x       y       z     vdW  Elec       q    Type
REMARK                         _______ _______ _______ _____ _____    ______ ____
ROOT
ATOM      1  N   UNL     1       3.447   5.075  17.991  0.00  0.00    +0.000 N 
ATOM      2  C   UNL     1       2.765   3.876  17.735  0.00  0.00    +0.000 A 
ATOM      3  C   UNL     1       3.686   2.944  17.302  0.00  0.00    +0.000 A 
ATOM      4  C   UNL     1       4.944   3.563  17.270  0.00  0.00    +0.000 A 
ATOM      5  C   UNL     1       4.814   4.874  17.707  0.00  0.00    +0.000 A 
ENDROOT
BRANCH   1   9
ATOM      6  C   UNL     1       1.623   8.693  19.229  0.00  0.00    +0.000 A 
ATOM      7  C   UNL     1       1.927   8.480  17.880  0.00  0.00    +0.000 A 
ATOM      8  C   UNL     1       2.509   7.280  17.470  0.00  0.00    +0.000 A 
ATOM      9  C   UNL     1       2.837   6.297  18.411  0.00  0.00    +0.000 A 
ATOM     10  C   UNL     1       2.557   6.521  19.766  0.00  0.00    +0.000 A 
ATOM     11  C   UNL     1       1.928   7.701  20.170  0.00  0.00    +0.000 A 
BRANCH   6  12
ATOM     12  C   UNL     1       1.050  10.010  19.609  0.00  0.00    +0.000 C 
ATOM     13  O   UNL     1       1.523  11.076  19.254  0.00  0.00    +0.000 OA
BRANCH  12  14
ATOM     14  O   UNL     1       0.037   9.834  20.491  0.00  0.00    +0.000 OA
BRANCH  14  16
ATOM     15  C   UNL     1      -0.258   9.436  22.822  0.00  0.00    +0.000 C 
ATOM     16  C   UNL     1       0.254  10.418  21.780  0.00  0.00    +0.000 C 
ENDBRANCH  14  16
ENDBRANCH  12  14
ENDBRANCH   6  12
ENDBRANCH   1   9
BRANCH   5  17
ATOM     17  C   UNL     1       5.922   5.839  17.903  0.00  0.00    +0.000 A 
ATOM     18  C   UNL     1       6.907   5.586  18.873  0.00  0.00    +0.000 A 
ATOM     19  C   UNL     1       7.988   6.457  19.050  0.00  0.00    +0.000 A 
ATOM     20  C   UNL     1       8.115   7.584  18.243  0.00  0.00    +0.000 A 
ATOM     21  C   UNL     1       7.135   7.869  17.299  0.00  0.00    +0.000 A 
ATOM     22  C   UNL     1       6.028   7.026  17.164  0.00  0.00    +0.000 A 
ENDBRANCH   5  17
BRANCH   2  23
ATOM     23  C   UNL     1       1.276   3.650  17.840  0.00  0.00    +0.000 C 
BRANCH  23  24
ATOM     24  C   UNL     1       0.898   2.508  18.782  0.00  0.00    +0.000 C 
BRANCH  24  25
ATOM     25  C   UNL     1       1.071   2.911  20.220  0.00  0.00    +0.000 C 
ATOM     26  O   UNL     1       1.703   2.294  21.060  0.00  0.00    +0.000 OA
BRANCH  25  27
ATOM     27  O   UNL     1       0.443   4.078  20.508  0.00  0.00    +0.000 OA
ATOM     28  H   UNL     1       0.810   4.848  20.030  0.00  0.00    +0.000 HD
ENDBRANCH  25  27
ENDBRANCH  24  25
ENDBRANCH  23  24
ENDBRANCH   2  23
TORSDOF 9
ENDMDL
MODEL 2
REMARK VINA RESULT:      -7.7      0.882      1.631
REMARK  Name = 
REMARK  10 active torsions:
REMARK  status: ('A' for Active; 'I' for Inactive)
REMARK    1  A    between atoms: C_1  and  C_2
REMARK    2  A    between atoms: C_2  and  O_3
REMARK    3  A    between atoms: O_3  and  C_4
REMARK    4  A    between atoms: C_4  and  C_6
REMARK    5  A    between atoms: C_9  and  N_10
REMARK    6  A    between atoms: C_11  and  C_12
REMARK    7  A    between atoms: C_12  and  C_13
REMARK    8  A    between atoms: C_13  and  C_14
REMARK    9  A    between atoms: C_14  and  O_16
REMARK   10  A    between atoms: C_19  and  C_20
REMARK                            x       y       z     vdW  Elec       q    Type
REMARK                         _______ _______ _______ _____ _____    ______ ____
ROOT
ATOM      1  N   UNL     1       3.493   5.118  17.975  0.00  0.00    +0.000 N 
ATOM      2  C   UNL     1       2.797   3.932  17.698  0.00  0.00    +0.000 A 
ATOM      3  C   UNL     1       3.711   2.991  17.268  0.00  0.00    +0.000 A 
ATOM      4  C   UNL     1       4.978   3.592  17.258  0.00  0.00    +0.000 A 
ATOM      5  C   UNL     1       4.860   4.901  17.707  0.00  0.00    +0.000 A 
ENDROOT
BRANCH   1   9
ATOM      6  C   UNL     1       1.733   8.760  19.236  0.00  0.00    +0.000 A 
ATOM      7  C   UNL     1       1.913   7.710  20.144  0.00  0.00    +0.000 A 
ATOM      8  C   UNL     1       2.512   6.519  19.734  0.00  0.00    +0.000 A 
ATOM      9  C   UNL     1       2.894   6.345  18.399  0.00  0.00    +0.000 A 
ATOM     10  C   UNL     1       2.689   7.386  17.482  0.00  0.00    +0.000 A 
ATOM     11  C   UNL     1       2.136   8.597  17.906  0.00  0.00    +0.000 A 
BRANCH   6  12
ATOM     12  C   UNL     1       1.045   9.983  19.723  0.00  0.00    +0.000 C 
ATOM     13  O   UNL     1       0.988  10.301  20.899  0.00  0.00    +0.000 OA
BRANCH  12  14
ATOM     14  O   UNL     1       0.403  10.589  18.696  0.00  0.00    +0.000 OA
BRANCH  14  16
ATOM     15  C   UNL     1      -1.619  11.671  18.047  0.00  0.00    +0.000 C 
ATOM     16  C   UNL     1      -1.020  10.436  18.702  0.00  0.00    +0.000 C 
ENDBRANCH  14  16
ENDBRANCH  12  14
ENDBRANCH   6  12
ENDBRANCH   1   9
BRANCH   5  17
ATOM     17  C   UNL     1       5.979   5.848  17.927  0.00  0.00    +0.000 A 
ATOM     18  C   UNL     1       6.921   5.596  18.939  0.00  0.00    +0.000 A 
ATOM     19  C   UNL     1       8.011   6.449  19.141  0.00  0.00    +0.000 A 
ATOM     20  C   UNL     1       8.192   7.557  18.317  0.00  0.00    +0.000 A 
ATOM     21  C   UNL     1       7.254   7.841  17.331  0.00  0.00    +0.000 A 
ATOM     22  C   UNL     1       6.137   7.017  17.169  0.00  0.00    +0.000 A 
ENDBRANCH   5  17
BRANCH   2  23
ATOM     23  C   UNL     1       1.304   3.725  17.781  0.00  0.00    +0.000 C 
BRANCH  23  24
ATOM     24  C   UNL     1       0.898   2.582  18.710  0.00  0.00    +0.000 C 
BRANCH  24  25
ATOM     25  C   UNL     1       1.127   2.946  20.150  0.00  0.00    +0.000 C 
ATOM     26  O   UNL     1       1.850   2.348  20.928  0.00  0.00    +0.000 OA
BRANCH  25  27
ATOM     27  O   UNL     1       0.435   4.053  20.519  0.00  0.00    +0.000 OA
ATOM     28  H   UNL     1       0.708   4.414  21.386  0.00  0.00    +0.000 HD
ENDBRANCH  25  27
ENDBRANCH  24  25
ENDBRANCH  23  24
ENDBRANCH   2  23
TORSDOF 9
ENDMDL
MODEL 3
REMARK VINA RESULT:      -7.6      0.348      1.356
REMARK  Name = 
REMARK  10 active torsions:
REMARK  status: ('A' for Active; 'I' for Inactive)
REMARK    1  A    between atoms: C_1  and  C_2
REMARK    2  A    between atoms: C_2  and  O_3
REMARK    3  A    between atoms: O_3  and  C_4
REMARK    4  A    between atoms: C_4  and  C_6
REMARK    5  A    between atoms: C_9  and  N_10
REMARK    6  A    between atoms: C_11  and  C_12
REMARK    7  A    between atoms: C_12  and  C_13
REMARK    8  A    between atoms: C_13  and  C_14
REMARK    9  A    between atoms: C_14  and  O_16
REMARK   10  A    between atoms: C_19  and  C_20
REMARK                            x       y       z     vdW  Elec       q    Type
REMARK                         _______ _______ _______ _____ _____    ______ ____
ROOT
ATOM      1  N   UNL     1       3.476   5.049  17.985  0.00  0.00    +0.000 N 
ATOM      2  C   UNL     1       2.770   3.864  17.727  0.00  0.00    +0.000 A 
ATOM      3  C   UNL     1       3.667   2.927  17.256  0.00  0.00    +0.000 A 
ATOM      4  C   UNL     1       4.933   3.528  17.202  0.00  0.00    +0.000 A 
ATOM      5  C   UNL     1       4.832   4.834  17.663  0.00  0.00    +0.000 A 
ENDROOT
BRANCH   1   9
ATOM      6  C   UNL     1       1.766   8.682  19.335  0.00  0.00    +0.000 A 
ATOM      7  C   UNL     1       1.963   7.620  20.225  0.00  0.00    +0.000 A 
ATOM      8  C   UNL     1       2.546   6.432  19.785  0.00  0.00    +0.000 A 
ATOM      9  C   UNL     1       2.894   6.273  18.438  0.00  0.00    +0.000 A 
ATOM     10  C   UNL     1       2.671   7.327  17.540  0.00  0.00    +0.000 A 
ATOM     11  C   UNL     1       2.135   8.535  17.993  0.00  0.00    +0.000 A 
BRANCH   6  12
ATOM     12  C   UNL     1       1.096   9.903  19.854  0.00  0.00    +0.000 C 
ATOM     13  O   UNL     1       0.618  10.764  19.135  0.00  0.00    +0.000 OA
BRANCH  12  14
ATOM     14  O   UNL     1       1.222   9.959  21.201  0.00  0.00    +0.000 OA
BRANCH  14  16
ATOM     15  C   UNL     1      -0.259   9.502  23.012  0.00  0.00    +0.000 C 
ATOM     16  C   UNL     1       0.077  10.473  21.891  0.00  0.00    +0.000 C 
ENDBRANCH  14  16
ENDBRANCH  12  14
ENDBRANCH   6  12
ENDBRANCH   1   9
BRANCH   5  17
ATOM     17  C   UNL     1       5.959   5.780  17.845  0.00  0.00    +0.000 A 
ATOM     18  C   UNL     1       6.041   6.933  17.046  0.00  0.00    +0.000 A 
ATOM     19  C   UNL     1       7.068   7.866  17.226  0.00  0.00    +0.000 A 
ATOM     20  C   UNL     1       8.019   7.673  18.225  0.00  0.00    +0.000 A 
ATOM     21  C   UNL     1       7.973   6.523  19.006  0.00  0.00    +0.000 A 
ATOM     22  C   UNL     1       6.977   5.568  18.786  0.00  0.00    +0.000 A 
ENDBRANCH   5  17
BRANCH   2  23
ATOM     23  C   UNL     1       1.281   3.657  17.866  0.00  0.00    +0.000 C 
BRANCH  23  24
ATOM     24  C   UNL     1       0.911   2.508  18.803  0.00  0.00    +0.000 C 
BRANCH  24  25
ATOM     25  C   UNL     1       1.042   2.918  20.243  0.00  0.00    +0.000 C 
ATOM     26  O   UNL     1       1.623   2.290  21.111  0.00  0.00    +0.000 OA
BRANCH  25  27
ATOM     27  O   UNL     1       0.438   4.105  20.498  0.00  0.00    +0.000 OA
ATOM     28  H   UNL     1       0.863   4.613  21.218  0.00  0.00    +0.000 HD
ENDBRANCH  25  27
ENDBRANCH  24  25
ENDBRANCH  23  24
ENDBRANCH   2  23
TORSDOF 9
ENDMDL
MODEL 4
REMARK VINA RESULT:      -7.6      0.292      1.137
REMARK  Name = 
REMARK  10 active torsions:
REMARK  status: ('A' for Active; 'I' for Inactive)
REMARK    1  A    between atoms: C_1  and  C_2
REMARK    2  A    between atoms: C_2  and  O_3
REMARK    3  A    between atoms: O_3  and  C_4
REMARK    4  A    between atoms: C_4  and  C_6
REMARK    5  A    between atoms: C_9  and  N_10
REMARK    6  A    between atoms: C_11  and  C_12
REMARK    7  A    between atoms: C_12  and  C_13
REMARK    8  A    between atoms: C_13  and  C_14
REMARK    9  A    between atoms: C_14  and  O_16
REMARK   10  A    between atoms: C_19  and  C_20
REMARK                            x       y       z     vdW  Elec       q    Type
REMARK                         _______ _______ _______ _____ _____    ______ ____
ROOT
ATOM      1  N   UNL     1       3.340   5.104  17.980  0.00  0.00    +0.000 N 
ATOM      2  C   UNL     1       2.633   3.924  17.707  0.00  0.00    +0.000 A 
ATOM      3  C   UNL     1       3.531   2.987  17.235  0.00  0.00    +0.000 A 
ATOM      4  C   UNL     1       4.799   3.586  17.197  0.00  0.00    +0.000 A 
ATOM      5  C   UNL     1       4.698   4.887  17.668  0.00  0.00    +0.000 A 
ENDROOT
BRANCH   1   9
ATOM      6  C   UNL     1       1.629   8.731  19.346  0.00  0.00    +0.000 A 
ATOM      7  C   UNL     1       1.902   7.696  20.247  0.00  0.00    +0.000 A 
ATOM      8  C   UNL     1       2.485   6.509  19.800  0.00  0.00    +0.000 A 
ATOM      9  C   UNL     1       2.758   6.326  18.440  0.00  0.00    +0.000 A 
ATOM     10  C   UNL     1       2.459   7.353  17.533  0.00  0.00    +0.000 A 
ATOM     11  C   UNL     1       1.923   8.560  17.988  0.00  0.00    +0.000 A 
BRANCH   6  12
ATOM     12  C   UNL     1       0.963   9.949  19.876  0.00  0.00    +0.000 C 
ATOM     13  O   UNL     1       1.397  11.077  19.712  0.00  0.00    +0.000 OA
BRANCH  12  14
ATOM     14  O   UNL     1      -0.089   9.598  20.652  0.00  0.00    +0.000 OA
BRANCH  14  16
ATOM     15  C   UNL     1       0.068   9.528  23.029  0.00  0.00    +0.000 C 
ATOM     16  C   UNL     1      -0.263  10.398  21.826  0.00  0.00    +0.000 C 
ENDBRANCH  14  16
ENDBRANCH  12  14
ENDBRANCH   6  12
ENDBRANCH   1   9
BRANCH   5  17
ATOM     17  C   UNL     1       5.826   5.829  17.869  0.00  0.00    +0.000 A 
ATOM     18  C   UNL     1       6.799   5.557  18.846  0.00  0.00    +0.000 A 
ATOM     19  C   UNL     1       7.898   6.405  19.027  0.00  0.00    +0.000 A 
ATOM     20  C   UNL     1       8.054   7.527  18.217  0.00  0.00    +0.000 A 
ATOM     21  C   UNL     1       7.086   7.830  17.266  0.00  0.00    +0.000 A 
ATOM     22  C   UNL     1       5.963   7.011  17.126  0.00  0.00    +0.000 A 
ENDBRANCH   5  17
BRANCH   2  23
ATOM     23  C   UNL     1       1.142   3.719  17.831  0.00  0.00    +0.000 C 
BRANCH  23  24
ATOM     24  C   UNL     1       0.758   2.647  18.849  0.00  0.00    +0.000 C 
BRANCH  24  25
ATOM     25  C   UNL     1       1.303   2.970  20.211  0.00  0.00    +0.000 C 
ATOM     26  O   UNL     1       0.890   3.844  20.954  0.00  0.00    +0.000 OA
BRANCH  25  27
ATOM     27  O   UNL     1       2.335   2.161  20.560  0.00  0.00    +0.000 OA
ATOM     28  H   UNL     1       3.205   2.480  20.248  0.00  0.00    +0.000 HD
ENDBRANCH  25  27
ENDBRANCH  24  25
ENDBRANCH  23  24
ENDBRANCH   2  23
TORSDOF 9
ENDMDL
MODEL 5
REMARK VINA RESULT:      -7.5      0.852      1.863
REMARK  Name = 
REMARK  10 active torsions:
REMARK  status: ('A' for Active; 'I' for Inactive)
REMARK    1  A    between atoms: C_1  and  C_2
REMARK    2  A    between atoms: C_2  and  O_3
REMARK    3  A    between atoms: O_3  and  C_4
REMARK    4  A    between atoms: C_4  and  C_6
REMARK    5  A    between atoms: C_9  and  N_10
REMARK    6  A    between atoms: C_11  and  C_12
REMARK    7  A    between atoms: C_12  and  C_13
REMARK    8  A    between atoms: C_13  and  C_14
REMARK    9  A    between atoms: C_14  and  O_16
REMARK   10  A    between atoms: C_19  and  C_20
REMARK                            x       y       z     vdW  Elec       q    Type
REMARK                         _______ _______ _______ _____ _____    ______ ____
ROOT
ATOM      1  N   UNL     1       3.463   5.168  17.939  0.00  0.00    +0.000 N 
ATOM      2  C   UNL     1       2.750   3.994  17.652  0.00  0.00    +0.000 A 
ATOM      3  C   UNL     1       3.652   3.041  17.225  0.00  0.00    +0.000 A 
ATOM      4  C   UNL     1       4.929   3.623  17.227  0.00  0.00    +0.000 A 
ATOM      5  C   UNL     1       4.828   4.931  17.679  0.00  0.00    +0.000 A 
ENDROOT
BRANCH   1   9
ATOM      6  C   UNL     1       1.751   8.833  19.201  0.00  0.00    +0.000 A 
ATOM      7  C   UNL     1       1.950   7.794  20.116  0.00  0.00    +0.000 A 
ATOM      8  C   UNL     1       2.533   6.595  19.705  0.00  0.00    +0.000 A 
ATOM      9  C   UNL     1       2.880   6.403  18.363  0.00  0.00    +0.000 A 
ATOM     10  C   UNL     1       2.655   7.434  17.439  0.00  0.00    +0.000 A 
ATOM     11  C   UNL     1       2.118   8.653  17.862  0.00  0.00    +0.000 A 
BRANCH   6  12
ATOM     12  C   UNL     1       1.080  10.065  19.690  0.00  0.00    +0.000 C 
ATOM     13  O   UNL     1       0.770  10.245  20.855  0.00  0.00    +0.000 OA
BRANCH  12  14
ATOM     14  O   UNL     1       0.765  10.864  18.642  0.00  0.00    +0.000 OA
BRANCH  14  16
ATOM     15  C   UNL     1       2.469  12.465  18.182  0.00  0.00    +0.000 C 
ATOM     16  C   UNL     1       1.104  12.244  18.815  0.00  0.00    +0.000 C 
ENDBRANCH  14  16
ENDBRANCH  12  14
ENDBRANCH   6  12
ENDBRANCH   1   9
BRANCH   5  17
ATOM     17  C   UNL     1       5.960   5.860  17.911  0.00  0.00    +0.000 A 
ATOM     18  C   UNL     1       6.898   5.583  18.920  0.00  0.00    +0.000 A 
ATOM     19  C   UNL     1       8.000   6.418  19.132  0.00  0.00    +0.000 A 
ATOM     20  C   UNL     1       8.196   7.534  18.322  0.00  0.00    +0.000 A 
ATOM     21  C   UNL     1       7.263   7.843  17.338  0.00  0.00    +0.000 A 
ATOM     22  C   UNL     1       6.134   7.036  17.167  0.00  0.00    +0.000 A 
ENDBRANCH   5  17
BRANCH   2  23
ATOM     23  C   UNL     1       1.254   3.811  17.724  0.00  0.00    +0.000 C 
BRANCH  23  24
ATOM     24  C   UNL     1       0.820   2.722  18.704  0.00  0.00    +0.000 C 
BRANCH  24  25
ATOM     25  C   UNL     1       1.031   3.158  20.127  0.00  0.00    +0.000 C 
ATOM     26  O   UNL     1       0.661   4.215  20.610  0.00  0.00    +0.000 OA
BRANCH  25  27
ATOM     27  O   UNL     1       1.689   2.226  20.860  0.00  0.00    +0.000 OA
ATOM     28  H   UNL     1       1.629   1.323  20.489  0.00  0.00    +0.000 HD
ENDBRANCH  25  27
ENDBRANCH  24  25
ENDBRANCH  23  24
ENDBRANCH   2  23
TORSDOF 9
ENDMDL
MODEL 6
REMARK VINA RESULT:      -7.4      0.878      1.764
REMARK  Name = 
REMARK  10 active torsions:
REMARK  status: ('A' for Active; 'I' for Inactive)
REMARK    1  A    between atoms: C_1  and  C_2
REMARK    2  A    between atoms: C_2  and  O_3
REMARK    3  A    between atoms: O_3  and  C_4
REMARK    4  A    between atoms: C_4  and  C_6
REMARK    5  A    between atoms: C_9  and  N_10
REMARK    6  A    between atoms: C_11  and  C_12
REMARK    7  A    between atoms: C_12  and  C_13
REMARK    8  A    between atoms: C_13  and  C_14
REMARK    9  A    between atoms: C_14  and  O_16
REMARK   10  A    between atoms: C_19  and  C_20
REMARK                            x       y       z     vdW  Elec       q    Type
REMARK                         _______ _______ _______ _____ _____    ______ ____
ROOT
ATOM      1  N   UNL     1       3.426   5.096  17.908  0.00  0.00    +0.000 N 
ATOM      2  C   UNL     1       2.694   3.931  17.633  0.00  0.00    +0.000 A 
ATOM      3  C   UNL     1       3.573   2.976  17.164  0.00  0.00    +0.000 A 
ATOM      4  C   UNL     1       4.854   3.548  17.129  0.00  0.00    +0.000 A 
ATOM      5  C   UNL     1       4.779   4.851  17.600  0.00  0.00    +0.000 A 
ENDROOT
BRANCH   1   9
ATOM      6  C   UNL     1       1.757   8.749  19.259  0.00  0.00    +0.000 A 
ATOM      7  C   UNL     1       2.136   8.597  17.920  0.00  0.00    +0.000 A 
ATOM      8  C   UNL     1       2.665   7.387  17.471  0.00  0.00    +0.000 A 
ATOM      9  C   UNL     1       2.868   6.331  18.366  0.00  0.00    +0.000 A 
ATOM     10  C   UNL     1       2.514   6.491  19.713  0.00  0.00    +0.000 A 
ATOM     11  C   UNL     1       1.936   7.686  20.151  0.00  0.00    +0.000 A 
BRANCH   6  12
ATOM     12  C   UNL     1       1.246  10.077  19.685  0.00  0.00    +0.000 C 
ATOM     13  O   UNL     1       0.951  10.346  20.838  0.00  0.00    +0.000 OA
BRANCH  12  14
ATOM     14  O   UNL     1       1.043  10.863  18.601  0.00  0.00    +0.000 OA
BRANCH  14  16
ATOM     15  C   UNL     1       2.431  12.784  18.356  0.00  0.00    +0.000 C 
ATOM     16  C   UNL     1       1.092  12.270  18.860  0.00  0.00    +0.000 C 
ENDBRANCH  14  16
ENDBRANCH  12  14
ENDBRANCH   6  12
ENDBRANCH   1   9
BRANCH   5  17
ATOM     17  C   UNL     1       5.926   5.769  17.803  0.00  0.00    +0.000 A 
ATOM     18  C   UNL     1       6.056   6.916  17.002  0.00  0.00    +0.000 A 
ATOM     19  C   UNL     1       7.103   7.822  17.201  0.00  0.00    +0.000 A 
ATOM     20  C   UNL     1       8.027   7.609  18.221  0.00  0.00    +0.000 A 
ATOM     21  C   UNL     1       7.934   6.463  19.004  0.00  0.00    +0.000 A 
ATOM     22  C   UNL     1       6.919   5.533  18.766  0.00  0.00    +0.000 A 
ENDBRANCH   5  17
BRANCH   2  23
ATOM     23  C   UNL     1       1.199   3.759  17.753  0.00  0.00    +0.000 C 
BRANCH  23  24
ATOM     24  C   UNL     1       0.790   2.653  18.724  0.00  0.00    +0.000 C 
BRANCH  24  25
ATOM     25  C   UNL     1       1.249   2.961  20.122  0.00  0.00    +0.000 C 
ATOM     26  O   UNL     1       2.176   2.423  20.702  0.00  0.00    +0.000 OA
BRANCH  25  27
ATOM     27  O   UNL     1       0.512   3.941  20.703  0.00  0.00    +0.000 OA
ATOM     28  H   UNL     1       0.387   4.726  20.133  0.00  0.00    +0.000 HD
ENDBRANCH  25  27
ENDBRANCH  24  25
ENDBRANCH  23  24
ENDBRANCH   2  23
TORSDOF 9
ENDMDL
MODEL 7
REMARK VINA RESULT:      -7.3      0.872      1.868
REMARK  Name = 
REMARK  10 active torsions:
REMARK  status: ('A' for Active; 'I' for Inactive)
REMARK    1  A    between atoms: C_1  and  C_2
REMARK    2  A    between atoms: C_2  and  O_3
REMARK    3  A    between atoms: O_3  and  C_4
REMARK    4  A    between atoms: C_4  and  C_6
REMARK    5  A    between atoms: C_9  and  N_10
REMARK    6  A    between atoms: C_11  and  C_12
REMARK    7  A    between atoms: C_12  and  C_13
REMARK    8  A    between atoms: C_13  and  C_14
REMARK    9  A    between atoms: C_14  and  O_16
REMARK   10  A    between atoms: C_19  and  C_20
REMARK                            x       y       z     vdW  Elec       q    Type
REMARK                         _______ _______ _______ _____ _____    ______ ____
ROOT
ATOM      1  N   UNL     1       3.520   5.086  17.914  0.00  0.00    +0.000 N 
ATOM      2  C   UNL     1       2.808   3.911  17.627  0.00  0.00    +0.000 A 
ATOM      3  C   UNL     1       3.707   2.967  17.174  0.00  0.00    +0.000 A 
ATOM      4  C   UNL     1       4.981   3.555  17.160  0.00  0.00    +0.000 A 
ATOM      5  C   UNL     1       4.881   4.858  17.629  0.00  0.00    +0.000 A 
ENDROOT
BRANCH   1   9
ATOM      6  C   UNL     1       1.813   8.728  19.247  0.00  0.00    +0.000 A 
ATOM      7  C   UNL     1       1.951   7.648  20.126  0.00  0.00    +0.000 A 
ATOM      8  C   UNL     1       2.533   6.456  19.693  0.00  0.00    +0.000 A 
ATOM      9  C   UNL     1       2.939   6.313  18.361  0.00  0.00    +0.000 A 
ATOM     10  C   UNL     1       2.776   7.385  17.472  0.00  0.00    +0.000 A 
ATOM     11  C   UNL     1       2.241   8.595  17.920  0.00  0.00    +0.000 A 
BRANCH   6  12
ATOM     12  C   UNL     1       1.142   9.952  19.755  0.00  0.00    +0.000 C 
ATOM     13  O   UNL     1       1.065  10.234  20.939  0.00  0.00    +0.000 OA
BRANCH  12  14
ATOM     14  O   UNL     1       0.538  10.603  18.733  0.00  0.00    +0.000 OA
BRANCH  14  16
ATOM     15  C   UNL     1      -0.279  12.825  18.456  0.00  0.00    +0.000 C 
ATOM     16  C   UNL     1      -0.524  11.480  19.123  0.00  0.00    +0.000 C 
ENDBRANCH  14  16
ENDBRANCH  12  14
ENDBRANCH   6  12
ENDBRANCH   1   9
BRANCH   5  17
ATOM     17  C   UNL     1       6.013   5.789  17.851  0.00  0.00    +0.000 A 
ATOM     18  C   UNL     1       6.134   6.945  17.060  0.00  0.00    +0.000 A 
ATOM     19  C   UNL     1       7.167   7.864  17.276  0.00  0.00    +0.000 A 
ATOM     20  C   UNL     1       8.083   7.655  18.303  0.00  0.00    +0.000 A 
ATOM     21  C   UNL     1       8.000   6.502  19.076  0.00  0.00    +0.000 A 
ATOM     22  C   UNL     1       7.000   5.560  18.821  0.00  0.00    +0.000 A 
ENDBRANCH   5  17
BRANCH   2  23
ATOM     23  C   UNL     1       1.314   3.720  17.722  0.00  0.00    +0.000 C 
BRANCH  23  24
ATOM     24  C   UNL     1       0.903   2.603  18.680  0.00  0.00    +0.000 C 
BRANCH  24  25
ATOM     25  C   UNL     1       1.257   2.947  20.100  0.00  0.00    +0.000 C 
ATOM     26  O   UNL     1       2.159   2.446  20.749  0.00  0.00    +0.000 OA
BRANCH  25  27
ATOM     27  O   UNL     1       0.455   3.913  20.612  0.00  0.00    +0.000 OA
ATOM     28  H   UNL     1       0.439   3.930  21.590  0.00  0.00    +0.000 HD
ENDBRANCH  25  27
ENDBRANCH  24  25
ENDBRANCH  23  24
ENDBRANCH   2  23
TORSDOF 9
ENDMDL
MODEL 8
REMARK VINA RESULT:      -7.2      1.168      2.101
REMARK  Name = 
REMARK  10 active torsions:
REMARK  status: ('A' for Active; 'I' for Inactive)
REMARK    1  A    between atoms: C_1  and  C_2
REMARK    2  A    between atoms: C_2  and  O_3
REMARK    3  A    between atoms: O_3  and  C_4
REMARK    4  A    between atoms: C_4  and  C_6
REMARK    5  A    between atoms: C_9  and  N_10
REMARK    6  A    between atoms: C_11  and  C_12
REMARK    7  A    between atoms: C_12  and  C_13
REMARK    8  A    between atoms: C_13  and  C_14
REMARK    9  A    between atoms: C_14  and  O_16
REMARK   10  A    between atoms: C_19  and  C_20
REMARK                            x       y       z     vdW  Elec       q    Type
REMARK                         _______ _______ _______ _____ _____    ______ ____
ROOT
ATOM      1  N   UNL     1       3.315   4.941  18.500  0.00  0.00    +0.000 N 
ATOM      2  C   UNL     1       2.603   3.732  18.527  0.00  0.00    +0.000 A 
ATOM      3  C   UNL     1       3.483   2.712  18.230  0.00  0.00    +0.000 A 
ATOM      4  C   UNL     1       4.744   3.281  18.000  0.00  0.00    +0.000 A 
ATOM      5  C   UNL     1       4.657   4.655  18.178  0.00  0.00    +0.000 A 
ENDROOT
BRANCH   1   9
ATOM      6  C   UNL     1       1.648   8.787  19.118  0.00  0.00    +0.000 A 
ATOM      7  C   UNL     1       1.872   7.931  20.202  0.00  0.00    +0.000 A 
ATOM      8  C   UNL     1       2.441   6.673  20.001  0.00  0.00    +0.000 A 
ATOM      9  C   UNL     1       2.747   6.237  18.707  0.00  0.00    +0.000 A 
ATOM     10  C   UNL     1       2.498   7.082  17.617  0.00  0.00    +0.000 A 
ATOM     11  C   UNL     1       1.976   8.362  17.825  0.00  0.00    +0.000 A 
BRANCH   6  12
ATOM     12  C   UNL     1       0.995  10.093  19.392  0.00  0.00    +0.000 C 
ATOM     13  O   UNL     1       1.024  10.644  20.479  0.00  0.00    +0.000 OA
BRANCH  12  14
ATOM     14  O   UNL     1       0.280  10.485  18.311  0.00  0.00    +0.000 OA
BRANCH  14  16
ATOM     15  C   UNL     1      -1.837  10.096  17.287  0.00  0.00    +0.000 C 
ATOM     16  C   UNL     1      -1.130  10.603  18.534  0.00  0.00    +0.000 C 
ENDBRANCH  14  16
ENDBRANCH  12  14
ENDBRANCH   6  12
ENDBRANCH   1   9
BRANCH   5  17
ATOM     17  C   UNL     1       5.788   5.613  18.112  0.00  0.00    +0.000 A 
ATOM     18  C   UNL     1       5.750   6.678  17.195  0.00  0.00    +0.000 A 
ATOM     19  C   UNL     1       6.782   7.621  17.141  0.00  0.00    +0.000 A 
ATOM     20  C   UNL     1       7.858   7.530  18.019  0.00  0.00    +0.000 A 
ATOM     21  C   UNL     1       7.929   6.466  18.912  0.00  0.00    +0.000 A 
ATOM     22  C   UNL     1       6.924   5.495  18.925  0.00  0.00    +0.000 A 
ENDBRANCH   5  17
BRANCH   2  23
ATOM     23  C   UNL     1       1.121   3.567  18.765  0.00  0.00    +0.000 C 
BRANCH  23  24
ATOM     24  C   UNL     1       0.708   3.802  20.217  0.00  0.00    +0.000 C 
BRANCH  24  25
ATOM     25  C   UNL     1       1.638   3.101  21.167  0.00  0.00    +0.000 C 
ATOM     26  O   UNL     1       2.300   3.637  22.040  0.00  0.00    +0.000 OA
BRANCH  25  27
ATOM     27  O   UNL     1       1.670   1.760  20.963  0.00  0.00    +0.000 OA
ATOM     28  H   UNL     1       1.391   1.495  20.065  0.00  0.00    +0.000 HD
ENDBRANCH  25  27
ENDBRANCH  24  25
ENDBRANCH  23  24
ENDBRANCH   2  23
TORSDOF 9
ENDMDL
MODEL 9
REMARK VINA RESULT:      -7.1      1.025      1.742
REMARK  Name = 
REMARK  10 active torsions:
REMARK  status: ('A' for Active; 'I' for Inactive)
REMARK    1  A    between atoms: C_1  and  C_2
REMARK    2  A    between atoms: C_2  and  O_3
REMARK    3  A    between atoms: O_3  and  C_4
REMARK    4  A    between atoms: C_4  and  C_6
REMARK    5  A    between atoms: C_9  and  N_10
REMARK    6  A    between atoms: C_11  and  C_12
REMARK    7  A    between atoms: C_12  and  C_13
REMARK    8  A    between atoms: C_13  and  C_14
REMARK    9  A    between atoms: C_14  and  O_16
REMARK   10  A    between atoms: C_19  and  C_20
REMARK                            x       y       z     vdW  Elec       q    Type
REMARK                         _______ _______ _______ _____ _____    ______ ____
ROOT
ATOM      1  N   UNL     1       3.471   5.128  17.905  0.00  0.00    +0.000 N 
ATOM      2  C   UNL     1       2.755   3.958  17.612  0.00  0.00    +0.000 A 
ATOM      3  C   UNL     1       3.646   3.022  17.128  0.00  0.00    +0.000 A 
ATOM      4  C   UNL     1       4.919   3.611  17.100  0.00  0.00    +0.000 A 
ATOM      5  C   UNL     1       4.827   4.906  17.591  0.00  0.00    +0.000 A 
ENDROOT
BRANCH   1   9
ATOM      6  C   UNL     1       1.756   8.737  19.313  0.00  0.00    +0.000 A 
ATOM      7  C   UNL     1       2.123   8.607  17.969  0.00  0.00    +0.000 A 
ATOM      8  C   UNL     1       2.668   7.411  17.501  0.00  0.00    +0.000 A 
ATOM      9  C   UNL     1       2.897   6.347  18.382  0.00  0.00    +0.000 A 
ATOM     10  C   UNL     1       2.554   6.487  19.734  0.00  0.00    +0.000 A 
ATOM     11  C   UNL     1       1.961   7.667  20.192  0.00  0.00    +0.000 A 
BRANCH   6  12
ATOM     12  C   UNL     1       1.227  10.051  19.760  0.00  0.00    +0.000 C 
ATOM     13  O   UNL     1       0.991  10.320  20.926  0.00  0.00    +0.000 OA
BRANCH  12  14
ATOM     14  O   UNL     1       0.935  10.820  18.684  0.00  0.00    +0.000 OA
BRANCH  14  16
ATOM     15  C   UNL     1      -1.310  10.330  18.054  0.00  0.00    +0.000 C 
ATOM     16  C   UNL     1      -0.388  11.367  18.677  0.00  0.00    +0.000 C 
ENDBRANCH  14  16
ENDBRANCH  12  14
ENDBRANCH   6  12
ENDBRANCH   1   9
BRANCH   5  17
ATOM     17  C   UNL     1       5.962   5.835  17.807  0.00  0.00    +0.000 A 
ATOM     18  C   UNL     1       6.046   7.023  17.060  0.00  0.00    +0.000 A 
ATOM     19  C   UNL     1       7.082   7.939  17.273  0.00  0.00    +0.000 A 
ATOM     20  C   UNL     1       8.039   7.695  18.255  0.00  0.00    +0.000 A 
ATOM     21  C   UNL     1       7.991   6.511  18.983  0.00  0.00    +0.000 A 
ATOM     22  C   UNL     1       6.986   5.573  18.728  0.00  0.00    +0.000 A 
ENDBRANCH   5  17
BRANCH   2  23
ATOM     23  C   UNL     1       1.262   3.763  17.732  0.00  0.00    +0.000 C 
BRANCH  23  24
ATOM     24  C   UNL     1       0.804   3.424  19.149  0.00  0.00    +0.000 C 
BRANCH  24  25
ATOM     25  C   UNL     1       1.669   2.358  19.760  0.00  0.00    +0.000 C 
ATOM     26  O   UNL     1       2.373   2.490  20.746  0.00  0.00    +0.000 OA
BRANCH  25  27
ATOM     27  O   UNL     1       1.586   1.180  19.091  0.00  0.00    +0.000 OA
ATOM     28  H   UNL     1       2.310   1.043  18.449  0.00  0.00    +0.000 HD
ENDBRANCH  25  27
ENDBRANCH  24  25
ENDBRANCH  23  24
ENDBRANCH   2  23
TORSDOF 9
ENDMDL
