MODEL 1
REMARK VINA RESULT:      -6.5      0.000      0.000
REMARK  Name = 
REMARK  8 active torsions:
REMARK  status: ('A' for Active; 'I' for Inactive)
REMARK    1  A    between atoms: C_1  and  C_2
REMARK    2  A    between atoms: C_2  and  C_3
REMARK    3  A    between atoms: C_3  and  C_4
REMARK    4  A    between atoms: C_4  and  C_5
REMARK    5  A    between atoms: C_5  and  C_6
REMARK    6  A    between atoms: C_5  and  C_8
REMARK    7  A    between atoms: C_6  and  C_7
REMARK    8  A    between atoms: N_10  and  C_11
REMARK                            x       y       z     vdW  Elec       q    Type
REMARK                         _______ _______ _______ _____ _____    ______ ____
ROOT
ATOM      1  C   UNL     1       5.569   5.092  18.591  0.00  0.00    +0.000 C 
ATOM      2  O   UNL     1       6.441   4.661  19.320  0.00  0.00    +0.000 OA
ATOM      3  N   UNL     1       4.260   4.648  18.649  0.00  0.00    +0.000 N 
ATOM      4  H   UNL     1       3.617   4.954  17.932  0.00  0.00    +0.000 HD
ENDROOT
BRANCH   3   5
ATOM      5  C   UNL     1       3.812   3.619  19.587  0.00  0.00    +0.000 C 
ATOM      6  C   UNL     1       2.532   4.085  20.289  0.00  0.00    +0.000 C 
ATOM      7  C   UNL     1       1.328   4.089  19.348  0.00  0.00    +0.000 C 
ATOM      8  C   UNL     1       1.115   2.721  18.707  0.00  0.00    +0.000 C 
ATOM      9  C   UNL     1       2.371   2.237  17.986  0.00  0.00    +0.000 C 
ATOM     10  C   UNL     1       3.595   2.261  18.901  0.00  0.00    +0.000 C 
ENDBRANCH   3   5
BRANCH   1  11
ATOM     11  C   UNL     1       5.805   6.176  17.522  0.00  0.00    +0.000 C 
BRANCH  11  12
ATOM     12  C   UNL     1       7.305   6.488  17.358  0.00  0.00    +0.000 C 
ATOM     13  C   UNL     1       7.606   7.968  17.557  0.00  0.00    +0.000 C 
ENDBRANCH  11  12
BRANCH  11  14
ATOM     14  C   UNL     1       5.200   5.829  16.142  0.00  0.00    +0.000 C 
BRANCH  14  15
ATOM     15  C   UNL     1       5.677   4.515  15.533  0.00  0.00    +0.000 C 
BRANCH  15  17
ATOM     16  C   UNL     1       6.155   3.715  13.249  0.00  0.00    +0.000 C 
ATOM     17  C   UNL     1       6.551   4.720  14.313  0.00  0.00    +0.000 C 
ENDBRANCH  15  17
ENDBRANCH  14  15
ENDBRANCH  11  14
ENDBRANCH   1  11
TORSDOF 6
ENDMDL
MODEL 2
REMARK VINA RESULT:      -6.5      1.563      3.380
REMARK  Name = 
REMARK  8 active torsions:
REMARK  status: ('A' for Active; 'I' for Inactive)
REMARK    1  A    between atoms: C_1  and  C_2
REMARK    2  A    between atoms: C_2  and  C_3
REMARK    3  A    between atoms: C_3  and  C_4
REMARK    4  A    between atoms: C_4  and  C_5
REMARK    5  A    between atoms: C_5  and  C_6
REMARK    6  A    between atoms: C_5  and  C_8
REMARK    7  A    between atoms: C_6  and  C_7
REMARK    8  A    between atoms: N_10  and  C_11
REMARK                            x       y       z     vdW  Elec       q    Type
REMARK                         _______ _______ _______ _____ _____    ______ ____
ROOT
ATOM      1  C   UNL     1       4.853   5.312  16.999  0.00  0.00    +0.000 C 
ATOM      2  O   UNL     1       4.639   6.386  16.473  0.00  0.00    +0.000 OA
ATOM      3  N   UNL     1       3.979   4.738  17.907  0.00  0.00    +0.000 N 
ATOM      4  H   UNL     1       4.276   3.909  18.401  0.00  0.00    +0.000 HD
ENDROOT
BRANCH   3   5
ATOM      5  C   UNL     1       2.726   5.374  18.314  0.00  0.00    +0.000 C 
ATOM      6  C   UNL     1       1.540   4.573  17.767  0.00  0.00    +0.000 C 
ATOM      7  C   UNL     1       1.371   3.233  18.484  0.00  0.00    +0.000 C 
ATOM      8  C   UNL     1       1.237   3.420  19.992  0.00  0.00    +0.000 C 
ATOM      9  C   UNL     1       2.414   4.203  20.569  0.00  0.00    +0.000 C 
ATOM     10  C   UNL     1       2.623   5.530  19.839  0.00  0.00    +0.000 C 
ENDBRANCH   3   5
BRANCH   1  11
ATOM     11  C   UNL     1       6.107   4.460  16.729  0.00  0.00    +0.000 C 
BRANCH  11  12
ATOM     12  C   UNL     1       6.725   4.788  15.356  0.00  0.00    +0.000 C 
ATOM     13  C   UNL     1       6.050   4.020  14.227  0.00  0.00    +0.000 C 
ENDBRANCH  11  12
BRANCH  11  14
ATOM     14  C   UNL     1       7.193   4.588  17.823  0.00  0.00    +0.000 C 
BRANCH  14  15
ATOM     15  C   UNL     1       7.020   5.762  18.778  0.00  0.00    +0.000 C 
BRANCH  15  17
ATOM     16  C   UNL     1       7.679   7.778  17.518  0.00  0.00    +0.000 C 
ATOM     17  C   UNL     1       8.098   6.815  18.611  0.00  0.00    +0.000 C 
ENDBRANCH  15  17
ENDBRANCH  14  15
ENDBRANCH  11  14
ENDBRANCH   1  11
TORSDOF 6
ENDMDL
MODEL 3
REMARK VINA RESULT:      -6.4      1.691      3.393
REMARK  Name = 
REMARK  8 active torsions:
REMARK  status: ('A' for Active; 'I' for Inactive)
REMARK    1  A    between atoms: C_1  and  C_2
REMARK    2  A    between atoms: C_2  and  C_3
REMARK    3  A    between atoms: C_3  and  C_4
REMARK    4  A    between atoms: C_4  and  C_5
REMARK    5  A    between atoms: C_5  and  C_6
REMARK    6  A    between atoms: C_5  and  C_8
REMARK    7  A    between atoms: C_6  and  C_7
REMARK    8  A    between atoms: N_10  and  C_11
REMARK                            x       y       z     vdW  Elec       q    Type
REMARK                         _______ _______ _______ _____ _____    ______ ____
ROOT
ATOM      1  C   UNL     1       3.725   5.158  17.711  0.00  0.00    +0.000 C 
ATOM      2  O   UNL     1       3.330   6.299  17.570  0.00  0.00    +0.000 OA
ATOM      3  N   UNL     1       2.994   4.193  18.382  0.00  0.00    +0.000 N 
ATOM      4  H   UNL     1       3.434   3.304  18.573  0.00  0.00    +0.000 HD
ENDROOT
BRANCH   3   5
ATOM      5  C   UNL     1       1.688   4.462  18.983  0.00  0.00    +0.000 C 
ATOM      6  C   UNL     1       0.860   3.172  19.015  0.00  0.00    +0.000 C 
ATOM      7  C   UNL     1       1.394   2.171  20.040  0.00  0.00    +0.000 C 
ATOM      8  C   UNL     1       1.472   2.788  21.433  0.00  0.00    +0.000 C 
ATOM      9  C   UNL     1       2.304   4.068  21.436  0.00  0.00    +0.000 C 
ATOM     10  C   UNL     1       1.809   5.067  20.390  0.00  0.00    +0.000 C 
ENDBRANCH   3   5
BRANCH   1  11
ATOM     11  C   UNL     1       5.071   4.644  17.167  0.00  0.00    +0.000 C 
BRANCH  11  12
ATOM     12  C   UNL     1       5.487   5.399  15.890  0.00  0.00    +0.000 C 
ATOM     13  C   UNL     1       5.503   4.489  14.668  0.00  0.00    +0.000 C 
ENDBRANCH  11  12
BRANCH  11  14
ATOM     14  C   UNL     1       6.222   4.709  18.198  0.00  0.00    +0.000 C 
BRANCH  14  15
ATOM     15  C   UNL     1       7.498   5.384  17.708  0.00  0.00    +0.000 C 
BRANCH  15  17
ATOM     16  C   UNL     1       7.725   7.839  17.640  0.00  0.00    +0.000 C 
ATOM     17  C   UNL     1       7.858   6.612  18.519  0.00  0.00    +0.000 C 
ENDBRANCH  15  17
ENDBRANCH  14  15
ENDBRANCH  11  14
ENDBRANCH   1  11
TORSDOF 6
ENDMDL
MODEL 4
REMARK VINA RESULT:      -6.4      0.999      3.181
REMARK  Name = 
REMARK  8 active torsions:
REMARK  status: ('A' for Active; 'I' for Inactive)
REMARK    1  A    between atoms: C_1  and  C_2
REMARK    2  A    between atoms: C_2  and  C_3
REMARK    3  A    between atoms: C_3  and  C_4
REMARK    4  A    between atoms: C_4  and  C_5
REMARK    5  A    between atoms: C_5  and  C_6
REMARK    6  A    between atoms: C_5  and  C_8
REMARK    7  A    between atoms: C_6  and  C_7
REMARK    8  A    between atoms: N_10  and  C_11
REMARK                            x       y       z     vdW  Elec       q    Type
REMARK                         _______ _______ _______ _____ _____    ______ ____
ROOT
ATOM      1  C   UNL     1       6.010   4.790  18.594  0.00  0.00    +0.000 C 
ATOM      2  O   UNL     1       6.308   5.041  19.745  0.00  0.00    +0.000 OA
ATOM      3  N   UNL     1       5.001   3.902  18.261  0.00  0.00    +0.000 N 
ATOM      4  H   UNL     1       4.891   3.644  17.290  0.00  0.00    +0.000 HD
ENDROOT
BRANCH   3   5
ATOM      5  C   UNL     1       4.211   3.187  19.262  0.00  0.00    +0.000 C 
ATOM      6  C   UNL     1       3.161   4.130  19.859  0.00  0.00    +0.000 C 
ATOM      7  C   UNL     1       2.047   4.455  18.864  0.00  0.00    +0.000 C 
ATOM      8  C   UNL     1       1.384   3.187  18.334  0.00  0.00    +0.000 C 
ATOM      9  C   UNL     1       2.405   2.233  17.719  0.00  0.00    +0.000 C 
ATOM     10  C   UNL     1       3.549   1.926  18.686  0.00  0.00    +0.000 C 
ENDBRANCH   3   5
BRANCH   1  11
ATOM     11  C   UNL     1       6.705   5.419  17.372  0.00  0.00    +0.000 C 
BRANCH  11  12
ATOM     12  C   UNL     1       6.084   4.921  16.053  0.00  0.00    +0.000 C 
ATOM     13  C   UNL     1       7.129   4.747  14.959  0.00  0.00    +0.000 C 
ENDBRANCH  11  12
BRANCH  11  14
ATOM     14  C   UNL     1       6.704   6.966  17.385  0.00  0.00    +0.000 C 
BRANCH  14  15
ATOM     15  C   UNL     1       7.989   7.615  17.884  0.00  0.00    +0.000 C 
BRANCH  15  17
ATOM     16  C   UNL     1       8.930   9.717  18.767  0.00  0.00    +0.000 C 
ATOM     17  C   UNL     1       7.971   9.125  17.754  0.00  0.00    +0.000 C 
ENDBRANCH  15  17
ENDBRANCH  14  15
ENDBRANCH  11  14
ENDBRANCH   1  11
TORSDOF 6
ENDMDL
MODEL 5
REMARK VINA RESULT:      -6.3      1.719      2.355
REMARK  Name = 
REMARK  8 active torsions:
REMARK  status: ('A' for Active; 'I' for Inactive)
REMARK    1  A    between atoms: C_1  and  C_2
REMARK    2  A    between atoms: C_2  and  C_3
REMARK    3  A    between atoms: C_3  and  C_4
REMARK    4  A    between atoms: C_4  and  C_5
REMARK    5  A    between atoms: C_5  and  C_6
REMARK    6  A    between atoms: C_5  and  C_8
REMARK    7  A    between atoms: C_6  and  C_7
REMARK    8  A    between atoms: N_10  and  C_11
REMARK                            x       y       z     vdW  Elec       q    Type
REMARK                         _______ _______ _______ _____ _____    ______ ____
ROOT
ATOM      1  C   UNL     1       3.730   5.791  18.071  0.00  0.00    +0.000 C 
ATOM      2  O   UNL     1       3.126   6.837  17.939  0.00  0.00    +0.000 OA
ATOM      3  N   UNL     1       3.156   4.662  18.629  0.00  0.00    +0.000 N 
ATOM      4  H   UNL     1       3.749   3.869  18.825  0.00  0.00    +0.000 HD
ENDROOT
BRANCH   3   5
ATOM      5  C   UNL     1       1.775   4.630  19.111  0.00  0.00    +0.000 C 
ATOM      6  C   UNL     1       1.166   3.251  18.836  0.00  0.00    +0.000 C 
ATOM      7  C   UNL     1       1.759   2.169  19.739  0.00  0.00    +0.000 C 
ATOM      8  C   UNL     1       1.614   2.531  21.214  0.00  0.00    +0.000 C 
ATOM      9  C   UNL     1       2.226   3.895  21.521  0.00  0.00    +0.000 C 
ATOM     10  C   UNL     1       1.673   4.985  20.603  0.00  0.00    +0.000 C 
ENDBRANCH   3   5
BRANCH   1  11
ATOM     11  C   UNL     1       5.195   5.588  17.640  0.00  0.00    +0.000 C 
BRANCH  11  12
ATOM     12  C   UNL     1       6.087   5.213  18.839  0.00  0.00    +0.000 C 
ATOM     13  C   UNL     1       7.563   5.465  18.554  0.00  0.00    +0.000 C 
ENDBRANCH  11  12
BRANCH  11  14
ATOM     14  C   UNL     1       5.372   4.534  16.522  0.00  0.00    +0.000 C 
BRANCH  14  15
ATOM     15  C   UNL     1       5.564   5.098  15.119  0.00  0.00    +0.000 C 
BRANCH  15  17
ATOM     16  C   UNL     1       6.057   3.709  13.141  0.00  0.00    +0.000 C 
ATOM     17  C   UNL     1       6.663   4.393  14.351  0.00  0.00    +0.000 C 
ENDBRANCH  15  17
ENDBRANCH  14  15
ENDBRANCH  11  14
ENDBRANCH   1  11
TORSDOF 6
ENDMDL
MODEL 6
REMARK VINA RESULT:      -6.3      1.080      1.255
REMARK  Name = 
REMARK  8 active torsions:
REMARK  status: ('A' for Active; 'I' for Inactive)
REMARK    1  A    between atoms: C_1  and  C_2
REMARK    2  A    between atoms: C_2  and  C_3
REMARK    3  A    between atoms: C_3  and  C_4
REMARK    4  A    between atoms: C_4  and  C_5
REMARK    5  A    between atoms: C_5  and  C_6
REMARK    6  A    between atoms: C_5  and  C_8
REMARK    7  A    between atoms: C_6  and  C_7
REMARK    8  A    between atoms: N_10  and  C_11
REMARK                            x       y       z     vdW  Elec       q    Type
REMARK                         _______ _______ _______ _____ _____    ______ ____
ROOT
ATOM      1  C   UNL     1       6.022   5.596  18.874  0.00  0.00    +0.000 C 
ATOM      2  O   UNL     1       6.652   5.169  19.821  0.00  0.00    +0.000 OA
ATOM      3  N   UNL     1       4.693   5.276  18.656  0.00  0.00    +0.000 N 
ATOM      4  H   UNL     1       4.267   5.560  17.785  0.00  0.00    +0.000 HD
ENDROOT
BRANCH   3   5
ATOM      5  C   UNL     1       3.933   4.394  19.541  0.00  0.00    +0.000 C 
ATOM      6  C   UNL     1       2.438   4.703  19.417  0.00  0.00    +0.000 C 
ATOM      7  C   UNL     1       1.865   4.245  18.075  0.00  0.00    +0.000 C 
ATOM      8  C   UNL     1       2.123   2.761  17.836  0.00  0.00    +0.000 C 
ATOM      9  C   UNL     1       3.609   2.424  17.939  0.00  0.00    +0.000 C 
ATOM     10  C   UNL     1       4.210   2.909  19.259  0.00  0.00    +0.000 C 
ENDBRANCH   3   5
BRANCH   1  11
ATOM     11  C   UNL     1       6.611   6.538  17.807  0.00  0.00    +0.000 C 
BRANCH  11  12
ATOM     12  C   UNL     1       7.940   7.159  18.278  0.00  0.00    +0.000 C 
ATOM     13  C   UNL     1       8.071   8.617  17.855  0.00  0.00    +0.000 C 
ENDBRANCH  11  12
BRANCH  11  14
ATOM     14  C   UNL     1       6.822   5.863  16.431  0.00  0.00    +0.000 C 
BRANCH  14  15
ATOM     15  C   UNL     1       5.626   5.920  15.488  0.00  0.00    +0.000 C 
BRANCH  15  17
ATOM     16  C   UNL     1       6.123   3.507  15.342  0.00  0.00    +0.000 C 
ATOM     17  C   UNL     1       5.032   4.552  15.215  0.00  0.00    +0.000 C 
ENDBRANCH  15  17
ENDBRANCH  14  15
ENDBRANCH  11  14
ENDBRANCH   1  11
TORSDOF 6
ENDMDL
MODEL 7
REMARK VINA RESULT:      -6.3      2.039      5.766
REMARK  Name = 
REMARK  8 active torsions:
REMARK  status: ('A' for Active; 'I' for Inactive)
REMARK    1  A    between atoms: C_1  and  C_2
REMARK    2  A    between atoms: C_2  and  C_3
REMARK    3  A    between atoms: C_3  and  C_4
REMARK    4  A    between atoms: C_4  and  C_5
REMARK    5  A    between atoms: C_5  and  C_6
REMARK    6  A    between atoms: C_5  and  C_8
REMARK    7  A    between atoms: C_6  and  C_7
REMARK    8  A    between atoms: N_10  and  C_11
REMARK                            x       y       z     vdW  Elec       q    Type
REMARK                         _______ _______ _______ _____ _____    ______ ____
ROOT
ATOM      1  C   UNL     1       4.086   4.210  17.729  0.00  0.00    +0.000 C 
ATOM      2  O   UNL     1       4.262   3.162  17.139  0.00  0.00    +0.000 OA
ATOM      3  N   UNL     1       5.058   5.192  17.813  0.00  0.00    +0.000 N 
ATOM      4  H   UNL     1       4.893   5.980  18.423  0.00  0.00    +0.000 HD
ENDROOT
BRANCH   3   5
ATOM      5  C   UNL     1       6.381   5.052  17.206  0.00  0.00    +0.000 C 
ATOM      6  C   UNL     1       6.739   6.337  16.450  0.00  0.00    +0.000 C 
ATOM      7  C   UNL     1       7.033   7.499  17.399  0.00  0.00    +0.000 C 
ATOM      8  C   UNL     1       8.134   7.143  18.394  0.00  0.00    +0.000 C 
ATOM      9  C   UNL     1       7.798   5.874  19.173  0.00  0.00    +0.000 C 
ATOM     10  C   UNL     1       7.463   4.709  18.242  0.00  0.00    +0.000 C 
ENDBRANCH   3   5
BRANCH   1  11
ATOM     11  C   UNL     1       2.775   4.579  18.448  0.00  0.00    +0.000 C 
BRANCH  11  12
ATOM     12  C   UNL     1       2.475   6.086  18.334  0.00  0.00    +0.000 C 
ATOM     13  C   UNL     1       2.337   6.746  19.699  0.00  0.00    +0.000 C 
ENDBRANCH  11  12
BRANCH  11  14
ATOM     14  C   UNL     1       1.549   3.774  17.956  0.00  0.00    +0.000 C 
BRANCH  14  15
ATOM     15  C   UNL     1       0.857   2.928  19.017  0.00  0.00    +0.000 C 
BRANCH  15  17
ATOM     16  C   UNL     1       1.395   2.829  21.423  0.00  0.00    +0.000 C 
ATOM     17  C   UNL     1       1.824   2.370  20.043  0.00  0.00    +0.000 C 
ENDBRANCH  15  17
ENDBRANCH  14  15
ENDBRANCH  11  14
ENDBRANCH   1  11
TORSDOF 6
ENDMDL
MODEL 8
REMARK VINA RESULT:      -6.2      0.998      2.946
REMARK  Name = 
REMARK  8 active torsions:
REMARK  status: ('A' for Active; 'I' for Inactive)
REMARK    1  A    between atoms: C_1  and  C_2
REMARK    2  A    between atoms: C_2  and  C_3
REMARK    3  A    between atoms: C_3  and  C_4
REMARK    4  A    between atoms: C_4  and  C_5
REMARK    5  A    between atoms: C_5  and  C_6
REMARK    6  A    between atoms: C_5  and  C_8
REMARK    7  A    between atoms: C_6  and  C_7
REMARK    8  A    between atoms: N_10  and  C_11
REMARK                            x       y       z     vdW  Elec       q    Type
REMARK                         _______ _______ _______ _____ _____    ______ ____
ROOT
ATOM      1  C   UNL     1       5.951   4.518  18.238  0.00  0.00    +0.000 C 
ATOM      2  O   UNL     1       6.527   4.622  19.303  0.00  0.00    +0.000 OA
ATOM      3  N   UNL     1       4.588   4.294  18.146  0.00  0.00    +0.000 N 
ATOM      4  H   UNL     1       4.196   4.091  17.237  0.00  0.00    +0.000 HD
ENDROOT
BRANCH   3   5
ATOM      5  C   UNL     1       3.725   4.159  19.318  0.00  0.00    +0.000 C 
ATOM      6  C   UNL     1       2.372   4.823  19.041  0.00  0.00    +0.000 C 
ATOM      7  C   UNL     1       1.536   4.029  18.036  0.00  0.00    +0.000 C 
ATOM      8  C   UNL     1       1.338   2.586  18.492  0.00  0.00    +0.000 C 
ATOM      9  C   UNL     1       2.671   1.893  18.763  0.00  0.00    +0.000 C 
ATOM     10  C   UNL     1       3.538   2.692  19.736  0.00  0.00    +0.000 C 
ENDBRANCH   3   5
BRANCH   1  11
ATOM     11  C   UNL     1       6.652   4.621  16.871  0.00  0.00    +0.000 C 
BRANCH  11  12
ATOM     12  C   UNL     1       6.010   3.677  15.837  0.00  0.00    +0.000 C 
ATOM     13  C   UNL     1       5.899   4.325  14.462  0.00  0.00    +0.000 C 
ENDBRANCH  11  12
BRANCH  11  14
ATOM     14  C   UNL     1       6.689   6.058  16.298  0.00  0.00    +0.000 C 
BRANCH  14  15
ATOM     15  C   UNL     1       6.621   7.174  17.334  0.00  0.00    +0.000 C 
BRANCH  15  17
ATOM     16  C   UNL     1       8.113   9.044  17.935  0.00  0.00    +0.000 C 
ATOM     17  C   UNL     1       7.982   7.534  17.895  0.00  0.00    +0.000 C 
ENDBRANCH  15  17
ENDBRANCH  14  15
ENDBRANCH  11  14
ENDBRANCH   1  11
TORSDOF 6
ENDMDL
MODEL 9
REMARK VINA RESULT:      -6.2      1.573      3.365
REMARK  Name = 
REMARK  8 active torsions:
REMARK  status: ('A' for Active; 'I' for Inactive)
REMARK    1  A    between atoms: C_1  and  C_2
REMARK    2  A    between atoms: C_2  and  C_3
REMARK    3  A    between atoms: C_3  and  C_4
REMARK    4  A    between atoms: C_4  and  C_5
REMARK    5  A    between atoms: C_5  and  C_6
REMARK    6  A    between atoms: C_5  and  C_8
REMARK    7  A    between atoms: C_6  and  C_7
REMARK    8  A    between atoms: N_10  and  C_11
REMARK                            x       y       z     vdW  Elec       q    Type
REMARK                         _______ _______ _______ _____ _____    ______ ____
ROOT
ATOM      1  C   UNL     1       4.158   5.196  17.237  0.00  0.00    +0.000 C 
ATOM      2  O   UNL     1       3.962   6.394  17.265  0.00  0.00    +0.000 OA
ATOM      3  N   UNL     1       3.296   4.284  17.821  0.00  0.00    +0.000 N 
ATOM      4  H   UNL     1       3.582   3.317  17.872  0.00  0.00    +0.000 HD
ENDROOT
BRANCH   3   5
ATOM      5  C   UNL     1       2.079   4.683  18.528  0.00  0.00    +0.000 C 
ATOM      6  C   UNL     1       1.003   3.607  18.349  0.00  0.00    +0.000 C 
ATOM      7  C   UNL     1       1.327   2.334  19.132  0.00  0.00    +0.000 C 
ATOM      8  C   UNL     1       1.543   2.630  20.613  0.00  0.00    +0.000 C 
ATOM      9  C   UNL     1       2.621   3.690  20.823  0.00  0.00    +0.000 C 
ATOM     10  C   UNL     1       2.336   4.957  20.018  0.00  0.00    +0.000 C 
ENDBRANCH   3   5
BRANCH   1  11
ATOM     11  C   UNL     1       5.374   4.542  16.554  0.00  0.00    +0.000 C 
BRANCH  11  12
ATOM     12  C   UNL     1       5.487   4.970  15.078  0.00  0.00    +0.000 C 
ATOM     13  C   UNL     1       6.228   3.936  14.239  0.00  0.00    +0.000 C 
ENDBRANCH  11  12
BRANCH  11  14
ATOM     14  C   UNL     1       6.715   4.822  17.272  0.00  0.00    +0.000 C 
BRANCH  14  15
ATOM     15  C   UNL     1       7.301   6.209  17.039  0.00  0.00    +0.000 C 
BRANCH  15  17
ATOM     16  C   UNL     1       7.814   5.800  19.418  0.00  0.00    +0.000 C 
ATOM     17  C   UNL     1       7.850   6.832  18.308  0.00  0.00    +0.000 C 
ENDBRANCH  15  17
ENDBRANCH  14  15
ENDBRANCH  11  14
ENDBRANCH   1  11
TORSDOF 6
ENDMDL
