MODEL 1
REMARK VINA RESULT:      -8.2      0.000      0.000
REMARK  Name = 
REMARK  4 active torsions:
REMARK  status: ('A' for Active; 'I' for Inactive)
REMARK    1  A    between atoms: C_1  and  C_2
REMARK    2  A    between atoms: C_13  and  O_14
REMARK    3  A    between atoms: C_16  and  C_17
REMARK    4  A    between atoms: C_16  and  C_18
REMARK                            x       y       z     vdW  Elec       q    Type
REMARK                         _______ _______ _______ _____ _____    ______ ____
ROOT
ATOM      1  C   UNL     1       1.843   8.890  18.384  0.00  0.00    +0.000 C 
ATOM      2  C   UNL     1       2.606   7.616  18.367  0.00  0.00    +0.000 A 
ATOM      3  N   UNL     1       3.491   7.375  17.402  0.00  0.00    +0.000 NA
ATOM      4  N   UNL     1       4.050   6.162  17.704  0.00  0.00    +0.000 N 
ATOM      5  C   UNL     1       5.107   5.659  16.878  0.00  0.00    +0.000 A 
ATOM      6  C   UNL     1       5.173   6.106  15.557  0.00  0.00    +0.000 A 
ATOM      7  C   UNL     1       6.014   5.445  14.666  0.00  0.00    +0.000 A 
ATOM      8  C   UNL     1       6.791   4.391  15.125  0.00  0.00    +0.000 A 
ATOM      9  C   UNL     1       6.744   4.080  16.472  0.00  0.00    +0.000 A 
ATOM     10  N   UNL     1       5.937   4.697  17.361  0.00  0.00    +0.000 NA
ATOM     11  C   UNL     1       3.406   5.576  18.789  0.00  0.00    +0.000 A 
ATOM     12  C   UNL     1       2.504   6.528  19.254  0.00  0.00    +0.000 A 
ATOM     13  C   UNL     1       1.580   6.332  20.403  0.00  0.00    +0.000 C 
ATOM     14  C   UNL     1       1.981   5.091  21.217  0.00  0.00    +0.000 C 
ATOM     15  C   UNL     1       2.347   3.859  20.331  0.00  0.00    +0.000 C 
ATOM     16  C   UNL     1       2.697   2.698  21.288  0.00  0.00    +0.000 C 
ATOM     17  C   UNL     1       1.092   3.454  19.513  0.00  0.00    +0.000 C 
ATOM     18  C   UNL     1       3.591   4.215  19.411  0.00  0.00    +0.000 C 
ATOM     19 BR   UNL     1       3.819   2.750  18.120  0.00  0.00    +0.000 Br
ENDROOT
BRANCH  13  20
ATOM     20  O   UNL     1       1.556   7.453  21.270  0.00  0.00    +0.000 OA
ATOM     21  H   UNL     1       0.624   7.633  21.486  0.00  0.00    +0.000 HD
ENDBRANCH  13  20
TORSDOF 1
ENDMDL
MODEL 2
REMARK VINA RESULT:      -6.3     10.013     11.906
REMARK  Name = 
REMARK  4 active torsions:
REMARK  status: ('A' for Active; 'I' for Inactive)
REMARK    1  A    between atoms: C_1  and  C_2
REMARK    2  A    between atoms: C_13  and  O_14
REMARK    3  A    between atoms: C_16  and  C_17
REMARK    4  A    between atoms: C_16  and  C_18
REMARK                            x       y       z     vdW  Elec       q    Type
REMARK                         _______ _______ _______ _____ _____    ______ ____
ROOT
ATOM      1  C   UNL     1      11.404  16.703  17.080  0.00  0.00    +0.000 C 
ATOM      2  C   UNL     1      10.523  15.913  17.977  0.00  0.00    +0.000 A 
ATOM      3  N   UNL     1       9.732  16.527  18.854  0.00  0.00    +0.000 NA
ATOM      4  N   UNL     1       9.021  15.534  19.474  0.00  0.00    +0.000 N 
ATOM      5  C   UNL     1       8.018  15.890  20.432  0.00  0.00    +0.000 A 
ATOM      6  C   UNL     1       8.147  17.118  21.086  0.00  0.00    +0.000 A 
ATOM      7  C   UNL     1       7.348  17.372  22.198  0.00  0.00    +0.000 A 
ATOM      8  C   UNL     1       6.421  16.420  22.597  0.00  0.00    +0.000 A 
ATOM      9  C   UNL     1       6.285  15.276  21.831  0.00  0.00    +0.000 A 
ATOM     10  N   UNL     1       7.045  14.996  20.752  0.00  0.00    +0.000 NA
ATOM     11  C   UNL     1       9.476  14.279  19.080  0.00  0.00    +0.000 A 
ATOM     12  C   UNL     1      10.413  14.514  18.078  0.00  0.00    +0.000 A 
ATOM     13  C   UNL     1      11.178  13.454  17.366  0.00  0.00    +0.000 C 
ATOM     14  C   UNL     1      10.564  12.070  17.632  0.00  0.00    +0.000 C 
ATOM     15  C   UNL     1      10.176  11.839  19.125  0.00  0.00    +0.000 C 
ATOM     16  C   UNL     1       9.605  10.407  19.231  0.00  0.00    +0.000 C 
ATOM     17  C   UNL     1      11.467  11.912  19.983  0.00  0.00    +0.000 C 
ATOM     18  C   UNL     1       9.085  12.906  19.564  0.00  0.00    +0.000 C 
ATOM     19 BR   UNL     1       8.856  12.761  21.511  0.00  0.00    +0.000 Br
ENDROOT
BRANCH  13  20
ATOM     20  O   UNL     1      11.218  13.670  15.966  0.00  0.00    +0.000 OA
ATOM     21  H   UNL     1      12.154  13.665  15.698  0.00  0.00    +0.000 HD
ENDBRANCH  13  20
TORSDOF 1
ENDMDL
MODEL 3
REMARK VINA RESULT:      -6.0     10.708     12.353
REMARK  Name = 
REMARK  4 active torsions:
REMARK  status: ('A' for Active; 'I' for Inactive)
REMARK    1  A    between atoms: C_1  and  C_2
REMARK    2  A    between atoms: C_13  and  O_14
REMARK    3  A    between atoms: C_16  and  C_17
REMARK    4  A    between atoms: C_16  and  C_18
REMARK                            x       y       z     vdW  Elec       q    Type
REMARK                         _______ _______ _______ _____ _____    ______ ____
ROOT
ATOM      1  C   UNL     1      12.274  17.001  18.022  0.00  0.00    +0.000 C 
ATOM      2  C   UNL     1      11.452  16.057  18.821  0.00  0.00    +0.000 A 
ATOM      3  N   UNL     1      11.093  16.365  20.066  0.00  0.00    +0.000 NA
ATOM      4  N   UNL     1      10.309  15.327  20.495  0.00  0.00    +0.000 N 
ATOM      5  C   UNL     1       9.702  15.404  21.790  0.00  0.00    +0.000 A 
ATOM      6  C   UNL     1      10.314  16.211  22.752  0.00  0.00    +0.000 A 
ATOM      7  C   UNL     1       9.906  16.101  24.078  0.00  0.00    +0.000 A 
ATOM      8  C   UNL     1       8.878  15.225  24.399  0.00  0.00    +0.000 A 
ATOM      9  C   UNL     1       8.256  14.540  23.371  0.00  0.00    +0.000 A 
ATOM     10  N   UNL     1       8.629  14.620  22.077  0.00  0.00    +0.000 NA
ATOM     11  C   UNL     1      10.296  14.296  19.560  0.00  0.00    +0.000 A 
ATOM     12  C   UNL     1      10.993  14.778  18.456  0.00  0.00    +0.000 A 
ATOM     13  C   UNL     1      11.245  14.006  17.209  0.00  0.00    +0.000 C 
ATOM     14  C   UNL     1      10.359  12.751  17.159  0.00  0.00    +0.000 C 
ATOM     15  C   UNL     1      10.294  11.983  18.515  0.00  0.00    +0.000 C 
ATOM     16  C   UNL     1       9.397  10.744  18.295  0.00  0.00    +0.000 C 
ATOM     17  C   UNL     1      11.723  11.491  18.869  0.00  0.00    +0.000 C 
ATOM     18  C   UNL     1       9.674  12.925  19.633  0.00  0.00    +0.000 C 
ATOM     19 BR   UNL     1       9.889  12.021  21.365  0.00  0.00    +0.000 Br
ENDROOT
BRANCH  13  20
ATOM     20  O   UNL     1      11.005  14.776  16.044  0.00  0.00    +0.000 OA
ATOM     21  H   UNL     1      10.711  15.658  16.333  0.00  0.00    +0.000 HD
ENDBRANCH  13  20
TORSDOF 1
ENDMDL
MODEL 4
REMARK VINA RESULT:      -5.9      8.258     11.526
REMARK  Name = 
REMARK  4 active torsions:
REMARK  status: ('A' for Active; 'I' for Inactive)
REMARK    1  A    between atoms: C_1  and  C_2
REMARK    2  A    between atoms: C_13  and  O_14
REMARK    3  A    between atoms: C_16  and  C_17
REMARK    4  A    between atoms: C_16  and  C_18
REMARK                            x       y       z     vdW  Elec       q    Type
REMARK                         _______ _______ _______ _____ _____    ______ ____
ROOT
ATOM      1  C   UNL     1      -0.769  10.483  18.199  0.00  0.00    +0.000 C 
ATOM      2  C   UNL     1      -1.856  11.250  18.860  0.00  0.00    +0.000 A 
ATOM      3  N   UNL     1      -1.692  11.720  20.094  0.00  0.00    +0.000 NA
ATOM      4  N   UNL     1      -2.837  12.415  20.383  0.00  0.00    +0.000 N 
ATOM      5  C   UNL     1      -2.932  13.111  21.632  0.00  0.00    +0.000 A 
ATOM      6  C   UNL     1      -2.150  12.653  22.695  0.00  0.00    +0.000 A 
ATOM      7  C   UNL     1      -2.413  13.133  23.975  0.00  0.00    +0.000 A 
ATOM      8  C   UNL     1      -3.413  14.080  24.151  0.00  0.00    +0.000 A 
ATOM      9  C   UNL     1      -4.067  14.557  23.030  0.00  0.00    +0.000 A 
ATOM     10  N   UNL     1      -3.841  14.110  21.777  0.00  0.00    +0.000 NA
ATOM     11  C   UNL     1      -3.781  12.256  19.373  0.00  0.00    +0.000 A 
ATOM     12  C   UNL     1      -3.139  11.544  18.364  0.00  0.00    +0.000 A 
ATOM     13  C   UNL     1      -3.773  11.130  17.083  0.00  0.00    +0.000 C 
ATOM     14  C   UNL     1      -5.103  11.871  16.871  0.00  0.00    +0.000 C 
ATOM     15  C   UNL     1      -5.986  11.943  18.155  0.00  0.00    +0.000 C 
ATOM     16  C   UNL     1      -7.286  12.685  17.774  0.00  0.00    +0.000 C 
ATOM     17  C   UNL     1      -6.359  10.495  18.575  0.00  0.00    +0.000 C 
ATOM     18  C   UNL     1      -5.209  12.731  19.293  0.00  0.00    +0.000 C 
ATOM     19 BR   UNL     1      -6.230  12.535  20.961  0.00  0.00    +0.000 Br
ENDROOT
BRANCH  13  20
ATOM     20  O   UNL     1      -2.936  11.374  15.966  0.00  0.00    +0.000 OA
ATOM     21  H   UNL     1      -3.478  11.252  15.165  0.00  0.00    +0.000 HD
ENDBRANCH  13  20
TORSDOF 1
ENDMDL
MODEL 5
REMARK VINA RESULT:      -5.8      8.814     11.262
REMARK  Name = 
REMARK  4 active torsions:
REMARK  status: ('A' for Active; 'I' for Inactive)
REMARK    1  A    between atoms: C_1  and  C_2
REMARK    2  A    between atoms: C_13  and  O_14
REMARK    3  A    between atoms: C_16  and  C_17
REMARK    4  A    between atoms: C_16  and  C_18
REMARK                            x       y       z     vdW  Elec       q    Type
REMARK                         _______ _______ _______ _____ _____    ______ ____
ROOT
ATOM      1  C   UNL     1      -3.971  12.753  24.828  0.00  0.00    +0.000 C 
ATOM      2  C   UNL     1      -3.821  12.706  23.352  0.00  0.00    +0.000 A 
ATOM      3  N   UNL     1      -4.873  12.453  22.577  0.00  0.00    +0.000 NA
ATOM      4  N   UNL     1      -4.415  12.536  21.288  0.00  0.00    +0.000 N 
ATOM      5  C   UNL     1      -5.345  12.382  20.209  0.00  0.00    +0.000 A 
ATOM      6  C   UNL     1      -6.511  11.652  20.450  0.00  0.00    +0.000 A 
ATOM      7  C   UNL     1      -7.296  11.265  19.367  0.00  0.00    +0.000 A 
ATOM      8  C   UNL     1      -6.920  11.650  18.088  0.00  0.00    +0.000 A 
ATOM      9  C   UNL     1      -5.808  12.460  17.947  0.00  0.00    +0.000 A 
ATOM     10  N   UNL     1      -5.023  12.849  18.974  0.00  0.00    +0.000 NA
ATOM     11  C   UNL     1      -3.034  12.702  21.263  0.00  0.00    +0.000 A 
ATOM     12  C   UNL     1      -2.648  12.861  22.590  0.00  0.00    +0.000 A 
ATOM     13  C   UNL     1      -1.246  13.057  23.048  0.00  0.00    +0.000 C 
ATOM     14  C   UNL     1      -0.330  13.399  21.862  0.00  0.00    +0.000 C 
ATOM     15  C   UNL     1      -0.590  12.517  20.602  0.00  0.00    +0.000 C 
ATOM     16  C   UNL     1       0.418  12.961  19.518  0.00  0.00    +0.000 C 
ATOM     17  C   UNL     1      -0.291  11.038  20.968  0.00  0.00    +0.000 C 
ATOM     18  C   UNL     1      -2.079  12.735  20.097  0.00  0.00    +0.000 C 
ATOM     19 BR   UNL     1      -2.442  11.393  18.706  0.00  0.00    +0.000 Br
ENDROOT
BRANCH  13  20
ATOM     20  O   UNL     1      -1.135  14.086  24.016  0.00  0.00    +0.000 OA
ATOM     21  H   UNL     1      -0.820  14.885  23.556  0.00  0.00    +0.000 HD
ENDBRANCH  13  20
TORSDOF 1
ENDMDL
MODEL 6
REMARK VINA RESULT:      -5.7      8.648     11.352
REMARK  Name = 
REMARK  4 active torsions:
REMARK  status: ('A' for Active; 'I' for Inactive)
REMARK    1  A    between atoms: C_1  and  C_2
REMARK    2  A    between atoms: C_13  and  O_14
REMARK    3  A    between atoms: C_16  and  C_17
REMARK    4  A    between atoms: C_16  and  C_18
REMARK                            x       y       z     vdW  Elec       q    Type
REMARK                         _______ _______ _______ _____ _____    ______ ____
ROOT
ATOM      1  C   UNL     1      -2.955  10.725  15.490  0.00  0.00    +0.000 C 
ATOM      2  C   UNL     1      -3.295  11.233  16.844  0.00  0.00    +0.000 A 
ATOM      3  N   UNL     1      -4.536  11.628  17.122  0.00  0.00    +0.000 NA
ATOM      4  N   UNL     1      -4.527  11.980  18.446  0.00  0.00    +0.000 N 
ATOM      5  C   UNL     1      -5.754  12.382  19.066  0.00  0.00    +0.000 A 
ATOM      6  C   UNL     1      -6.757  12.908  18.249  0.00  0.00    +0.000 A 
ATOM      7  C   UNL     1      -7.842  13.545  18.846  0.00  0.00    +0.000 A 
ATOM      8  C   UNL     1      -7.915  13.602  20.230  0.00  0.00    +0.000 A 
ATOM      9  C   UNL     1      -6.933  12.964  20.965  0.00  0.00    +0.000 A 
ATOM     10  N   UNL     1      -5.866  12.343  20.420  0.00  0.00    +0.000 NA
ATOM     11  C   UNL     1      -3.235  11.939  18.960  0.00  0.00    +0.000 A 
ATOM     12  C   UNL     1      -2.440  11.412  17.947  0.00  0.00    +0.000 A 
ATOM     13  C   UNL     1      -0.971  11.198  18.046  0.00  0.00    +0.000 C 
ATOM     14  C   UNL     1      -0.503  11.308  19.506  0.00  0.00    +0.000 C 
ATOM     15  C   UNL     1      -1.137  12.510  20.271  0.00  0.00    +0.000 C 
ATOM     16  C   UNL     1      -0.551  12.501  21.701  0.00  0.00    +0.000 C 
ATOM     17  C   UNL     1      -0.695  13.824  19.573  0.00  0.00    +0.000 C 
ATOM     18  C   UNL     1      -2.715  12.341  20.317  0.00  0.00    +0.000 C 
ATOM     19 BR   UNL     1      -3.477  14.010  21.022  0.00  0.00    +0.000 Br
ENDROOT
BRANCH  13  20
ATOM     20  O   UNL     1      -0.578   9.933  17.540  0.00  0.00    +0.000 OA
ATOM     21  H   UNL     1      -0.863   9.261  18.184  0.00  0.00    +0.000 HD
ENDBRANCH  13  20
TORSDOF 1
ENDMDL
MODEL 7
REMARK VINA RESULT:      -5.7      5.494      8.434
REMARK  Name = 
REMARK  4 active torsions:
REMARK  status: ('A' for Active; 'I' for Inactive)
REMARK    1  A    between atoms: C_1  and  C_2
REMARK    2  A    between atoms: C_13  and  O_14
REMARK    3  A    between atoms: C_16  and  C_17
REMARK    4  A    between atoms: C_16  and  C_18
REMARK                            x       y       z     vdW  Elec       q    Type
REMARK                         _______ _______ _______ _____ _____    ______ ____
ROOT
ATOM      1  C   UNL     1       2.082   8.628  18.278  0.00  0.00    +0.000 C 
ATOM      2  C   UNL     1       0.813   9.319  18.619  0.00  0.00    +0.000 A 
ATOM      3  N   UNL     1      -0.115   9.519  17.686  0.00  0.00    +0.000 NA
ATOM      4  N   UNL     1      -1.166  10.120  18.328  0.00  0.00    +0.000 N 
ATOM      5  C   UNL     1      -2.363  10.397  17.593  0.00  0.00    +0.000 A 
ATOM      6  C   UNL     1      -2.258  10.554  16.209  0.00  0.00    +0.000 A 
ATOM      7  C   UNL     1      -3.342  11.079  15.510  0.00  0.00    +0.000 A 
ATOM      8  C   UNL     1      -4.504  11.392  16.199  0.00  0.00    +0.000 A 
ATOM      9  C   UNL     1      -4.561  11.109  17.551  0.00  0.00    +0.000 A 
ATOM     10  N   UNL     1      -3.529  10.605  18.260  0.00  0.00    +0.000 NA
ATOM     11  C   UNL     1      -0.832  10.425  19.644  0.00  0.00    +0.000 A 
ATOM     12  C   UNL     1       0.426   9.869  19.855  0.00  0.00    +0.000 A 
ATOM     13  C   UNL     1       1.191   9.959  21.128  0.00  0.00    +0.000 C 
ATOM     14  C   UNL     1       0.285  10.441  22.273  0.00  0.00    +0.000 C 
ATOM     15  C   UNL     1      -0.644  11.629  21.871  0.00  0.00    +0.000 C 
ATOM     16  C   UNL     1      -1.462  12.012  23.125  0.00  0.00    +0.000 C 
ATOM     17  C   UNL     1       0.248  12.839  21.485  0.00  0.00    +0.000 C 
ATOM     18  C   UNL     1      -1.609  11.177  20.695  0.00  0.00    +0.000 C 
ATOM     19 BR   UNL     1      -2.539  12.778  20.035  0.00  0.00    +0.000 Br
ENDROOT
BRANCH  13  20
ATOM     20  O   UNL     1       1.765   8.718  21.498  0.00  0.00    +0.000 OA
ATOM     21  H   UNL     1       1.133   8.020  21.250  0.00  0.00    +0.000 HD
ENDBRANCH  13  20
TORSDOF 1
ENDMDL
MODEL 8
REMARK VINA RESULT:      -5.6      8.728     11.173
REMARK  Name = 
REMARK  4 active torsions:
REMARK  status: ('A' for Active; 'I' for Inactive)
REMARK    1  A    between atoms: C_1  and  C_2
REMARK    2  A    between atoms: C_13  and  O_14
REMARK    3  A    between atoms: C_16  and  C_17
REMARK    4  A    between atoms: C_16  and  C_18
REMARK                            x       y       z     vdW  Elec       q    Type
REMARK                         _______ _______ _______ _____ _____    ______ ____
ROOT
ATOM      1  C   UNL     1      -7.455  12.334  20.006  0.00  0.00    +0.000 C 
ATOM      2  C   UNL     1      -6.042  12.562  20.402  0.00  0.00    +0.000 A 
ATOM      3  N   UNL     1      -5.049  12.137  19.624  0.00  0.00    +0.000 NA
ATOM      4  N   UNL     1      -3.895  12.548  20.236  0.00  0.00    +0.000 N 
ATOM      5  C   UNL     1      -2.640  12.300  19.591  0.00  0.00    +0.000 A 
ATOM      6  C   UNL     1      -2.567  11.235  18.690  0.00  0.00    +0.000 A 
ATOM      7  C   UNL     1      -1.315  10.809  18.255  0.00  0.00    +0.000 A 
ATOM      8  C   UNL     1      -0.182  11.479  18.694  0.00  0.00    +0.000 A 
ATOM      9  C   UNL     1      -0.349  12.589  19.502  0.00  0.00    +0.000 A 
ATOM     10  N   UNL     1      -1.547  13.025  19.946  0.00  0.00    +0.000 NA
ATOM     11  C   UNL     1      -4.166  13.110  21.479  0.00  0.00    +0.000 A 
ATOM     12  C   UNL     1      -5.553  13.167  21.574  0.00  0.00    +0.000 A 
ATOM     13  C   UNL     1      -6.302  13.688  22.749  0.00  0.00    +0.000 C 
ATOM     14  C   UNL     1      -5.366  14.461  23.692  0.00  0.00    +0.000 C 
ATOM     15  C   UNL     1      -3.999  13.747  23.931  0.00  0.00    +0.000 C 
ATOM     16  C   UNL     1      -3.191  14.626  24.911  0.00  0.00    +0.000 C 
ATOM     17  C   UNL     1      -4.273  12.381  24.616  0.00  0.00    +0.000 C 
ATOM     18  C   UNL     1      -3.226  13.598  22.552  0.00  0.00    +0.000 C 
ATOM     19 BR   UNL     1      -1.667  12.442  22.861  0.00  0.00    +0.000 Br
ENDROOT
BRANCH  13  20
ATOM     20  O   UNL     1      -7.368  14.542  22.371  0.00  0.00    +0.000 OA
ATOM     21  H   UNL     1      -7.001  15.439  22.273  0.00  0.00    +0.000 HD
ENDBRANCH  13  20
TORSDOF 1
ENDMDL
MODEL 9
REMARK VINA RESULT:      -5.5      9.512     10.522
REMARK  Name = 
REMARK  4 active torsions:
REMARK  status: ('A' for Active; 'I' for Inactive)
REMARK    1  A    between atoms: C_1  and  C_2
REMARK    2  A    between atoms: C_13  and  O_14
REMARK    3  A    between atoms: C_16  and  C_17
REMARK    4  A    between atoms: C_16  and  C_18
REMARK                            x       y       z     vdW  Elec       q    Type
REMARK                         _______ _______ _______ _____ _____    ______ ____
ROOT
ATOM      1  C   UNL     1       7.698  11.734  24.087  0.00  0.00    +0.000 C 
ATOM      2  C   UNL     1       7.977  12.394  22.786  0.00  0.00    +0.000 A 
ATOM      3  N   UNL     1       8.948  11.939  21.996  0.00  0.00    +0.000 NA
ATOM      4  N   UNL     1       8.908  12.718  20.870  0.00  0.00    +0.000 N 
ATOM      5  C   UNL     1       9.796  12.420  19.786  0.00  0.00    +0.000 A 
ATOM      6  C   UNL     1      10.983  11.746  20.082  0.00  0.00    +0.000 A 
ATOM      7  C   UNL     1      11.975  11.678  19.107  0.00  0.00    +0.000 A 
ATOM      8  C   UNL     1      11.741  12.245  17.862  0.00  0.00    +0.000 A 
ATOM      9  C   UNL     1      10.499  12.801  17.619  0.00  0.00    +0.000 A 
ATOM     10  N   UNL     1       9.517  12.888  18.541  0.00  0.00    +0.000 NA
ATOM     11  C   UNL     1       7.997  13.760  21.021  0.00  0.00    +0.000 A 
ATOM     12  C   UNL     1       7.358  13.531  22.235  0.00  0.00    +0.000 A 
ATOM     13  C   UNL     1       6.306  14.406  22.818  0.00  0.00    +0.000 C 
ATOM     14  C   UNL     1       5.777  15.395  21.767  0.00  0.00    +0.000 C 
ATOM     15  C   UNL     1       6.904  16.048  20.907  0.00  0.00    +0.000 C 
ATOM     16  C   UNL     1       6.220  17.027  19.927  0.00  0.00    +0.000 C 
ATOM     17  C   UNL     1       7.825  16.869  21.850  0.00  0.00    +0.000 C 
ATOM     18  C   UNL     1       7.689  14.921  20.111  0.00  0.00    +0.000 C 
ATOM     19 BR   UNL     1       9.266  15.757  19.289  0.00  0.00    +0.000 Br
ENDROOT
BRANCH  13  20
ATOM     20  O   UNL     1       5.212  13.664  23.330  0.00  0.00    +0.000 OA
ATOM     21  H   UNL     1       4.693  13.349  22.568  0.00  0.00    +0.000 HD
ENDBRANCH  13  20
TORSDOF 1
ENDMDL
