MODEL 1
REMARK VINA RESULT:      -6.5      0.000      0.000
REMARK  Name = 
REMARK  6 active torsions:
REMARK  status: ('A' for Active; 'I' for Inactive)
REMARK    1  A    between atoms: C_1  and  C_2
REMARK    2  A    between atoms: C_2  and  N_3
REMARK    3  A    between atoms: N_3  and  N_4
REMARK    4  A    between atoms: N_7  and  C_8
REMARK    5  A    between atoms: N_17  and  C_18
REMARK    6  A    between atoms: C_18  and  C_19
REMARK                            x       y       z     vdW  Elec       q    Type
REMARK                         _______ _______ _______ _____ _____    ______ ____
ROOT
ATOM      1  C   UNL     1       4.129   3.816  19.952  0.00  0.00    +0.000 C 
ATOM      2  C   UNL     1       3.798   5.043  19.130  0.00  0.00    +0.000 C 
ATOM      3  C   UNL     1       2.705   5.790  19.422  0.00  0.00    +0.000 C 
ATOM      4  C   UNL     1       1.805   5.480  20.550  0.00  0.00    +0.000 C 
ATOM      5  O   UNL     1       1.486   4.350  20.898  0.00  0.00    +0.000 OA
ATOM      6  N   UNL     1       1.320   6.592  21.175  0.00  0.00    +0.000 N 
ATOM      7  C   UNL     1       1.411   7.882  20.733  0.00  0.00    +0.000 C 
ATOM      8  O   UNL     1       0.884   8.772  21.387  0.00  0.00    +0.000 OA
ATOM      9  N   UNL     1       2.058   8.079  19.528  0.00  0.00    +0.000 N 
ATOM     10  C   UNL     1       2.418   7.037  18.690  0.00  0.00    +0.000 C 
ATOM     11  O   UNL     1       2.442   7.114  17.460  0.00  0.00    +0.000 OA
ATOM     12  H   UNL     1       0.746   6.441  21.992  0.00  0.00    +0.000 HD
ENDROOT
BRANCH   2  13
ATOM     13  N   UNL     1       4.667   5.339  18.079  0.00  0.00    +0.000 N 
ATOM     14  H   UNL     1       4.266   6.010  17.415  0.00  0.00    +0.000 HD
BRANCH  13  15
ATOM     15  N   UNL     1       5.456   4.292  17.511  0.00  0.00    +0.000 NA
ATOM     16  C   UNL     1       4.948   3.917  16.165  0.00  0.00    +0.000 C 
ATOM     17  C   UNL     1       5.117   4.992  15.055  0.00  0.00    +0.000 C 
ATOM     18  N   UNL     1       6.431   5.660  14.970  0.00  0.00    +0.000 NA
ATOM     19  C   UNL     1       7.405   4.880  14.212  0.00  0.00    +0.000 C 
ATOM     20  C   UNL     1       6.931   5.975  16.325  0.00  0.00    +0.000 C 
ATOM     21  C   UNL     1       6.839   4.800  17.324  0.00  0.00    +0.000 C 
ENDBRANCH  13  15
ENDBRANCH   2  13
BRANCH   9  22
ATOM     22  C   UNL     1       2.145   9.435  19.011  0.00  0.00    +0.000 C 
BRANCH  22  23
ATOM     23  C   UNL     1       0.801  10.051  18.654  0.00  0.00    +0.000 A 
ATOM     24  C   UNL     1      -0.137   9.451  17.798  0.00  0.00    +0.000 A 
ATOM     25  C   UNL     1      -1.348  10.085  17.506  0.00  0.00    +0.000 A 
ATOM     26  C   UNL     1      -1.643  11.323  18.070  0.00  0.00    +0.000 A 
ATOM     27  C   UNL     1      -0.729  11.929  18.927  0.00  0.00    +0.000 A 
ATOM     28  C   UNL     1       0.482  11.298  19.217  0.00  0.00    +0.000 A 
ENDBRANCH  22  23
ENDBRANCH   9  22
TORSDOF 4
ENDMDL
MODEL 2
REMARK VINA RESULT:      -6.4      6.169     10.073
REMARK  Name = 
REMARK  6 active torsions:
REMARK  status: ('A' for Active; 'I' for Inactive)
REMARK    1  A    between atoms: C_1  and  C_2
REMARK    2  A    between atoms: C_2  and  N_3
REMARK    3  A    between atoms: N_3  and  N_4
REMARK    4  A    between atoms: N_7  and  C_8
REMARK    5  A    between atoms: N_17  and  C_18
REMARK    6  A    between atoms: C_18  and  C_19
REMARK                            x       y       z     vdW  Elec       q    Type
REMARK                         _______ _______ _______ _____ _____    ______ ____
ROOT
ATOM      1  C   UNL     1      -0.794  10.873  23.038  0.00  0.00    +0.000 C 
ATOM      2  C   UNL     1      -1.489  11.694  21.972  0.00  0.00    +0.000 C 
ATOM      3  C   UNL     1      -1.213  11.487  20.660  0.00  0.00    +0.000 C 
ATOM      4  C   UNL     1      -0.265  10.457  20.197  0.00  0.00    +0.000 C 
ATOM      5  O   UNL     1       0.782  10.167  20.762  0.00  0.00    +0.000 OA
ATOM      6  N   UNL     1      -0.647   9.854  19.034  0.00  0.00    +0.000 N 
ATOM      7  C   UNL     1      -1.653  10.254  18.199  0.00  0.00    +0.000 C 
ATOM      8  O   UNL     1      -1.848   9.632  17.164  0.00  0.00    +0.000 OA
ATOM      9  N   UNL     1      -2.350  11.389  18.571  0.00  0.00    +0.000 N 
ATOM     10  C   UNL     1      -1.945  12.213  19.606  0.00  0.00    +0.000 C 
ATOM     11  O   UNL     1      -2.119  13.434  19.629  0.00  0.00    +0.000 OA
ATOM     12  H   UNL     1      -0.067   9.099  18.700  0.00  0.00    +0.000 HD
ENDROOT
BRANCH   2  13
ATOM     13  N   UNL     1      -2.399  12.651  22.420  0.00  0.00    +0.000 N 
ATOM     14  H   UNL     1      -1.943  13.427  22.912  0.00  0.00    +0.000 HD
BRANCH  13  15
ATOM     15  N   UNL     1      -3.655  12.223  22.953  0.00  0.00    +0.000 NA
ATOM     16  C   UNL     1      -3.887  12.814  24.298  0.00  0.00    +0.000 C 
ATOM     17  C   UNL     1      -4.109  14.353  24.330  0.00  0.00    +0.000 C 
ATOM     18  N   UNL     1      -5.034  14.913  23.326  0.00  0.00    +0.000 NA
ATOM     19  C   UNL     1      -6.432  14.812  23.737  0.00  0.00    +0.000 C 
ATOM     20  C   UNL     1      -4.812  14.271  22.013  0.00  0.00    +0.000 C 
ATOM     21  C   UNL     1      -4.733  12.730  22.068  0.00  0.00    +0.000 C 
ENDBRANCH  13  15
ENDBRANCH   2  13
BRANCH   9  22
ATOM     22  C   UNL     1      -3.406  11.863  17.690  0.00  0.00    +0.000 C 
BRANCH  22  23
ATOM     23  C   UNL     1      -4.808  11.691  18.254  0.00  0.00    +0.000 A 
ATOM     24  C   UNL     1      -5.416  10.447  18.485  0.00  0.00    +0.000 A 
ATOM     25  C   UNL     1      -6.716  10.368  18.994  0.00  0.00    +0.000 A 
ATOM     26  C   UNL     1      -7.424  11.531  19.286  0.00  0.00    +0.000 A 
ATOM     27  C   UNL     1      -6.834  12.773  19.072  0.00  0.00    +0.000 A 
ATOM     28  C   UNL     1      -5.537  12.853  18.562  0.00  0.00    +0.000 A 
ENDBRANCH  22  23
ENDBRANCH   9  22
TORSDOF 4
ENDMDL
MODEL 3
REMARK VINA RESULT:      -6.3      6.299      9.806
REMARK  Name = 
REMARK  6 active torsions:
REMARK  status: ('A' for Active; 'I' for Inactive)
REMARK    1  A    between atoms: C_1  and  C_2
REMARK    2  A    between atoms: C_2  and  N_3
REMARK    3  A    between atoms: N_3  and  N_4
REMARK    4  A    between atoms: N_7  and  C_8
REMARK    5  A    between atoms: N_17  and  C_18
REMARK    6  A    between atoms: C_18  and  C_19
REMARK                            x       y       z     vdW  Elec       q    Type
REMARK                         _______ _______ _______ _____ _____    ______ ____
ROOT
ATOM      1  C   UNL     1      -1.064  10.945  18.977  0.00  0.00    +0.000 C 
ATOM      2  C   UNL     1      -0.566  12.216  19.630  0.00  0.00    +0.000 C 
ATOM      3  C   UNL     1       0.704  12.642  19.421  0.00  0.00    +0.000 C 
ATOM      4  C   UNL     1       1.650  11.929  18.543  0.00  0.00    +0.000 C 
ATOM      5  O   UNL     1       1.734  10.710  18.450  0.00  0.00    +0.000 OA
ATOM      6  N   UNL     1       2.470  12.763  17.840  0.00  0.00    +0.000 N 
ATOM      7  C   UNL     1       2.631  14.106  18.038  0.00  0.00    +0.000 C 
ATOM      8  O   UNL     1       3.441  14.714  17.353  0.00  0.00    +0.000 OA
ATOM      9  N   UNL     1       1.889  14.674  19.057  0.00  0.00    +0.000 N 
ATOM     10  C   UNL     1       1.177  13.923  19.976  0.00  0.00    +0.000 C 
ATOM     11  O   UNL     1       1.002  14.251  21.152  0.00  0.00    +0.000 OA
ATOM     12  H   UNL     1       3.098  12.333  17.178  0.00  0.00    +0.000 HD
ENDROOT
BRANCH   2  13
ATOM     13  N   UNL     1      -1.476  12.894  20.443  0.00  0.00    +0.000 N 
ATOM     14  H   UNL     1      -1.147  13.830  20.705  0.00  0.00    +0.000 HD
BRANCH  13  15
ATOM     15  N   UNL     1      -2.179  12.172  21.455  0.00  0.00    +0.000 NA
ATOM     16  C   UNL     1      -1.465  12.254  22.757  0.00  0.00    +0.000 C 
ATOM     17  C   UNL     1      -1.433  13.659  23.423  0.00  0.00    +0.000 C 
ATOM     18  N   UNL     1      -2.705  14.408  23.456  0.00  0.00    +0.000 NA
ATOM     19  C   UNL     1      -3.555  14.015  24.576  0.00  0.00    +0.000 C 
ATOM     20  C   UNL     1      -3.413  14.266  22.166  0.00  0.00    +0.000 C 
ATOM     21  C   UNL     1      -3.504  12.814  21.650  0.00  0.00    +0.000 C 
ENDBRANCH  13  15
ENDBRANCH   2  13
BRANCH   9  22
ATOM     22  C   UNL     1       2.059  16.095  19.318  0.00  0.00    +0.000 C 
BRANCH  22  23
ATOM     23  C   UNL     1       1.201  16.994  18.440  0.00  0.00    +0.000 A 
ATOM     24  C   UNL     1       1.700  17.762  17.376  0.00  0.00    +0.000 A 
ATOM     25  C   UNL     1       0.851  18.576  16.621  0.00  0.00    +0.000 A 
ATOM     26  C   UNL     1      -0.509  18.629  16.913  0.00  0.00    +0.000 A 
ATOM     27  C   UNL     1      -1.023  17.868  17.958  0.00  0.00    +0.000 A 
ATOM     28  C   UNL     1      -0.176  17.056  18.715  0.00  0.00    +0.000 A 
ENDBRANCH  22  23
ENDBRANCH   9  22
TORSDOF 4
ENDMDL
MODEL 4
REMARK VINA RESULT:      -6.3      5.241      9.126
REMARK  Name = 
REMARK  6 active torsions:
REMARK  status: ('A' for Active; 'I' for Inactive)
REMARK    1  A    between atoms: C_1  and  C_2
REMARK    2  A    between atoms: C_2  and  N_3
REMARK    3  A    between atoms: N_3  and  N_4
REMARK    4  A    between atoms: N_7  and  C_8
REMARK    5  A    between atoms: N_17  and  C_18
REMARK    6  A    between atoms: C_18  and  C_19
REMARK                            x       y       z     vdW  Elec       q    Type
REMARK                         _______ _______ _______ _____ _____    ______ ____
ROOT
ATOM      1  C   UNL     1      -0.610   9.914  23.638  0.00  0.00    +0.000 C 
ATOM      2  C   UNL     1      -0.690  10.983  22.569  0.00  0.00    +0.000 C 
ATOM      3  C   UNL     1       0.019  10.858  21.420  0.00  0.00    +0.000 C 
ATOM      4  C   UNL     1       0.869   9.687  21.131  0.00  0.00    +0.000 C 
ATOM      5  O   UNL     1       1.554   9.100  21.959  0.00  0.00    +0.000 OA
ATOM      6  N   UNL     1       0.851   9.318  19.817  0.00  0.00    +0.000 N 
ATOM      7  C   UNL     1       0.326  10.030  18.776  0.00  0.00    +0.000 C 
ATOM      8  O   UNL     1       0.427   9.585  17.641  0.00  0.00    +0.000 OA
ATOM      9  N   UNL     1      -0.242  11.252  19.087  0.00  0.00    +0.000 N 
ATOM     10  C   UNL     1      -0.116  11.843  20.332  0.00  0.00    +0.000 C 
ATOM     11  O   UNL     1      -0.061  13.060  20.519  0.00  0.00    +0.000 OA
ATOM     12  H   UNL     1       1.368   8.486  19.571  0.00  0.00    +0.000 HD
ENDROOT
BRANCH   2  13
ATOM     13  N   UNL     1      -1.512  12.076  22.844  0.00  0.00    +0.000 N 
ATOM     14  H   UNL     1      -1.137  12.673  23.590  0.00  0.00    +0.000 HD
BRANCH  13  15
ATOM     15  N   UNL     1      -2.931  11.900  22.837  0.00  0.00    +0.000 NA
ATOM     16  C   UNL     1      -3.525  12.347  24.125  0.00  0.00    +0.000 C 
ATOM     17  C   UNL     1      -3.461  13.875  24.404  0.00  0.00    +0.000 C 
ATOM     18  N   UNL     1      -3.839  14.772  23.293  0.00  0.00    +0.000 NA
ATOM     19  C   UNL     1      -5.284  14.959  23.196  0.00  0.00    +0.000 C 
ATOM     20  C   UNL     1      -3.274  14.273  22.021  0.00  0.00    +0.000 C 
ATOM     21  C   UNL     1      -3.502  12.766  21.775  0.00  0.00    +0.000 C 
ENDBRANCH  13  15
ENDBRANCH   2  13
BRANCH   9  22
ATOM     22  C   UNL     1      -0.782  12.053  18.000  0.00  0.00    +0.000 C 
BRANCH  22  23
ATOM     23  C   UNL     1      -2.221  11.718  17.638  0.00  0.00    +0.000 A 
ATOM     24  C   UNL     1      -3.309  11.877  18.511  0.00  0.00    +0.000 A 
ATOM     25  C   UNL     1      -4.604  11.536  18.111  0.00  0.00    +0.000 A 
ATOM     26  C   UNL     1      -4.833  11.038  16.831  0.00  0.00    +0.000 A 
ATOM     27  C   UNL     1      -3.768  10.882  15.949  0.00  0.00    +0.000 A 
ATOM     28  C   UNL     1      -2.474  11.220  16.348  0.00  0.00    +0.000 A 
ENDBRANCH  22  23
ENDBRANCH   9  22
TORSDOF 4
ENDMDL
MODEL 5
REMARK VINA RESULT:      -6.2      5.820      8.991
REMARK  Name = 
REMARK  6 active torsions:
REMARK  status: ('A' for Active; 'I' for Inactive)
REMARK    1  A    between atoms: C_1  and  C_2
REMARK    2  A    between atoms: C_2  and  N_3
REMARK    3  A    between atoms: N_3  and  N_4
REMARK    4  A    between atoms: N_7  and  C_8
REMARK    5  A    between atoms: N_17  and  C_18
REMARK    6  A    between atoms: C_18  and  C_19
REMARK                            x       y       z     vdW  Elec       q    Type
REMARK                         _______ _______ _______ _____ _____    ______ ____
ROOT
ATOM      1  C   UNL     1       0.398  10.002  21.039  0.00  0.00    +0.000 C 
ATOM      2  C   UNL     1      -0.641  10.966  20.508  0.00  0.00    +0.000 C 
ATOM      3  C   UNL     1      -0.937  10.994  19.185  0.00  0.00    +0.000 C 
ATOM      4  C   UNL     1      -0.304  10.088  18.207  0.00  0.00    +0.000 C 
ATOM      5  O   UNL     1       0.870   9.743  18.233  0.00  0.00    +0.000 OA
ATOM      6  N   UNL     1      -1.154   9.677  17.222  0.00  0.00    +0.000 N 
ATOM      7  C   UNL     1      -2.398  10.178  16.956  0.00  0.00    +0.000 C 
ATOM      8  O   UNL     1      -3.026   9.733  16.004  0.00  0.00    +0.000 OA
ATOM      9  N   UNL     1      -2.835  11.210  17.765  0.00  0.00    +0.000 N 
ATOM     10  C   UNL     1      -2.008  11.862  18.663  0.00  0.00    +0.000 C 
ATOM     11  O   UNL     1      -2.109  13.054  18.959  0.00  0.00    +0.000 OA
ATOM     12  H   UNL     1      -0.793   9.009  16.558  0.00  0.00    +0.000 HD
ENDROOT
BRANCH   2  13
ATOM     13  N   UNL     1      -1.248  11.803  21.444  0.00  0.00    +0.000 N 
ATOM     14  H   UNL     1      -2.038  12.326  21.050  0.00  0.00    +0.000 HD
BRANCH  13  15
ATOM     15  N   UNL     1      -0.431  12.513  22.378  0.00  0.00    +0.000 NA
ATOM     16  C   UNL     1       0.359  13.570  21.694  0.00  0.00    +0.000 C 
ATOM     17  C   UNL     1      -0.459  14.759  21.118  0.00  0.00    +0.000 C 
ATOM     18  N   UNL     1      -1.494  15.342  21.994  0.00  0.00    +0.000 NA
ATOM     19  C   UNL     1      -0.947  16.314  22.935  0.00  0.00    +0.000 C 
ATOM     20  C   UNL     1      -2.229  14.268  22.697  0.00  0.00    +0.000 C 
ATOM     21  C   UNL     1      -1.323  13.200  23.347  0.00  0.00    +0.000 C 
ENDBRANCH  13  15
ENDBRANCH   2  13
BRANCH   9  22
ATOM     22  C   UNL     1      -4.140  11.790  17.490  0.00  0.00    +0.000 C 
BRANCH  22  23
ATOM     23  C   UNL     1      -5.221  11.384  18.480  0.00  0.00    +0.000 A 
ATOM     24  C   UNL     1      -5.940  10.179  18.409  0.00  0.00    +0.000 A 
ATOM     25  C   UNL     1      -6.930   9.880  19.350  0.00  0.00    +0.000 A 
ATOM     26  C   UNL     1      -7.211  10.776  20.378  0.00  0.00    +0.000 A 
ATOM     27  C   UNL     1      -6.503  11.970  20.469  0.00  0.00    +0.000 A 
ATOM     28  C   UNL     1      -5.516  12.271  19.529  0.00  0.00    +0.000 A 
ENDBRANCH  22  23
ENDBRANCH   9  22
TORSDOF 4
ENDMDL
MODEL 6
REMARK VINA RESULT:      -6.2      0.763      1.093
REMARK  Name = 
REMARK  6 active torsions:
REMARK  status: ('A' for Active; 'I' for Inactive)
REMARK    1  A    between atoms: C_1  and  C_2
REMARK    2  A    between atoms: C_2  and  N_3
REMARK    3  A    between atoms: N_3  and  N_4
REMARK    4  A    between atoms: N_7  and  C_8
REMARK    5  A    between atoms: N_17  and  C_18
REMARK    6  A    between atoms: C_18  and  C_19
REMARK                            x       y       z     vdW  Elec       q    Type
REMARK                         _______ _______ _______ _____ _____    ______ ____
ROOT
ATOM      1  C   UNL     1       4.248   4.306  19.873  0.00  0.00    +0.000 C 
ATOM      2  C   UNL     1       3.805   5.567  19.163  0.00  0.00    +0.000 C 
ATOM      3  C   UNL     1       2.647   6.179  19.512  0.00  0.00    +0.000 C 
ATOM      4  C   UNL     1       1.780   5.686  20.598  0.00  0.00    +0.000 C 
ATOM      5  O   UNL     1       1.567   4.504  20.840  0.00  0.00    +0.000 OA
ATOM      6  N   UNL     1       1.192   6.686  21.317  0.00  0.00    +0.000 N 
ATOM      7  C   UNL     1       1.163   8.014  20.995  0.00  0.00    +0.000 C 
ATOM      8  O   UNL     1       0.554   8.787  21.722  0.00  0.00    +0.000 OA
ATOM      9  N   UNL     1       1.789   8.379  19.818  0.00  0.00    +0.000 N 
ATOM     10  C   UNL     1       2.245   7.456  18.893  0.00  0.00    +0.000 C 
ATOM     11  O   UNL     1       2.263   7.646  17.675  0.00  0.00    +0.000 OA
ATOM     12  H   UNL     1       0.634   6.408  22.112  0.00  0.00    +0.000 HD
ENDROOT
BRANCH   2  13
ATOM     13  N   UNL     1       4.643   6.037  18.151  0.00  0.00    +0.000 N 
ATOM     14  H   UNL     1       4.946   7.004  18.309  0.00  0.00    +0.000 HD
BRANCH  13  15
ATOM     15  N   UNL     1       4.365   5.682  16.795  0.00  0.00    +0.000 NA
ATOM     16  C   UNL     1       5.083   6.583  15.855  0.00  0.00    +0.000 C 
ATOM     17  C   UNL     1       6.632   6.447  15.839  0.00  0.00    +0.000 C 
ATOM     18  N   UNL     1       7.180   5.077  15.800  0.00  0.00    +0.000 NA
ATOM     19  C   UNL     1       7.227   4.533  14.446  0.00  0.00    +0.000 C 
ATOM     20  C   UNL     1       6.414   4.196  16.708  0.00  0.00    +0.000 C 
ATOM     21  C   UNL     1       4.882   4.310  16.557  0.00  0.00    +0.000 C 
ENDBRANCH  13  15
ENDBRANCH   2  13
BRANCH   9  22
ATOM     22  C   UNL     1       1.750   9.779  19.427  0.00  0.00    +0.000 C 
BRANCH  22  23
ATOM     23  C   UNL     1       0.377  10.260  18.980  0.00  0.00    +0.000 A 
ATOM     24  C   UNL     1      -0.353   9.686  17.927  0.00  0.00    +0.000 A 
ATOM     25  C   UNL     1      -1.605  10.192  17.566  0.00  0.00    +0.000 A 
ATOM     26  C   UNL     1      -2.148  11.273  18.255  0.00  0.00    +0.000 A 
ATOM     27  C   UNL     1      -1.443  11.849  19.306  0.00  0.00    +0.000 A 
ATOM     28  C   UNL     1      -0.191  11.346  19.667  0.00  0.00    +0.000 A 
ENDBRANCH  22  23
ENDBRANCH   9  22
TORSDOF 4
ENDMDL
MODEL 7
REMARK VINA RESULT:      -6.2      7.132      9.499
REMARK  Name = 
REMARK  6 active torsions:
REMARK  status: ('A' for Active; 'I' for Inactive)
REMARK    1  A    between atoms: C_1  and  C_2
REMARK    2  A    between atoms: C_2  and  N_3
REMARK    3  A    between atoms: N_3  and  N_4
REMARK    4  A    between atoms: N_7  and  C_8
REMARK    5  A    between atoms: N_17  and  C_18
REMARK    6  A    between atoms: C_18  and  C_19
REMARK                            x       y       z     vdW  Elec       q    Type
REMARK                         _______ _______ _______ _____ _____    ______ ____
ROOT
ATOM      1  C   UNL     1      -6.552  12.343  19.763  0.00  0.00    +0.000 C 
ATOM      2  C   UNL     1      -5.088  12.686  19.942  0.00  0.00    +0.000 C 
ATOM      3  C   UNL     1      -4.666  13.330  21.059  0.00  0.00    +0.000 C 
ATOM      4  C   UNL     1      -5.578  13.702  22.157  0.00  0.00    +0.000 C 
ATOM      5  O   UNL     1      -6.725  14.104  22.006  0.00  0.00    +0.000 OA
ATOM      6  N   UNL     1      -5.011  13.585  23.393  0.00  0.00    +0.000 N 
ATOM      7  C   UNL     1      -3.688  13.382  23.668  0.00  0.00    +0.000 C 
ATOM      8  O   UNL     1      -3.324  13.344  24.835  0.00  0.00    +0.000 OA
ATOM      9  N   UNL     1      -2.838  13.291  22.582  0.00  0.00    +0.000 N 
ATOM     10  C   UNL     1      -3.234  13.591  21.290  0.00  0.00    +0.000 C 
ATOM     11  O   UNL     1      -2.495  14.080  20.434  0.00  0.00    +0.000 OA
ATOM     12  H   UNL     1      -5.607  13.770  24.186  0.00  0.00    +0.000 HD
ENDROOT
BRANCH   2  13
ATOM     13  N   UNL     1      -4.232  12.311  18.907  0.00  0.00    +0.000 N 
ATOM     14  H   UNL     1      -4.214  12.996  18.143  0.00  0.00    +0.000 HD
BRANCH  13  15
ATOM     15  N   UNL     1      -4.170  10.937  18.516  0.00  0.00    +0.000 NA
ATOM     16  C   UNL     1      -4.988  10.697  17.298  0.00  0.00    +0.000 C 
ATOM     17  C   UNL     1      -4.464  11.356  15.991  0.00  0.00    +0.000 C 
ATOM     18  N   UNL     1      -3.022  11.219  15.708  0.00  0.00    +0.000 NA
ATOM     19  C   UNL     1      -2.696   9.948  15.070  0.00  0.00    +0.000 C 
ATOM     20  C   UNL     1      -2.239  11.416  16.948  0.00  0.00    +0.000 C 
ATOM     21  C   UNL     1      -2.764  10.618  18.161  0.00  0.00    +0.000 C 
ENDBRANCH  13  15
ENDBRANCH   2  13
BRANCH   9  22
ATOM     22  C   UNL     1      -1.418  13.108  22.837  0.00  0.00    +0.000 C 
BRANCH  22  23
ATOM     23  C   UNL     1      -0.871  11.767  22.372  0.00  0.00    +0.000 A 
ATOM     24  C   UNL     1      -0.219  11.566  21.144  0.00  0.00    +0.000 A 
ATOM     25  C   UNL     1       0.246  10.300  20.779  0.00  0.00    +0.000 A 
ATOM     26  C   UNL     1       0.073   9.217  21.637  0.00  0.00    +0.000 A 
ATOM     27  C   UNL     1      -0.563   9.398  22.862  0.00  0.00    +0.000 A 
ATOM     28  C   UNL     1      -1.030  10.662  23.226  0.00  0.00    +0.000 A 
ENDBRANCH  22  23
ENDBRANCH   9  22
TORSDOF 4
ENDMDL
MODEL 8
REMARK VINA RESULT:      -6.2      5.534      9.300
REMARK  Name = 
REMARK  6 active torsions:
REMARK  status: ('A' for Active; 'I' for Inactive)
REMARK    1  A    between atoms: C_1  and  C_2
REMARK    2  A    between atoms: C_2  and  N_3
REMARK    3  A    between atoms: N_3  and  N_4
REMARK    4  A    between atoms: N_7  and  C_8
REMARK    5  A    between atoms: N_17  and  C_18
REMARK    6  A    between atoms: C_18  and  C_19
REMARK                            x       y       z     vdW  Elec       q    Type
REMARK                         _______ _______ _______ _____ _____    ______ ____
ROOT
ATOM      1  C   UNL     1       2.651  14.725  20.575  0.00  0.00    +0.000 C 
ATOM      2  C   UNL     1       1.284  14.152  20.270  0.00  0.00    +0.000 C 
ATOM      3  C   UNL     1       1.133  13.219  19.297  0.00  0.00    +0.000 C 
ATOM      4  C   UNL     1       2.267  12.694  18.513  0.00  0.00    +0.000 C 
ATOM      5  O   UNL     1       3.219  13.361  18.129  0.00  0.00    +0.000 OA
ATOM      6  N   UNL     1       2.150  11.367  18.216  0.00  0.00    +0.000 N 
ATOM      7  C   UNL     1       1.038  10.589  18.379  0.00  0.00    +0.000 C 
ATOM      8  O   UNL     1       1.075   9.419  18.023  0.00  0.00    +0.000 OA
ATOM      9  N   UNL     1      -0.083  11.212  18.894  0.00  0.00    +0.000 N 
ATOM     10  C   UNL     1      -0.174  12.585  19.048  0.00  0.00    +0.000 C 
ATOM     11  O   UNL     1      -1.220  13.227  18.933  0.00  0.00    +0.000 OA
ATOM     12  H   UNL     1       2.925  10.938  17.732  0.00  0.00    +0.000 HD
ENDROOT
BRANCH   2  13
ATOM     13  N   UNL     1       0.222  14.640  21.031  0.00  0.00    +0.000 N 
ATOM     14  H   UNL     1      -0.070  15.580  20.742  0.00  0.00    +0.000 HD
BRANCH  13  15
ATOM     15  N   UNL     1       0.196  14.382  22.437  0.00  0.00    +0.000 NA
ATOM     16  C   UNL     1      -0.301  15.568  23.183  0.00  0.00    +0.000 C 
ATOM     17  C   UNL     1      -1.798  15.927  22.963  0.00  0.00    +0.000 C 
ATOM     18  N   UNL     1      -2.764  14.812  23.016  0.00  0.00    +0.000 NA
ATOM     19  C   UNL     1      -3.157  14.477  24.381  0.00  0.00    +0.000 C 
ATOM     20  C   UNL     1      -2.221  13.633  22.308  0.00  0.00    +0.000 C 
ATOM     21  C   UNL     1      -0.767  13.280  22.690  0.00  0.00    +0.000 C 
ENDBRANCH  13  15
ENDBRANCH   2  13
BRANCH   9  22
ATOM     22  C   UNL     1      -1.294  10.423  19.051  0.00  0.00    +0.000 C 
BRANCH  22  23
ATOM     23  C   UNL     1      -2.232  10.480  17.854  0.00  0.00    +0.000 A 
ATOM     24  C   UNL     1      -1.953   9.896  16.608  0.00  0.00    +0.000 A 
ATOM     25  C   UNL     1      -2.859  10.001  15.549  0.00  0.00    +0.000 A 
ATOM     26  C   UNL     1      -4.060  10.686  15.721  0.00  0.00    +0.000 A 
ATOM     27  C   UNL     1      -4.357  11.264  16.951  0.00  0.00    +0.000 A 
ATOM     28  C   UNL     1      -3.451  11.161  18.009  0.00  0.00    +0.000 A 
ENDBRANCH  22  23
ENDBRANCH   9  22
TORSDOF 4
ENDMDL
MODEL 9
REMARK VINA RESULT:      -6.2      6.005      9.648
REMARK  Name = 
REMARK  6 active torsions:
REMARK  status: ('A' for Active; 'I' for Inactive)
REMARK    1  A    between atoms: C_1  and  C_2
REMARK    2  A    between atoms: C_2  and  N_3
REMARK    3  A    between atoms: N_3  and  N_4
REMARK    4  A    between atoms: N_7  and  C_8
REMARK    5  A    between atoms: N_17  and  C_18
REMARK    6  A    between atoms: C_18  and  C_19
REMARK                            x       y       z     vdW  Elec       q    Type
REMARK                         _______ _______ _______ _____ _____    ______ ____
ROOT
ATOM      1  C   UNL     1      -0.963  10.464  19.118  0.00  0.00    +0.000 C 
ATOM      2  C   UNL     1      -0.446  11.704  19.815  0.00  0.00    +0.000 C 
ATOM      3  C   UNL     1       0.802  12.167  19.554  0.00  0.00    +0.000 C 
ATOM      4  C   UNL     1       1.702  11.527  18.576  0.00  0.00    +0.000 C 
ATOM      5  O   UNL     1       1.800  10.318  18.405  0.00  0.00    +0.000 OA
ATOM      6  N   UNL     1       2.463  12.418  17.877  0.00  0.00    +0.000 N 
ATOM      7  C   UNL     1       2.613  13.749  18.145  0.00  0.00    +0.000 C 
ATOM      8  O   UNL     1       3.369  14.413  17.449  0.00  0.00    +0.000 OA
ATOM      9  N   UNL     1       1.928  14.241  19.241  0.00  0.00    +0.000 N 
ATOM     10  C   UNL     1       1.289  13.422  20.155  0.00  0.00    +0.000 C 
ATOM     11  O   UNL     1       1.182  13.675  21.357  0.00  0.00    +0.000 OA
ATOM     12  H   UNL     1       3.055  12.041  17.151  0.00  0.00    +0.000 HD
ENDROOT
BRANCH   2  13
ATOM     13  N   UNL     1      -1.313  12.314  20.722  0.00  0.00    +0.000 N 
ATOM     14  H   UNL     1      -1.589  11.686  21.485  0.00  0.00    +0.000 HD
BRANCH  13  15
ATOM     15  N   UNL     1      -2.330  13.190  20.232  0.00  0.00    +0.000 NA
ATOM     16  C   UNL     1      -3.682  12.673  20.574  0.00  0.00    +0.000 C 
ATOM     17  C   UNL     1      -4.046  12.682  22.086  0.00  0.00    +0.000 C 
ATOM     18  N   UNL     1      -3.731  13.911  22.840  0.00  0.00    +0.000 NA
ATOM     19  C   UNL     1      -4.762  14.934  22.696  0.00  0.00    +0.000 C 
ATOM     20  C   UNL     1      -2.403  14.427  22.442  0.00  0.00    +0.000 C 
ATOM     21  C   UNL     1      -2.184  14.501  20.915  0.00  0.00    +0.000 C 
ENDBRANCH  13  15
ENDBRANCH   2  13
BRANCH   9  22
ATOM     22  C   UNL     1       2.091  15.646  19.577  0.00  0.00    +0.000 C 
BRANCH  22  23
ATOM     23  C   UNL     1       1.296  16.593  18.690  0.00  0.00    +0.000 A 
ATOM     24  C   UNL     1       1.871  17.433  17.722  0.00  0.00    +0.000 A 
ATOM     25  C   UNL     1       1.075  18.287  16.952  0.00  0.00    +0.000 A 
ATOM     26  C   UNL     1      -0.305  18.307  17.132  0.00  0.00    +0.000 A 
ATOM     27  C   UNL     1      -0.893  17.475  18.079  0.00  0.00    +0.000 A 
ATOM     28  C   UNL     1      -0.099  16.624  18.851  0.00  0.00    +0.000 A 
ENDBRANCH  22  23
ENDBRANCH   9  22
TORSDOF 4
ENDMDL
