MODEL 1
REMARK VINA RESULT:      -8.0      0.000      0.000
REMARK  Name = 
REMARK  4 active torsions:
REMARK  status: ('A' for Active; 'I' for Inactive)
REMARK    1  A    between atoms: C_1  and  N_2
REMARK    2  A    between atoms: N_6  and  C_7
REMARK    3  A    between atoms: C_7  and  C_8
REMARK    4  A    between atoms: C_11  and  C_12
REMARK                            x       y       z     vdW  Elec       q    Type
REMARK                         _______ _______ _______ _____ _____    ______ ____
ROOT
ATOM      1  C   UNL     1       4.803   4.871  18.636  0.00  0.00    +0.000 A 
ATOM      2  C   UNL     1       3.934   4.103  19.381  0.00  0.00    +0.000 A 
ATOM      3  C   UNL     1       2.833   4.935  19.697  0.00  0.00    +0.000 A 
ATOM      4  C   UNL     1       3.095   6.173  19.145  0.00  0.00    +0.000 A 
ATOM      5  O   UNL     1       4.299   6.136  18.489  0.00  0.00    +0.000 OA
ENDROOT
BRANCH   4   6
ATOM      6  C   UNL     1       2.373   7.445  19.167  0.00  0.00    +0.000 A 
ATOM      7  C   UNL     1       1.724   7.901  20.323  0.00  0.00    +0.000 A 
ATOM      8  C   UNL     1       0.932   9.055  20.290  0.00  0.00    +0.000 A 
ATOM      9  C   UNL     1       0.796   9.774  19.104  0.00  0.00    +0.000 A 
ATOM     10 CL   UNL     1      -0.221  11.161  19.050  0.00  0.00    +0.000 Cl
ATOM     11  C   UNL     1       1.466   9.362  17.956  0.00  0.00    +0.000 A 
ATOM     12  C   UNL     1       2.251   8.205  17.990  0.00  0.00    +0.000 A 
ENDBRANCH   4   6
BRANCH   1  13
ATOM     13  C   UNL     1       6.110   4.558  17.977  0.00  0.00    +0.000 C 
BRANCH  13  19
ATOM     14  C   UNL     1       7.043   4.225  12.175  0.00  0.00    +0.000 C 
ATOM     15  N   UNL     1       6.964   4.465  13.590  0.00  0.00    +0.000 N 
ATOM     16  N   UNL     1       7.651   5.443  14.193  0.00  0.00    +0.000 NA
ATOM     17  N   UNL     1       7.334   5.328  15.479  0.00  0.00    +0.000 NA
ATOM     18  C   UNL     1       6.456   4.277  15.570  0.00  0.00    +0.000 A 
ATOM     19  N   UNL     1       5.936   3.855  16.727  0.00  0.00    +0.000 N 
ATOM     20  N   UNL     1       6.195   3.711  14.390  0.00  0.00    +0.000 NA
ATOM     21  H   UNL     1       5.195   3.168  16.692  0.00  0.00    +0.000 HD
ENDBRANCH  13  19
ENDBRANCH   1  13
TORSDOF 3
ENDMDL
MODEL 2
REMARK VINA RESULT:      -7.8      0.261      1.110
REMARK  Name = 
REMARK  4 active torsions:
REMARK  status: ('A' for Active; 'I' for Inactive)
REMARK    1  A    between atoms: C_1  and  N_2
REMARK    2  A    between atoms: N_6  and  C_7
REMARK    3  A    between atoms: C_7  and  C_8
REMARK    4  A    between atoms: C_11  and  C_12
REMARK                            x       y       z     vdW  Elec       q    Type
REMARK                         _______ _______ _______ _____ _____    ______ ____
ROOT
ATOM      1  C   UNL     1       4.705   4.991  18.783  0.00  0.00    +0.000 A 
ATOM      2  C   UNL     1       3.874   4.217  19.565  0.00  0.00    +0.000 A 
ATOM      3  C   UNL     1       2.748   5.018  19.870  0.00  0.00    +0.000 A 
ATOM      4  C   UNL     1       2.957   6.247  19.275  0.00  0.00    +0.000 A 
ATOM      5  O   UNL     1       4.153   6.233  18.604  0.00  0.00    +0.000 OA
ENDROOT
BRANCH   4   6
ATOM      6  C   UNL     1       2.189   7.492  19.268  0.00  0.00    +0.000 A 
ATOM      7  C   UNL     1       2.100   8.293  18.122  0.00  0.00    +0.000 A 
ATOM      8  C   UNL     1       1.468   9.543  18.171  0.00  0.00    +0.000 A 
ATOM      9  C   UNL     1       0.905   9.992  19.363  0.00  0.00    +0.000 A 
ATOM     10 CL   UNL     1       0.177  11.550  19.437  0.00  0.00    +0.000 Cl
ATOM     11  C   UNL     1       0.944   9.193  20.501  0.00  0.00    +0.000 A 
ATOM     12  C   UNL     1       1.582   7.949  20.451  0.00  0.00    +0.000 A 
ENDBRANCH   4   6
BRANCH   1  13
ATOM     13  C   UNL     1       6.013   4.706  18.116  0.00  0.00    +0.000 C 
BRANCH  13  19
ATOM     14  C   UNL     1       6.984   4.124  12.340  0.00  0.00    +0.000 C 
ATOM     15  N   UNL     1       6.895   4.425  13.742  0.00  0.00    +0.000 N 
ATOM     16  N   UNL     1       7.574   5.431  14.306  0.00  0.00    +0.000 NA
ATOM     17  N   UNL     1       7.249   5.371  15.594  0.00  0.00    +0.000 NA
ATOM     18  C   UNL     1       6.376   4.321  15.726  0.00  0.00    +0.000 A 
ATOM     19  N   UNL     1       5.850   3.948  16.897  0.00  0.00    +0.000 N 
ATOM     20  N   UNL     1       6.124   3.703  14.570  0.00  0.00    +0.000 NA
ATOM     21  H   UNL     1       5.113   3.257  16.887  0.00  0.00    +0.000 HD
ENDBRANCH  13  19
ENDBRANCH   1  13
TORSDOF 3
ENDMDL
MODEL 3
REMARK VINA RESULT:      -7.6      1.081      1.320
REMARK  Name = 
REMARK  4 active torsions:
REMARK  status: ('A' for Active; 'I' for Inactive)
REMARK    1  A    between atoms: C_1  and  N_2
REMARK    2  A    between atoms: N_6  and  C_7
REMARK    3  A    between atoms: C_7  and  C_8
REMARK    4  A    between atoms: C_11  and  C_12
REMARK                            x       y       z     vdW  Elec       q    Type
REMARK                         _______ _______ _______ _____ _____    ______ ____
ROOT
ATOM      1  C   UNL     1       3.707   4.436  19.642  0.00  0.00    +0.000 A 
ATOM      2  C   UNL     1       2.695   4.075  20.505  0.00  0.00    +0.000 A 
ATOM      3  C   UNL     1       1.846   5.201  20.625  0.00  0.00    +0.000 A 
ATOM      4  C   UNL     1       2.394   6.200  19.844  0.00  0.00    +0.000 A 
ATOM      5  O   UNL     1       3.532   5.734  19.236  0.00  0.00    +0.000 OA
ENDROOT
BRANCH   4   6
ATOM      6  C   UNL     1       2.014   7.591  19.598  0.00  0.00    +0.000 A 
ATOM      7  C   UNL     1       1.357   8.356  20.571  0.00  0.00    +0.000 A 
ATOM      8  C   UNL     1       0.888   9.642  20.273  0.00  0.00    +0.000 A 
ATOM      9  C   UNL     1       1.089  10.180  19.003  0.00  0.00    +0.000 A 
ATOM     10 CL   UNL     1       0.465  11.737  18.621  0.00  0.00    +0.000 Cl
ATOM     11  C   UNL     1       1.777   9.454  18.037  0.00  0.00    +0.000 A 
ATOM     12  C   UNL     1       2.238   8.167  18.335  0.00  0.00    +0.000 A 
ENDBRANCH   4   6
BRANCH   1  13
ATOM     13  C   UNL     1       4.874   3.682  19.087  0.00  0.00    +0.000 C 
BRANCH  13  19
ATOM     14  C   UNL     1       7.136   4.792  13.768  0.00  0.00    +0.000 C 
ATOM     15  N   UNL     1       6.774   4.593  15.145  0.00  0.00    +0.000 N 
ATOM     16  N   UNL     1       7.575   4.946  16.158  0.00  0.00    +0.000 NA
ATOM     17  N   UNL     1       6.908   4.587  17.250  0.00  0.00    +0.000 NA
ATOM     18  C   UNL     1       5.725   4.039  16.821  0.00  0.00    +0.000 A 
ATOM     19  N   UNL     1       4.802   3.544  17.651  0.00  0.00    +0.000 N 
ATOM     20  N   UNL     1       5.604   4.033  15.491  0.00  0.00    +0.000 NA
ATOM     21  H   UNL     1       3.905   3.286  17.264  0.00  0.00    +0.000 HD
ENDBRANCH  13  19
ENDBRANCH   1  13
TORSDOF 3
ENDMDL
MODEL 4
REMARK VINA RESULT:      -7.4      0.859      1.173
REMARK  Name = 
REMARK  4 active torsions:
REMARK  status: ('A' for Active; 'I' for Inactive)
REMARK    1  A    between atoms: C_1  and  N_2
REMARK    2  A    between atoms: N_6  and  C_7
REMARK    3  A    between atoms: C_7  and  C_8
REMARK    4  A    between atoms: C_11  and  C_12
REMARK                            x       y       z     vdW  Elec       q    Type
REMARK                         _______ _______ _______ _____ _____    ______ ____
ROOT
ATOM      1  C   UNL     1       5.074   4.751  17.994  0.00  0.00    +0.000 A 
ATOM      2  C   UNL     1       3.985   3.924  17.813  0.00  0.00    +0.000 A 
ATOM      3  C   UNL     1       2.835   4.719  18.034  0.00  0.00    +0.000 A 
ATOM      4  C   UNL     1       3.280   5.986  18.358  0.00  0.00    +0.000 A 
ATOM      5  O   UNL     1       4.651   6.011  18.330  0.00  0.00    +0.000 OA
ENDROOT
BRANCH   4   6
ATOM      6  C   UNL     1       2.586   7.216  18.737  0.00  0.00    +0.000 A 
ATOM      7  C   UNL     1       2.090   7.410  20.033  0.00  0.00    +0.000 A 
ATOM      8  C   UNL     1       1.318   8.538  20.341  0.00  0.00    +0.000 A 
ATOM      9  C   UNL     1       1.050   9.489  19.359  0.00  0.00    +0.000 A 
ATOM     10 CL   UNL     1       0.056  10.846  19.724  0.00  0.00    +0.000 Cl
ATOM     11  C   UNL     1       1.570   9.337  18.078  0.00  0.00    +0.000 A 
ATOM     12  C   UNL     1       2.334   8.207  17.771  0.00  0.00    +0.000 A 
ENDBRANCH   4   6
BRANCH   1  13
ATOM     13  C   UNL     1       6.546   4.520  17.863  0.00  0.00    +0.000 C 
BRANCH  13  19
ATOM     14  C   UNL     1       7.505   4.963  12.073  0.00  0.00    +0.000 C 
ATOM     15  N   UNL     1       7.128   4.699  13.435  0.00  0.00    +0.000 N 
ATOM     16  N   UNL     1       6.275   3.723  13.769  0.00  0.00    +0.000 NA
ATOM     17  N   UNL     1       6.170   3.811  15.091  0.00  0.00    +0.000 NA
ATOM     18  C   UNL     1       6.984   4.846  15.477  0.00  0.00    +0.000 A 
ATOM     19  N   UNL     1       7.114   5.241  16.747  0.00  0.00    +0.000 N 
ATOM     20  N   UNL     1       7.612   5.427  14.453  0.00  0.00    +0.000 NA
ATOM     21  H   UNL     1       7.835   5.916  16.963  0.00  0.00    +0.000 HD
ENDBRANCH  13  19
ENDBRANCH   1  13
TORSDOF 3
ENDMDL
MODEL 5
REMARK VINA RESULT:      -7.4      1.152      1.759
REMARK  Name = 
REMARK  4 active torsions:
REMARK  status: ('A' for Active; 'I' for Inactive)
REMARK    1  A    between atoms: C_1  and  N_2
REMARK    2  A    between atoms: N_6  and  C_7
REMARK    3  A    between atoms: C_7  and  C_8
REMARK    4  A    between atoms: C_11  and  C_12
REMARK                            x       y       z     vdW  Elec       q    Type
REMARK                         _______ _______ _______ _____ _____    ______ ____
ROOT
ATOM      1  C   UNL     1       3.667   4.432  19.680  0.00  0.00    +0.000 A 
ATOM      2  C   UNL     1       2.702   4.148  20.621  0.00  0.00    +0.000 A 
ATOM      3  C   UNL     1       1.850   5.276  20.678  0.00  0.00    +0.000 A 
ATOM      4  C   UNL     1       2.350   6.201  19.782  0.00  0.00    +0.000 A 
ATOM      5  O   UNL     1       3.461   5.685  19.165  0.00  0.00    +0.000 OA
ENDROOT
BRANCH   4   6
ATOM      6  C   UNL     1       1.946   7.561  19.428  0.00  0.00    +0.000 A 
ATOM      7  C   UNL     1       2.290   8.132  18.195  0.00  0.00    +0.000 A 
ATOM      8  C   UNL     1       2.005   9.477  17.926  0.00  0.00    +0.000 A 
ATOM      9  C   UNL     1       1.358  10.257  18.881  0.00  0.00    +0.000 A 
ATOM     10 CL   UNL     1       1.057  11.923  18.572  0.00  0.00    +0.000 Cl
ATOM     11  C   UNL     1       0.969   9.698  20.094  0.00  0.00    +0.000 A 
ATOM     12  C   UNL     1       1.261   8.357  20.363  0.00  0.00    +0.000 A 
ENDBRANCH   4   6
BRANCH   1  13
ATOM     13  C   UNL     1       4.813   3.636  19.141  0.00  0.00    +0.000 C 
BRANCH  13  19
ATOM     14  C   UNL     1       7.098   4.841  13.852  0.00  0.00    +0.000 C 
ATOM     15  N   UNL     1       6.728   4.623  15.223  0.00  0.00    +0.000 N 
ATOM     16  N   UNL     1       7.509   4.989  16.247  0.00  0.00    +0.000 NA
ATOM     17  N   UNL     1       6.841   4.605  17.330  0.00  0.00    +0.000 NA
ATOM     18  C   UNL     1       5.677   4.030  16.885  0.00  0.00    +0.000 A 
ATOM     19  N   UNL     1       4.759   3.506  17.703  0.00  0.00    +0.000 N 
ATOM     20  N   UNL     1       5.570   4.030  15.554  0.00  0.00    +0.000 NA
ATOM     21  H   UNL     1       3.873   3.228  17.305  0.00  0.00    +0.000 HD
ENDBRANCH  13  19
ENDBRANCH   1  13
TORSDOF 3
ENDMDL
MODEL 6
REMARK VINA RESULT:      -7.3      0.913      1.600
REMARK  Name = 
REMARK  4 active torsions:
REMARK  status: ('A' for Active; 'I' for Inactive)
REMARK    1  A    between atoms: C_1  and  N_2
REMARK    2  A    between atoms: N_6  and  C_7
REMARK    3  A    between atoms: C_7  and  C_8
REMARK    4  A    between atoms: C_11  and  C_12
REMARK                            x       y       z     vdW  Elec       q    Type
REMARK                         _______ _______ _______ _____ _____    ______ ____
ROOT
ATOM      1  C   UNL     1       4.610   4.763  18.113  0.00  0.00    +0.000 A 
ATOM      2  C   UNL     1       3.501   4.012  17.787  0.00  0.00    +0.000 A 
ATOM      3  C   UNL     1       2.379   4.859  17.952  0.00  0.00    +0.000 A 
ATOM      4  C   UNL     1       2.858   6.078  18.389  0.00  0.00    +0.000 A 
ATOM      5  O   UNL     1       4.226   6.025  18.484  0.00  0.00    +0.000 OA
ENDROOT
BRANCH   4   6
ATOM      6  C   UNL     1       2.199   7.325  18.777  0.00  0.00    +0.000 A 
ATOM      7  C   UNL     1       2.018   8.374  17.866  0.00  0.00    +0.000 A 
ATOM      8  C   UNL     1       1.501   9.606  18.288  0.00  0.00    +0.000 A 
ATOM      9  C   UNL     1       1.144   9.792  19.622  0.00  0.00    +0.000 A 
ATOM     10 CL   UNL     1       0.561  11.321  20.152  0.00  0.00    +0.000 Cl
ATOM     11  C   UNL     1       1.275   8.748  20.533  0.00  0.00    +0.000 A 
ATOM     12  C   UNL     1       1.799   7.522  20.110  0.00  0.00    +0.000 A 
ENDBRANCH   4   6
BRANCH   1  13
ATOM     13  C   UNL     1       6.074   4.454  18.100  0.00  0.00    +0.000 C 
BRANCH  13  19
ATOM     14  C   UNL     1       7.774   5.157  12.509  0.00  0.00    +0.000 C 
ATOM     15  N   UNL     1       7.224   4.834  13.797  0.00  0.00    +0.000 N 
ATOM     16  N   UNL     1       6.331   3.851  13.971  0.00  0.00    +0.000 NA
ATOM     17  N   UNL     1       6.056   3.879  15.272  0.00  0.00    +0.000 NA
ATOM     18  C   UNL     1       6.817   4.886  15.809  0.00  0.00    +0.000 A 
ATOM     19  N   UNL     1       6.785   5.220  17.102  0.00  0.00    +0.000 N 
ATOM     20  N   UNL     1       7.575   5.509  14.902  0.00  0.00    +0.000 NA
ATOM     21  H   UNL     1       7.474   5.877  17.441  0.00  0.00    +0.000 HD
ENDBRANCH  13  19
ENDBRANCH   1  13
TORSDOF 3
ENDMDL
MODEL 7
REMARK VINA RESULT:      -7.3      5.781      6.848
REMARK  Name = 
REMARK  4 active torsions:
REMARK  status: ('A' for Active; 'I' for Inactive)
REMARK    1  A    between atoms: C_1  and  N_2
REMARK    2  A    between atoms: N_6  and  C_7
REMARK    3  A    between atoms: C_7  and  C_8
REMARK    4  A    between atoms: C_11  and  C_12
REMARK                            x       y       z     vdW  Elec       q    Type
REMARK                         _______ _______ _______ _____ _____    ______ ____
ROOT
ATOM      1  C   UNL     1       7.878   7.008  18.413  0.00  0.00    +0.000 A 
ATOM      2  C   UNL     1       7.160   7.630  17.414  0.00  0.00    +0.000 A 
ATOM      3  C   UNL     1       7.591   8.977  17.387  0.00  0.00    +0.000 A 
ATOM      4  C   UNL     1       8.539   9.114  18.383  0.00  0.00    +0.000 A 
ATOM      5  O   UNL     1       8.721   7.908  19.011  0.00  0.00    +0.000 OA
ENDROOT
BRANCH   4   6
ATOM      6  C   UNL     1       9.304  10.258  18.876  0.00  0.00    +0.000 A 
ATOM      7  C   UNL     1       9.338  10.588  20.238  0.00  0.00    +0.000 A 
ATOM      8  C   UNL     1       9.970  11.759  20.675  0.00  0.00    +0.000 A 
ATOM      9  C   UNL     1      10.590  12.601  19.754  0.00  0.00    +0.000 A 
ATOM     10 CL   UNL     1      11.320  14.067  20.283  0.00  0.00    +0.000 Cl
ATOM     11  C   UNL     1      10.606  12.270  18.403  0.00  0.00    +0.000 A 
ATOM     12  C   UNL     1       9.967  11.104  17.969  0.00  0.00    +0.000 A 
ENDBRANCH   4   6
BRANCH   1  13
ATOM     13  C   UNL     1       7.909   5.593  18.899  0.00  0.00    +0.000 C 
BRANCH  13  19
ATOM     14  C   UNL     1       2.499   3.354  18.293  0.00  0.00    +0.000 C 
ATOM     15  N   UNL     1       3.855   3.831  18.238  0.00  0.00    +0.000 N 
ATOM     16  N   UNL     1       4.604   3.742  17.132  0.00  0.00    +0.000 NA
ATOM     17  N   UNL     1       5.776   4.261  17.482  0.00  0.00    +0.000 NA
ATOM     18  C   UNL     1       5.656   4.643  18.794  0.00  0.00    +0.000 A 
ATOM     19  N   UNL     1       6.655   5.192  19.492  0.00  0.00    +0.000 N 
ATOM     20  N   UNL     1       4.448   4.391  19.303  0.00  0.00    +0.000 NA
ATOM     21  H   UNL     1       6.444   5.571  20.406  0.00  0.00    +0.000 HD
ENDBRANCH  13  19
ENDBRANCH   1  13
TORSDOF 3
ENDMDL
MODEL 8
REMARK VINA RESULT:      -7.2      0.814      1.193
REMARK  Name = 
REMARK  4 active torsions:
REMARK  status: ('A' for Active; 'I' for Inactive)
REMARK    1  A    between atoms: C_1  and  N_2
REMARK    2  A    between atoms: N_6  and  C_7
REMARK    3  A    between atoms: C_7  and  C_8
REMARK    4  A    between atoms: C_11  and  C_12
REMARK                            x       y       z     vdW  Elec       q    Type
REMARK                         _______ _______ _______ _____ _____    ______ ____
ROOT
ATOM      1  C   UNL     1       4.151   4.649  19.177  0.00  0.00    +0.000 A 
ATOM      2  C   UNL     1       3.190   4.131  20.020  0.00  0.00    +0.000 A 
ATOM      3  C   UNL     1       2.236   5.157  20.221  0.00  0.00    +0.000 A 
ATOM      4  C   UNL     1       2.673   6.255  19.506  0.00  0.00    +0.000 A 
ATOM      5  O   UNL     1       3.843   5.946  18.861  0.00  0.00    +0.000 OA
ENDROOT
BRANCH   4   6
ATOM      6  C   UNL     1       2.154   7.615  19.357  0.00  0.00    +0.000 A 
ATOM      7  C   UNL     1       1.487   8.265  20.404  0.00  0.00    +0.000 A 
ATOM      8  C   UNL     1       0.886   9.514  20.202  0.00  0.00    +0.000 A 
ATOM      9  C   UNL     1       0.963  10.131  18.955  0.00  0.00    +0.000 A 
ATOM     10 CL   UNL     1       0.179  11.640  18.691  0.00  0.00    +0.000 Cl
ATOM     11  C   UNL     1       1.658   9.522  17.915  0.00  0.00    +0.000 A 
ATOM     12  C   UNL     1       2.251   8.272  18.118  0.00  0.00    +0.000 A 
ENDBRANCH   4   6
BRANCH   1  13
ATOM     13  C   UNL     1       5.380   4.053  18.566  0.00  0.00    +0.000 C 
BRANCH  13  19
ATOM     14  C   UNL     1       7.735   5.367  13.334  0.00  0.00    +0.000 C 
ATOM     15  N   UNL     1       7.068   4.877  14.510  0.00  0.00    +0.000 N 
ATOM     16  N   UNL     1       6.360   3.741  14.515  0.00  0.00    +0.000 NA
ATOM     17  N   UNL     1       5.893   3.645  15.756  0.00  0.00    +0.000 NA
ATOM     18  C   UNL     1       6.363   4.742  16.433  0.00  0.00    +0.000 A 
ATOM     19  N   UNL     1       6.075   4.991  17.715  0.00  0.00    +0.000 N 
ATOM     20  N   UNL     1       7.117   5.541  15.675  0.00  0.00    +0.000 NA
ATOM     21  H   UNL     1       6.571   5.741  18.176  0.00  0.00    +0.000 HD
ENDBRANCH  13  19
ENDBRANCH   1  13
TORSDOF 3
ENDMDL
MODEL 9
REMARK VINA RESULT:      -7.1      1.330      1.918
REMARK  Name = 
REMARK  4 active torsions:
REMARK  status: ('A' for Active; 'I' for Inactive)
REMARK    1  A    between atoms: C_1  and  N_2
REMARK    2  A    between atoms: N_6  and  C_7
REMARK    3  A    between atoms: C_7  and  C_8
REMARK    4  A    between atoms: C_11  and  C_12
REMARK                            x       y       z     vdW  Elec       q    Type
REMARK                         _______ _______ _______ _____ _____    ______ ____
ROOT
ATOM      1  C   UNL     1       3.454   3.994  19.917  0.00  0.00    +0.000 A 
ATOM      2  C   UNL     1       2.323   3.714  20.654  0.00  0.00    +0.000 A 
ATOM      3  C   UNL     1       1.550   4.900  20.672  0.00  0.00    +0.000 A 
ATOM      4  C   UNL     1       2.258   5.849  19.961  0.00  0.00    +0.000 A 
ATOM      5  O   UNL     1       3.423   5.296  19.493  0.00  0.00    +0.000 OA
ENDROOT
BRANCH   4   6
ATOM      6  C   UNL     1       2.013   7.261  19.671  0.00  0.00    +0.000 A 
ATOM      7  C   UNL     1       1.395   8.106  20.604  0.00  0.00    +0.000 A 
ATOM      8  C   UNL     1       1.053   9.420  20.261  0.00  0.00    +0.000 A 
ATOM      9  C   UNL     1       1.342   9.906  18.987  0.00  0.00    +0.000 A 
ATOM     10 CL   UNL     1       0.873  11.503  18.548  0.00  0.00    +0.000 Cl
ATOM     11  C   UNL     1       1.994   9.098  18.061  0.00  0.00    +0.000 A 
ATOM     12  C   UNL     1       2.328   7.784  18.404  0.00  0.00    +0.000 A 
ENDBRANCH   4   6
BRANCH   1  13
ATOM     13  C   UNL     1       4.621   3.152  19.506  0.00  0.00    +0.000 C 
BRANCH  13  19
ATOM     14  C   UNL     1       7.135   5.126  14.564  0.00  0.00    +0.000 C 
ATOM     15  N   UNL     1       6.355   4.583  15.643  0.00  0.00    +0.000 N 
ATOM     16  N   UNL     1       5.186   3.962  15.445  0.00  0.00    +0.000 NA
ATOM     17  N   UNL     1       4.775   3.630  16.665  0.00  0.00    +0.000 NA
ATOM     18  C   UNL     1       5.740   4.072  17.534  0.00  0.00    +0.000 A 
ATOM     19  N   UNL     1       5.653   3.929  18.860  0.00  0.00    +0.000 N 
ATOM     20  N   UNL     1       6.760   4.675  16.920  0.00  0.00    +0.000 NA
ATOM     21  H   UNL     1       6.466   4.156  19.416  0.00  0.00    +0.000 HD
ENDBRANCH  13  19
ENDBRANCH   1  13
TORSDOF 3
ENDMDL
