MODEL 1
REMARK VINA RESULT:      -7.4      0.000      0.000
REMARK  Name = 
REMARK  3 active torsions:
REMARK  status: ('A' for Active; 'I' for Inactive)
REMARK    1  A    between atoms: N_1  and  C_2
REMARK    2  A    between atoms: C_5  and  C_6
REMARK    3  A    between atoms: C_14  and  C_15
REMARK                            x       y       z     vdW  Elec       q    Type
REMARK                         _______ _______ _______ _____ _____    ______ ____
ROOT
ATOM      1  C   UNL     1       3.949   6.442  17.557  0.00  0.00    +0.000 A 
ATOM      2  C   UNL     1       4.329   5.513  18.457  0.00  0.00    +0.000 A 
ATOM      3 BR   UNL     1       5.977   4.652  18.285  0.00  0.00    +0.000 Br
ATOM      4  C   UNL     1       3.466   5.412  19.695  0.00  0.00    +0.000 A 
ATOM      5  N   UNL     1       2.720   6.402  20.130  0.00  0.00    +0.000 NA
ATOM      6  C   UNL     1       2.540   7.463  19.293  0.00  0.00    +0.000 A 
ATOM      7  C   UNL     1       1.798   8.628  19.400  0.00  0.00    +0.000 A 
ATOM      8  C   UNL     1       1.938   9.249  18.140  0.00  0.00    +0.000 A 
ATOM      9  N   UNL     1       2.681   8.555  17.284  0.00  0.00    +0.000 NA
ATOM     10  N   UNL     1       3.046   7.441  17.989  0.00  0.00    +0.000 N 
ENDROOT
BRANCH   4  11
ATOM     11  C   UNL     1       3.178   4.067  20.419  0.00  0.00    +0.000 C 
ATOM     12  C   UNL     1       3.235   2.704  19.726  0.00  0.00    +0.000 C 
ATOM     13  C   UNL     1       1.992   2.349  18.900  0.00  0.00    +0.000 C 
ATOM     14  C   UNL     1       0.677   2.717  19.579  0.00  0.00    +0.000 C 
ATOM     15  N   UNL     1       0.710   4.070  20.122  0.00  0.00    +0.000 NA
ATOM     16  C   UNL     1       1.797   4.217  21.096  0.00  0.00    +0.000 C 
ATOM     17  H   UNL     1      -0.178   4.267  20.582  0.00  0.00    +0.000 HD
ENDBRANCH   4  11
BRANCH   7  18
ATOM     18  C   UNL     1       0.997   9.049  20.539  0.00  0.00    +0.000 A 
ATOM     19  C   UNL     1       0.202   8.117  21.218  0.00  0.00    +0.000 A 
ATOM     20  C   UNL     1      -0.580   8.518  22.301  0.00  0.00    +0.000 A 
ATOM     21  C   UNL     1      -0.545   9.849  22.676  0.00  0.00    +0.000 A 
ATOM     22  N   UNL     1       0.203  10.782  22.051  0.00  0.00    +0.000 NA
ATOM     23  C   UNL     1       0.959  10.360  21.002  0.00  0.00    +0.000 A 
ENDBRANCH   7  18
BRANCH   1  24
ATOM     24  N   UNL     1       4.477   6.588  16.271  0.00  0.00    +0.000 N 
ATOM     25  H   UNL     1       5.449   6.320  16.161  0.00  0.00    +0.000 HD
ATOM     26  H   UNL     1       4.189   7.458  15.820  0.00  0.00    +0.000 HD
ENDBRANCH   1  24
TORSDOF 3
ENDMDL
MODEL 2
REMARK VINA RESULT:      -7.1      0.744      1.112
REMARK  Name = 
REMARK  3 active torsions:
REMARK  status: ('A' for Active; 'I' for Inactive)
REMARK    1  A    between atoms: N_1  and  C_2
REMARK    2  A    between atoms: C_5  and  C_6
REMARK    3  A    between atoms: C_14  and  C_15
REMARK                            x       y       z     vdW  Elec       q    Type
REMARK                         _______ _______ _______ _____ _____    ______ ____
ROOT
ATOM      1  C   UNL     1       3.759   6.468  17.748  0.00  0.00    +0.000 A 
ATOM      2  C   UNL     1       4.033   5.534  18.680  0.00  0.00    +0.000 A 
ATOM      3 BR   UNL     1       5.641   4.585  18.618  0.00  0.00    +0.000 Br
ATOM      4  C   UNL     1       3.093   5.496  19.864  0.00  0.00    +0.000 A 
ATOM      5  N   UNL     1       2.376   6.530  20.241  0.00  0.00    +0.000 NA
ATOM      6  C   UNL     1       2.304   7.587  19.383  0.00  0.00    +0.000 A 
ATOM      7  C   UNL     1       1.620   8.791  19.432  0.00  0.00    +0.000 A 
ATOM      8  C   UNL     1       1.868   9.385  18.176  0.00  0.00    +0.000 A 
ATOM      9  N   UNL     1       2.624   8.640  17.374  0.00  0.00    +0.000 NA
ATOM     10  N   UNL     1       2.886   7.519  18.113  0.00  0.00    +0.000 N 
ENDROOT
BRANCH   4  11
ATOM     11  C   UNL     1       2.691   4.179  20.584  0.00  0.00    +0.000 C 
ATOM     12  C   UNL     1       3.299   2.813  20.253  0.00  0.00    +0.000 C 
ATOM     13  C   UNL     1       2.714   2.133  19.009  0.00  0.00    +0.000 C 
ATOM     14  C   UNL     1       1.198   2.251  18.900  0.00  0.00    +0.000 C 
ATOM     15  N   UNL     1       0.743   3.615  19.147  0.00  0.00    +0.000 NA
ATOM     16  C   UNL     1       1.153   4.070  20.479  0.00  0.00    +0.000 C 
ATOM     17  H   UNL     1      -0.274   3.645  19.083  0.00  0.00    +0.000 HD
ENDBRANCH   4  11
BRANCH   7  18
ATOM     18  C   UNL     1       0.775   9.270  20.515  0.00  0.00    +0.000 A 
ATOM     19  C   UNL     1       0.527  10.641  20.656  0.00  0.00    +0.000 A 
ATOM     20  C   UNL     1      -0.270  11.107  21.701  0.00  0.00    +0.000 A 
ATOM     21  C   UNL     1      -0.798  10.181  22.583  0.00  0.00    +0.000 A 
ATOM     22  N   UNL     1      -0.584   8.853  22.489  0.00  0.00    +0.000 NA
ATOM     23  C   UNL     1       0.192   8.428  21.456  0.00  0.00    +0.000 A 
ENDBRANCH   7  18
BRANCH   1  24
ATOM     24  N   UNL     1       4.371   6.568  16.495  0.00  0.00    +0.000 N 
ATOM     25  H   UNL     1       4.421   7.502  16.104  0.00  0.00    +0.000 HD
ATOM     26  H   UNL     1       4.094   5.819  15.857  0.00  0.00    +0.000 HD
ENDBRANCH   1  24
TORSDOF 3
ENDMDL
MODEL 3
REMARK VINA RESULT:      -7.1      2.110      4.404
REMARK  Name = 
REMARK  3 active torsions:
REMARK  status: ('A' for Active; 'I' for Inactive)
REMARK    1  A    between atoms: N_1  and  C_2
REMARK    2  A    between atoms: C_5  and  C_6
REMARK    3  A    between atoms: C_14  and  C_15
REMARK                            x       y       z     vdW  Elec       q    Type
REMARK                         _______ _______ _______ _____ _____    ______ ____
ROOT
ATOM      1  C   UNL     1       3.292   3.575  19.651  0.00  0.00    +0.000 A 
ATOM      2  C   UNL     1       3.679   3.417  18.369  0.00  0.00    +0.000 A 
ATOM      3 BR   UNL     1       3.650   1.725  17.578  0.00  0.00    +0.000 Br
ATOM      4  C   UNL     1       3.887   4.695  17.587  0.00  0.00    +0.000 A 
ATOM      5  N   UNL     1       3.309   5.830  17.905  0.00  0.00    +0.000 NA
ATOM      6  C   UNL     1       2.700   5.901  19.123  0.00  0.00    +0.000 A 
ATOM      7  C   UNL     1       2.049   6.928  19.789  0.00  0.00    +0.000 A 
ATOM      8  C   UNL     1       1.757   6.389  21.060  0.00  0.00    +0.000 A 
ATOM      9  N   UNL     1       2.187   5.142  21.223  0.00  0.00    +0.000 NA
ATOM     10  N   UNL     1       2.783   4.839  20.029  0.00  0.00    +0.000 N 
ENDROOT
BRANCH   4  11
ATOM     11  C   UNL     1       4.989   4.853  16.502  0.00  0.00    +0.000 C 
ATOM     12  C   UNL     1       6.394   4.261  16.630  0.00  0.00    +0.000 C 
ATOM     13  C   UNL     1       7.357   5.071  17.507  0.00  0.00    +0.000 C 
ATOM     14  C   UNL     1       7.266   6.578  17.290  0.00  0.00    +0.000 C 
ATOM     15  N   UNL     1       5.882   7.040  17.277  0.00  0.00    +0.000 NA
ATOM     16  C   UNL     1       5.117   6.368  16.221  0.00  0.00    +0.000 C 
ATOM     17  H   UNL     1       5.868   8.045  17.110  0.00  0.00    +0.000 HD
ENDBRANCH   4  11
BRANCH   7  18
ATOM     18  C   UNL     1       1.811   8.274  19.293  0.00  0.00    +0.000 A 
ATOM     19  C   UNL     1       1.081   9.186  20.067  0.00  0.00    +0.000 A 
ATOM     20  C   UNL     1       0.836  10.474  19.590  0.00  0.00    +0.000 A 
ATOM     21  C   UNL     1       1.331  10.814  18.344  0.00  0.00    +0.000 A 
ATOM     22  N   UNL     1       2.036   9.970  17.563  0.00  0.00    +0.000 NA
ATOM     23  C   UNL     1       2.264   8.723  18.057  0.00  0.00    +0.000 A 
ENDBRANCH   7  18
BRANCH   1  24
ATOM     24  N   UNL     1       3.219   2.558  20.607  0.00  0.00    +0.000 N 
ATOM     25  H   UNL     1       3.883   1.800  20.495  0.00  0.00    +0.000 HD
ATOM     26  H   UNL     1       2.258   2.294  20.834  0.00  0.00    +0.000 HD
ENDBRANCH   1  24
TORSDOF 3
ENDMDL
MODEL 4
REMARK VINA RESULT:      -6.9      2.038      4.381
REMARK  Name = 
REMARK  3 active torsions:
REMARK  status: ('A' for Active; 'I' for Inactive)
REMARK    1  A    between atoms: N_1  and  C_2
REMARK    2  A    between atoms: C_5  and  C_6
REMARK    3  A    between atoms: C_14  and  C_15
REMARK                            x       y       z     vdW  Elec       q    Type
REMARK                         _______ _______ _______ _____ _____    ______ ____
ROOT
ATOM      1  C   UNL     1       3.305   3.544  19.589  0.00  0.00    +0.000 A 
ATOM      2  C   UNL     1       3.663   3.430  18.295  0.00  0.00    +0.000 A 
ATOM      3 BR   UNL     1       3.637   1.764  17.453  0.00  0.00    +0.000 Br
ATOM      4  C   UNL     1       3.836   4.734  17.548  0.00  0.00    +0.000 A 
ATOM      5  N   UNL     1       3.252   5.851  17.915  0.00  0.00    +0.000 NA
ATOM      6  C   UNL     1       2.670   5.877  19.148  0.00  0.00    +0.000 A 
ATOM      7  C   UNL     1       2.023   6.874  19.860  0.00  0.00    +0.000 A 
ATOM      8  C   UNL     1       1.768   6.293  21.121  0.00  0.00    +0.000 A 
ATOM      9  N   UNL     1       2.217   5.047  21.234  0.00  0.00    +0.000 NA
ATOM     10  N   UNL     1       2.788   4.788  20.019  0.00  0.00    +0.000 N 
ENDROOT
BRANCH   4  11
ATOM     11  C   UNL     1       4.909   4.941  16.443  0.00  0.00    +0.000 C 
ATOM     12  C   UNL     1       6.287   4.273  16.466  0.00  0.00    +0.000 C 
ATOM     13  C   UNL     1       7.316   4.951  17.378  0.00  0.00    +0.000 C 
ATOM     14  C   UNL     1       7.295   6.474  17.303  0.00  0.00    +0.000 C 
ATOM     15  N   UNL     1       5.937   7.000  17.382  0.00  0.00    +0.000 NA
ATOM     16  C   UNL     1       5.105   6.467  16.298  0.00  0.00    +0.000 C 
ATOM     17  H   UNL     1       5.968   8.016  17.309  0.00  0.00    +0.000 HD
ENDBRANCH   4  11
BRANCH   7  18
ATOM     18  C   UNL     1       1.756   8.232  19.412  0.00  0.00    +0.000 A 
ATOM     19  C   UNL     1       2.207   8.656  18.155  0.00  0.00    +0.000 A 
ATOM     20  C   UNL     1       1.967   9.960  17.727  0.00  0.00    +0.000 A 
ATOM     21  C   UNL     1       1.278  10.811  18.574  0.00  0.00    +0.000 A 
ATOM     22  N   UNL     1       0.827  10.448  19.792  0.00  0.00    +0.000 NA
ATOM     23  C   UNL     1       1.072   9.167  20.181  0.00  0.00    +0.000 A 
ENDBRANCH   7  18
BRANCH   1  24
ATOM     24  N   UNL     1       3.267   2.497  20.515  0.00  0.00    +0.000 N 
ATOM     25  H   UNL     1       3.211   2.774  21.489  0.00  0.00    +0.000 HD
ATOM     26  H   UNL     1       3.919   1.743  20.291  0.00  0.00    +0.000 HD
ENDBRANCH   1  24
TORSDOF 3
ENDMDL
MODEL 5
REMARK VINA RESULT:      -6.5      4.055      7.685
REMARK  Name = 
REMARK  3 active torsions:
REMARK  status: ('A' for Active; 'I' for Inactive)
REMARK    1  A    between atoms: N_1  and  C_2
REMARK    2  A    between atoms: C_5  and  C_6
REMARK    3  A    between atoms: C_14  and  C_15
REMARK                            x       y       z     vdW  Elec       q    Type
REMARK                         _______ _______ _______ _____ _____    ______ ____
ROOT
ATOM      1  C   UNL     1      -1.767  12.033  22.276  0.00  0.00    +0.000 A 
ATOM      2  C   UNL     1      -2.076  12.666  21.127  0.00  0.00    +0.000 A 
ATOM      3 BR   UNL     1      -2.560  14.470  21.147  0.00  0.00    +0.000 Br
ATOM      4  C   UNL     1      -1.769  11.904  19.857  0.00  0.00    +0.000 A 
ATOM      5  N   UNL     1      -0.867  10.952  19.795  0.00  0.00    +0.000 NA
ATOM      6  C   UNL     1      -0.374  10.480  20.975  0.00  0.00    +0.000 A 
ATOM      7  C   UNL     1       0.530   9.475  21.280  0.00  0.00    +0.000 A 
ATOM      8  C   UNL     1       0.513   9.407  22.690  0.00  0.00    +0.000 A 
ATOM      9  N   UNL     1      -0.329  10.266  23.256  0.00  0.00    +0.000 NA
ATOM     10  N   UNL     1      -0.890  10.925  22.197  0.00  0.00    +0.000 N 
ENDROOT
BRANCH   4  11
ATOM     11  C   UNL     1      -2.656  11.990  18.583  0.00  0.00    +0.000 C 
ATOM     12  C   UNL     1      -3.839  11.058  18.311  0.00  0.00    +0.000 C 
ATOM     13  C   UNL     1      -3.457   9.676  17.766  0.00  0.00    +0.000 C 
ATOM     14  C   UNL     1      -2.358   9.714  16.709  0.00  0.00    +0.000 C 
ATOM     15  N   UNL     1      -1.244  10.562  17.119  0.00  0.00    +0.000 NA
ATOM     16  C   UNL     1      -1.696  11.933  17.373  0.00  0.00    +0.000 C 
ATOM     17  H   UNL     1      -0.544  10.573  16.378  0.00  0.00    +0.000 HD
ENDBRANCH   4  11
BRANCH   7  18
ATOM     18  C   UNL     1       1.254   8.638  20.336  0.00  0.00    +0.000 A 
ATOM     19  C   UNL     1       1.503   9.102  19.038  0.00  0.00    +0.000 A 
ATOM     20  C   UNL     1       2.184   8.299  18.124  0.00  0.00    +0.000 A 
ATOM     21  C   UNL     1       2.597   7.045  18.537  0.00  0.00    +0.000 A 
ATOM     22  N   UNL     1       2.378   6.555  19.774  0.00  0.00    +0.000 NA
ATOM     23  C   UNL     1       1.716   7.364  20.646  0.00  0.00    +0.000 A 
ENDBRANCH   7  18
BRANCH   1  24
ATOM     24  N   UNL     1      -2.126  12.457  23.559  0.00  0.00    +0.000 N 
ATOM     25  H   UNL     1      -2.914  11.976  23.976  0.00  0.00    +0.000 HD
ATOM     26  H   UNL     1      -2.103  13.474  23.661  0.00  0.00    +0.000 HD
ENDBRANCH   1  24
TORSDOF 3
ENDMDL
MODEL 6
REMARK VINA RESULT:      -6.3      4.352      7.699
REMARK  Name = 
REMARK  3 active torsions:
REMARK  status: ('A' for Active; 'I' for Inactive)
REMARK    1  A    between atoms: N_1  and  C_2
REMARK    2  A    between atoms: C_5  and  C_6
REMARK    3  A    between atoms: C_14  and  C_15
REMARK                            x       y       z     vdW  Elec       q    Type
REMARK                         _______ _______ _______ _____ _____    ______ ____
ROOT
ATOM      1  C   UNL     1       5.842   5.558  17.450  0.00  0.00    +0.000 A 
ATOM      2  C   UNL     1       4.576   5.263  17.806  0.00  0.00    +0.000 A 
ATOM      3 BR   UNL     1       3.674   6.330  19.046  0.00  0.00    +0.000 Br
ATOM      4  C   UNL     1       3.893   4.202  16.974  0.00  0.00    +0.000 A 
ATOM      5  N   UNL     1       4.254   3.914  15.744  0.00  0.00    +0.000 NA
ATOM      6  C   UNL     1       5.439   4.427  15.305  0.00  0.00    +0.000 A 
ATOM      7  C   UNL     1       6.135   4.295  14.114  0.00  0.00    +0.000 A 
ATOM      8  C   UNL     1       7.350   4.976  14.343  0.00  0.00    +0.000 A 
ATOM      9  N   UNL     1       7.452   5.488  15.566  0.00  0.00    +0.000 NA
ATOM     10  N   UNL     1       6.276   5.140  16.170  0.00  0.00    +0.000 N 
ENDROOT
BRANCH   4  11
ATOM     11  C   UNL     1       2.882   3.181  17.567  0.00  0.00    +0.000 C 
ATOM     12  C   UNL     1       1.852   3.537  18.643  0.00  0.00    +0.000 C 
ATOM     13  C   UNL     1       2.406   3.588  20.072  0.00  0.00    +0.000 C 
ATOM     14  C   UNL     1       3.371   2.454  20.398  0.00  0.00    +0.000 C 
ATOM     15  N   UNL     1       4.362   2.268  19.344  0.00  0.00    +0.000 NA
ATOM     16  C   UNL     1       3.712   1.975  18.062  0.00  0.00    +0.000 C 
ATOM     17  H   UNL     1       4.973   1.490  19.593  0.00  0.00    +0.000 HD
ENDBRANCH   4  11
BRANCH   7  18
ATOM     18  C   UNL     1       5.717   3.546  12.939  0.00  0.00    +0.000 A 
ATOM     19  C   UNL     1       4.499   3.846  12.315  0.00  0.00    +0.000 A 
ATOM     20  C   UNL     1       4.087   3.121  11.197  0.00  0.00    +0.000 A 
ATOM     21  C   UNL     1       4.909   2.110  10.733  0.00  0.00    +0.000 A 
ATOM     22  N   UNL     1       6.088   1.785  11.303  0.00  0.00    +0.000 NA
ATOM     23  C   UNL     1       6.466   2.513  12.388  0.00  0.00    +0.000 A 
ENDBRANCH   7  18
BRANCH   1  24
ATOM     24  N   UNL     1       6.724   6.362  18.178  0.00  0.00    +0.000 N 
ATOM     25  H   UNL     1       6.589   7.363  18.080  0.00  0.00    +0.000 HD
ATOM     26  H   UNL     1       7.688   6.025  18.147  0.00  0.00    +0.000 HD
ENDBRANCH   1  24
TORSDOF 3
ENDMDL
MODEL 7
REMARK VINA RESULT:      -6.3      5.784      8.301
REMARK  Name = 
REMARK  3 active torsions:
REMARK  status: ('A' for Active; 'I' for Inactive)
REMARK    1  A    between atoms: N_1  and  C_2
REMARK    2  A    between atoms: C_5  and  C_6
REMARK    3  A    between atoms: C_14  and  C_15
REMARK                            x       y       z     vdW  Elec       q    Type
REMARK                         _______ _______ _______ _____ _____    ______ ____
ROOT
ATOM      1  C   UNL     1      -0.333  10.811  18.401  0.00  0.00    +0.000 A 
ATOM      2  C   UNL     1      -0.033  11.894  19.145  0.00  0.00    +0.000 A 
ATOM      3 BR   UNL     1       1.677  12.641  19.074  0.00  0.00    +0.000 Br
ATOM      4  C   UNL     1      -1.207  12.572  19.815  0.00  0.00    +0.000 A 
ATOM      5  N   UNL     1      -2.440  12.467  19.375  0.00  0.00    +0.000 NA
ATOM      6  C   UNL     1      -2.687  11.516  18.429  0.00  0.00    +0.000 A 
ATOM      7  C   UNL     1      -3.847  11.106  17.791  0.00  0.00    +0.000 A 
ATOM      8  C   UNL     1      -3.445   9.998  17.016  0.00  0.00    +0.000 A 
ATOM      9  N   UNL     1      -2.156   9.696  17.144  0.00  0.00    +0.000 NA
ATOM     10  N   UNL     1      -1.685  10.627  18.028  0.00  0.00    +0.000 N 
ENDROOT
BRANCH   4  11
ATOM     11  C   UNL     1      -1.114  13.238  21.216  0.00  0.00    +0.000 C 
ATOM     12  C   UNL     1      -0.559  12.529  22.455  0.00  0.00    +0.000 C 
ATOM     13  C   UNL     1      -1.541  11.573  23.143  0.00  0.00    +0.000 C 
ATOM     14  C   UNL     1      -2.961  12.119  23.246  0.00  0.00    +0.000 C 
ATOM     15  N   UNL     1      -3.414  12.688  21.981  0.00  0.00    +0.000 NA
ATOM     16  C   UNL     1      -2.526  13.771  21.547  0.00  0.00    +0.000 C 
ATOM     17  H   UNL     1      -4.357  13.057  22.100  0.00  0.00    +0.000 HD
ENDBRANCH   4  11
BRANCH   7  18
ATOM     18  C   UNL     1      -5.180  11.660  17.966  0.00  0.00    +0.000 A 
ATOM     19  C   UNL     1      -5.696  12.555  17.019  0.00  0.00    +0.000 A 
ATOM     20  C   UNL     1      -6.968  13.101  17.189  0.00  0.00    +0.000 A 
ATOM     21  C   UNL     1      -7.692  12.735  18.310  0.00  0.00    +0.000 A 
ATOM     22  N   UNL     1      -7.236  11.881  19.248  0.00  0.00    +0.000 NA
ATOM     23  C   UNL     1      -5.994  11.360  19.053  0.00  0.00    +0.000 A 
ENDBRANCH   7  18
BRANCH   1  24
ATOM     24  N   UNL     1       0.596   9.925  17.846  0.00  0.00    +0.000 N 
ATOM     25  H   UNL     1       0.484   8.951  18.106  0.00  0.00    +0.000 HD
ATOM     26  H   UNL     1       1.549  10.293  17.852  0.00  0.00    +0.000 HD
ENDBRANCH   1  24
TORSDOF 3
ENDMDL
MODEL 8
REMARK VINA RESULT:      -6.3      4.005      7.579
REMARK  Name = 
REMARK  3 active torsions:
REMARK  status: ('A' for Active; 'I' for Inactive)
REMARK    1  A    between atoms: N_1  and  C_2
REMARK    2  A    between atoms: C_5  and  C_6
REMARK    3  A    between atoms: C_14  and  C_15
REMARK                            x       y       z     vdW  Elec       q    Type
REMARK                         _______ _______ _______ _____ _____    ______ ____
ROOT
ATOM      1  C   UNL     1      -1.539  11.942  22.268  0.00  0.00    +0.000 A 
ATOM      2  C   UNL     1      -1.907  12.597  21.149  0.00  0.00    +0.000 A 
ATOM      3 BR   UNL     1      -2.400  14.396  21.231  0.00  0.00    +0.000 Br
ATOM      4  C   UNL     1      -1.658  11.863  19.851  0.00  0.00    +0.000 A 
ATOM      5  N   UNL     1      -0.756  10.918  19.725  0.00  0.00    +0.000 NA
ATOM      6  C   UNL     1      -0.203  10.425  20.870  0.00  0.00    +0.000 A 
ATOM      7  C   UNL     1       0.720   9.419  21.110  0.00  0.00    +0.000 A 
ATOM      8  C   UNL     1       0.773   9.322  22.517  0.00  0.00    +0.000 A 
ATOM      9  N   UNL     1      -0.046  10.165  23.141  0.00  0.00    +0.000 NA
ATOM     10  N   UNL     1      -0.661  10.842  22.124  0.00  0.00    +0.000 N 
ENDROOT
BRANCH   4  11
ATOM     11  C   UNL     1      -2.606  11.969  18.623  0.00  0.00    +0.000 C 
ATOM     12  C   UNL     1      -3.810  11.049  18.401  0.00  0.00    +0.000 C 
ATOM     13  C   UNL     1      -3.468   9.670  17.825  0.00  0.00    +0.000 C 
ATOM     14  C   UNL     1      -2.423   9.709  16.715  0.00  0.00    +0.000 C 
ATOM     15  N   UNL     1      -1.282  10.543  17.077  0.00  0.00    +0.000 NA
ATOM     16  C   UNL     1      -1.709  11.916  17.366  0.00  0.00    +0.000 C 
ATOM     17  H   UNL     1      -0.620  10.556  16.302  0.00  0.00    +0.000 HD
ENDBRANCH   4  11
BRANCH   7  18
ATOM     18  C   UNL     1       1.402   8.607  20.115  0.00  0.00    +0.000 A 
ATOM     19  C   UNL     1       1.859   7.326  20.450  0.00  0.00    +0.000 A 
ATOM     20  C   UNL     1       2.527   6.549  19.504  0.00  0.00    +0.000 A 
ATOM     21  C   UNL     1       2.720   7.079  18.241  0.00  0.00    +0.000 A 
ATOM     22  N   UNL     1       2.300   8.307  17.874  0.00  0.00    +0.000 NA
ATOM     23  C   UNL     1       1.647   9.040  18.816  0.00  0.00    +0.000 A 
ENDBRANCH   7  18
BRANCH   1  24
ATOM     24  N   UNL     1      -1.837  12.338  23.576  0.00  0.00    +0.000 N 
ATOM     25  H   UNL     1      -1.049  12.381  24.212  0.00  0.00    +0.000 HD
ATOM     26  H   UNL     1      -2.693  11.910  23.936  0.00  0.00    +0.000 HD
ENDBRANCH   1  24
TORSDOF 3
ENDMDL
MODEL 9
REMARK VINA RESULT:      -6.3      5.790      8.283
REMARK  Name = 
REMARK  3 active torsions:
REMARK  status: ('A' for Active; 'I' for Inactive)
REMARK    1  A    between atoms: N_1  and  C_2
REMARK    2  A    between atoms: C_5  and  C_6
REMARK    3  A    between atoms: C_14  and  C_15
REMARK                            x       y       z     vdW  Elec       q    Type
REMARK                         _______ _______ _______ _____ _____    ______ ____
ROOT
ATOM      1  C   UNL     1      -0.290  10.856  18.479  0.00  0.00    +0.000 A 
ATOM      2  C   UNL     1       0.002  11.919  19.255  0.00  0.00    +0.000 A 
ATOM      3 BR   UNL     1       1.717  12.658  19.232  0.00  0.00    +0.000 Br
ATOM      4  C   UNL     1      -1.180  12.586  19.922  0.00  0.00    +0.000 A 
ATOM      5  N   UNL     1      -2.405  12.498  19.459  0.00  0.00    +0.000 NA
ATOM      6  C   UNL     1      -2.641  11.573  18.486  0.00  0.00    +0.000 A 
ATOM      7  C   UNL     1      -3.792  11.184  17.818  0.00  0.00    +0.000 A 
ATOM      8  C   UNL     1      -3.383  10.093  17.023  0.00  0.00    +0.000 A 
ATOM      9  N   UNL     1      -2.097   9.782  17.164  0.00  0.00    +0.000 NA
ATOM     10  N   UNL     1      -1.636  10.688  18.079  0.00  0.00    +0.000 N 
ENDROOT
BRANCH   4  11
ATOM     11  C   UNL     1      -1.106  13.216  21.341  0.00  0.00    +0.000 C 
ATOM     12  C   UNL     1      -0.672  12.443  22.589  0.00  0.00    +0.000 C 
ATOM     13  C   UNL     1      -1.758  11.554  23.206  0.00  0.00    +0.000 C 
ATOM     14  C   UNL     1      -3.135  12.208  23.252  0.00  0.00    +0.000 C 
ATOM     15  N   UNL     1      -3.478  12.834  21.979  0.00  0.00    +0.000 NA
ATOM     16  C   UNL     1      -2.488  13.852  21.613  0.00  0.00    +0.000 C 
ATOM     17  H   UNL     1      -4.394  13.273  22.060  0.00  0.00    +0.000 HD
ENDBRANCH   4  11
BRANCH   7  18
ATOM     18  C   UNL     1      -5.125  11.741  17.985  0.00  0.00    +0.000 A 
ATOM     19  C   UNL     1      -5.841  11.503  19.166  0.00  0.00    +0.000 A 
ATOM     20  C   UNL     1      -7.126  12.021  19.324  0.00  0.00    +0.000 A 
ATOM     21  C   UNL     1      -7.662  12.768  18.290  0.00  0.00    +0.000 A 
ATOM     22  N   UNL     1      -7.012  13.021  17.136  0.00  0.00    +0.000 NA
ATOM     23  C   UNL     1      -5.759  12.506  17.012  0.00  0.00    +0.000 A 
ENDBRANCH   7  18
BRANCH   1  24
ATOM     24  N   UNL     1       0.644   9.979  17.918  0.00  0.00    +0.000 N 
ATOM     25  H   UNL     1       1.561  10.372  17.737  0.00  0.00    +0.000 HD
ATOM     26  H   UNL     1       0.245   9.390  17.185  0.00  0.00    +0.000 HD
ENDBRANCH   1  24
TORSDOF 3
ENDMDL
