MODEL 1
REMARK VINA RESULT:      -7.1      0.000      0.000
REMARK  Name = 
REMARK  5 active torsions:
REMARK  status: ('A' for Active; 'I' for Inactive)
REMARK    1  A    between atoms: C_1  and  O_2
REMARK    2  A    between atoms: O_2  and  C_3
REMARK    3  A    between atoms: C_9  and  N_10
REMARK    4  A    between atoms: C_11  and  C_13
REMARK    5  A    between atoms: C_13  and  N_14
REMARK                            x       y       z     vdW  Elec       q    Type
REMARK                         _______ _______ _______ _____ _____    ______ ____
ROOT
ATOM      1  N   UNL     1       1.221   9.641  19.266  0.00  0.00    +0.000 N 
ATOM      2  C   UNL     1       1.890   8.764  18.423  0.00  0.00    +0.000 C 
ATOM      3  O   UNL     1       2.197   8.992  17.252  0.00  0.00    +0.000 OA
ATOM      4  H   UNL     1       1.245   9.454  20.264  0.00  0.00    +0.000 HD
ENDROOT
BRANCH   1  11
ATOM      5  C   UNL     1      -0.654  11.054  18.570  0.00  0.00    +0.000 A 
ATOM      6  C   UNL     1      -1.178  12.331  18.305  0.00  0.00    +0.000 A 
ATOM      7  C   UNL     1      -0.352  13.454  18.313  0.00  0.00    +0.000 A 
ATOM      8  C   UNL     1       1.004  13.308  18.569  0.00  0.00    +0.000 A 
ATOM      9 CL   UNL     1       2.032  14.687  18.541  0.00  0.00    +0.000 Cl
ATOM     10  C   UNL     1       1.535  12.053  18.856  0.00  0.00    +0.000 A 
ATOM     11  C   UNL     1       0.714  10.919  18.901  0.00  0.00    +0.000 A 
BRANCH   5  13
ATOM     12  C   UNL     1      -2.592   9.957  17.741  0.00  0.00    +0.000 C 
ATOM     13  O   UNL     1      -1.411   9.904  18.545  0.00  0.00    +0.000 OA
ENDBRANCH   5  13
ENDBRANCH   1  11
BRANCH   2  14
ATOM     14  C   UNL     1       2.279   7.423  19.051  0.00  0.00    +0.000 C 
BRANCH  14  15
ATOM     15  N   UNL     1       2.875   6.490  18.103  0.00  0.00    +0.000 N 
ATOM     16  C   UNL     1       4.281   6.637  17.682  0.00  0.00    +0.000 C 
ATOM     17  C   UNL     1       4.638   5.371  16.879  0.00  0.00    +0.000 C 
ATOM     18  C   UNL     1       3.604   4.419  17.390  0.00  0.00    +0.000 A 
ATOM     19  C   UNL     1       3.526   3.051  17.186  0.00  0.00    +0.000 A 
ATOM     20  C   UNL     1       2.436   2.372  17.726  0.00  0.00    +0.000 A 
ATOM     21  C   UNL     1       1.452   3.066  18.446  0.00  0.00    +0.000 A 
ATOM     22  C   UNL     1       1.539   4.448  18.627  0.00  0.00    +0.000 A 
ATOM     23  C   UNL     1       2.625   5.123  18.100  0.00  0.00    +0.000 A 
ENDBRANCH  14  15
ENDBRANCH   2  14
TORSDOF 4
ENDMDL
MODEL 2
REMARK VINA RESULT:      -7.0      3.684      7.911
REMARK  Name = 
REMARK  5 active torsions:
REMARK  status: ('A' for Active; 'I' for Inactive)
REMARK    1  A    between atoms: C_1  and  O_2
REMARK    2  A    between atoms: O_2  and  C_3
REMARK    3  A    between atoms: C_9  and  N_10
REMARK    4  A    between atoms: C_11  and  C_13
REMARK    5  A    between atoms: C_13  and  N_14
REMARK                            x       y       z     vdW  Elec       q    Type
REMARK                         _______ _______ _______ _____ _____    ______ ____
ROOT
ATOM      1  N   UNL     1       4.341   5.963  18.635  0.00  0.00    +0.000 N 
ATOM      2  C   UNL     1       3.023   5.562  18.805  0.00  0.00    +0.000 C 
ATOM      3  O   UNL     1       2.479   4.626  18.217  0.00  0.00    +0.000 OA
ATOM      4  H   UNL     1       4.749   6.569  19.341  0.00  0.00    +0.000 HD
ENDROOT
BRANCH   1  11
ATOM      5  C   UNL     1       6.555   5.039  18.145  0.00  0.00    +0.000 A 
ATOM      6  C   UNL     1       7.434   4.403  17.252  0.00  0.00    +0.000 A 
ATOM      7  C   UNL     1       7.064   4.184  15.925  0.00  0.00    +0.000 A 
ATOM      8  C   UNL     1       5.822   4.613  15.479  0.00  0.00    +0.000 A 
ATOM      9 CL   UNL     1       5.379   4.379  13.833  0.00  0.00    +0.000 Cl
ATOM     10  C   UNL     1       4.932   5.225  16.357  0.00  0.00    +0.000 A 
ATOM     11  C   UNL     1       5.264   5.410  17.705  0.00  0.00    +0.000 A 
BRANCH   5  13
ATOM     12  C   UNL     1       8.179   5.855  19.677  0.00  0.00    +0.000 C 
ATOM     13  O   UNL     1       6.875   5.312  19.456  0.00  0.00    +0.000 OA
ENDBRANCH   5  13
ENDBRANCH   1  11
BRANCH   2  14
ATOM     14  C   UNL     1       2.223   6.364  19.835  0.00  0.00    +0.000 C 
BRANCH  14  15
ATOM     15  N   UNL     1       2.081   7.773  19.487  0.00  0.00    +0.000 N 
ATOM     16  C   UNL     1       1.975   8.196  18.078  0.00  0.00    +0.000 C 
ATOM     17  C   UNL     1       1.605   9.692  18.090  0.00  0.00    +0.000 C 
ATOM     18  C   UNL     1       1.008   9.817  19.457  0.00  0.00    +0.000 A 
ATOM     19  C   UNL     1       0.311  10.888  19.990  0.00  0.00    +0.000 A 
ATOM     20  C   UNL     1      -0.113  10.797  21.315  0.00  0.00    +0.000 A 
ATOM     21  C   UNL     1       0.171   9.653  22.074  0.00  0.00    +0.000 A 
ATOM     22  C   UNL     1       0.891   8.589  21.524  0.00  0.00    +0.000 A 
ATOM     23  C   UNL     1       1.304   8.674  20.207  0.00  0.00    +0.000 A 
ENDBRANCH  14  15
ENDBRANCH   2  14
TORSDOF 4
ENDMDL
MODEL 3
REMARK VINA RESULT:      -7.0      3.113      7.899
REMARK  Name = 
REMARK  5 active torsions:
REMARK  status: ('A' for Active; 'I' for Inactive)
REMARK    1  A    between atoms: C_1  and  O_2
REMARK    2  A    between atoms: O_2  and  C_3
REMARK    3  A    between atoms: C_9  and  N_10
REMARK    4  A    between atoms: C_11  and  C_13
REMARK    5  A    between atoms: C_13  and  N_14
REMARK                            x       y       z     vdW  Elec       q    Type
REMARK                         _______ _______ _______ _____ _____    ______ ____
ROOT
ATOM      1  N   UNL     1       2.490   7.103  17.793  0.00  0.00    +0.000 N 
ATOM      2  C   UNL     1       2.073   8.027  18.741  0.00  0.00    +0.000 C 
ATOM      3  O   UNL     1       1.986   7.821  19.952  0.00  0.00    +0.000 OA
ATOM      4  H   UNL     1       2.761   7.450  16.877  0.00  0.00    +0.000 HD
ENDROOT
BRANCH   1  11
ATOM      5  C   UNL     1       4.178   5.369  18.164  0.00  0.00    +0.000 A 
ATOM      6  C   UNL     1       4.504   4.047  18.514  0.00  0.00    +0.000 A 
ATOM      7  C   UNL     1       3.503   3.092  18.692  0.00  0.00    +0.000 A 
ATOM      8  C   UNL     1       2.174   3.447  18.508  0.00  0.00    +0.000 A 
ATOM      9 CL   UNL     1       0.940   2.262  18.689  0.00  0.00    +0.000 Cl
ATOM     10  C   UNL     1       1.834   4.758  18.184  0.00  0.00    +0.000 A 
ATOM     11  C   UNL     1       2.820   5.744  18.048  0.00  0.00    +0.000 A 
BRANCH   5  13
ATOM     12  C   UNL     1       6.460   5.885  17.744  0.00  0.00    +0.000 C 
ATOM     13  O   UNL     1       5.122   6.347  17.943  0.00  0.00    +0.000 OA
ENDBRANCH   5  13
ENDBRANCH   1  11
BRANCH   2  14
ATOM     14  C   UNL     1       1.721   9.413  18.191  0.00  0.00    +0.000 C 
BRANCH  14  15
ATOM     15  N   UNL     1       0.673  10.087  18.948  0.00  0.00    +0.000 N 
ATOM     16  C   UNL     1       0.995  11.212  19.846  0.00  0.00    +0.000 C 
ATOM     17  C   UNL     1      -0.348  11.824  20.290  0.00  0.00    +0.000 C 
ATOM     18  C   UNL     1      -1.243  11.352  19.188  0.00  0.00    +0.000 A 
ATOM     19  C   UNL     1      -2.545  11.740  18.921  0.00  0.00    +0.000 A 
ATOM     20  C   UNL     1      -3.205  11.123  17.859  0.00  0.00    +0.000 A 
ATOM     21  C   UNL     1      -2.560  10.136  17.100  0.00  0.00    +0.000 A 
ATOM     22  C   UNL     1      -1.251   9.745  17.396  0.00  0.00    +0.000 A 
ATOM     23  C   UNL     1      -0.592  10.363  18.443  0.00  0.00    +0.000 A 
ENDBRANCH  14  15
ENDBRANCH   2  14
TORSDOF 4
ENDMDL
MODEL 4
REMARK VINA RESULT:      -7.0      2.147      2.702
REMARK  Name = 
REMARK  5 active torsions:
REMARK  status: ('A' for Active; 'I' for Inactive)
REMARK    1  A    between atoms: C_1  and  O_2
REMARK    2  A    between atoms: O_2  and  C_3
REMARK    3  A    between atoms: C_9  and  N_10
REMARK    4  A    between atoms: C_11  and  C_13
REMARK    5  A    between atoms: C_13  and  N_14
REMARK                            x       y       z     vdW  Elec       q    Type
REMARK                         _______ _______ _______ _____ _____    ______ ____
ROOT
ATOM      1  N   UNL     1       1.524   8.696  19.640  0.00  0.00    +0.000 N 
ATOM      2  C   UNL     1       2.253   8.287  18.532  0.00  0.00    +0.000 C 
ATOM      3  O   UNL     1       2.146   8.748  17.395  0.00  0.00    +0.000 OA
ATOM      4  H   UNL     1       1.865   8.432  20.559  0.00  0.00    +0.000 HD
ENDROOT
BRANCH   1  11
ATOM      5  C   UNL     1       0.205  10.392  20.815  0.00  0.00    +0.000 A 
ATOM      6  C   UNL     1      -0.757  11.415  20.788  0.00  0.00    +0.000 A 
ATOM      7  C   UNL     1      -1.479  11.681  19.624  0.00  0.00    +0.000 A 
ATOM      8  C   UNL     1      -1.255  10.916  18.488  0.00  0.00    +0.000 A 
ATOM      9 CL   UNL     1      -2.171  11.216  17.062  0.00  0.00    +0.000 Cl
ATOM     10  C   UNL     1      -0.289   9.914  18.493  0.00  0.00    +0.000 A 
ATOM     11  C   UNL     1       0.481   9.663  19.636  0.00  0.00    +0.000 A 
BRANCH   5  13
ATOM     12  C   UNL     1       0.164   9.543  23.035  0.00  0.00    +0.000 C 
ATOM     13  O   UNL     1       0.925  10.061  21.942  0.00  0.00    +0.000 OA
ENDBRANCH   5  13
ENDBRANCH   1  11
BRANCH   2  14
ATOM     14  C   UNL     1       3.282   7.184  18.798  0.00  0.00    +0.000 C 
BRANCH  14  15
ATOM     15  N   UNL     1       2.903   5.892  18.240  0.00  0.00    +0.000 N 
ATOM     16  C   UNL     1       3.762   5.217  17.249  0.00  0.00    +0.000 C 
ATOM     17  C   UNL     1       3.190   3.798  17.059  0.00  0.00    +0.000 C 
ATOM     18  C   UNL     1       2.429   3.635  18.337  0.00  0.00    +0.000 A 
ATOM     19  C   UNL     1       1.849   2.484  18.845  0.00  0.00    +0.000 A 
ATOM     20  C   UNL     1       1.142   2.583  20.042  0.00  0.00    +0.000 A 
ATOM     21  C   UNL     1       1.023   3.818  20.697  0.00  0.00    +0.000 A 
ATOM     22  C   UNL     1       1.601   4.971  20.160  0.00  0.00    +0.000 A 
ATOM     23  C   UNL     1       2.311   4.873  18.977  0.00  0.00    +0.000 A 
ENDBRANCH  14  15
ENDBRANCH   2  14
TORSDOF 4
ENDMDL
MODEL 5
REMARK VINA RESULT:      -7.0      1.882      2.537
REMARK  Name = 
REMARK  5 active torsions:
REMARK  status: ('A' for Active; 'I' for Inactive)
REMARK    1  A    between atoms: C_1  and  O_2
REMARK    2  A    between atoms: O_2  and  C_3
REMARK    3  A    between atoms: C_9  and  N_10
REMARK    4  A    between atoms: C_11  and  C_13
REMARK    5  A    between atoms: C_13  and  N_14
REMARK                            x       y       z     vdW  Elec       q    Type
REMARK                         _______ _______ _______ _____ _____    ______ ____
ROOT
ATOM      1  N   UNL     1       0.998   9.190  19.409  0.00  0.00    +0.000 N 
ATOM      2  C   UNL     1       1.896   8.500  18.606  0.00  0.00    +0.000 C 
ATOM      3  O   UNL     1       2.152   8.763  17.430  0.00  0.00    +0.000 OA
ATOM      4  H   UNL     1       1.052   9.050  20.414  0.00  0.00    +0.000 HD
ENDROOT
BRANCH   1  11
ATOM      5  C   UNL     1       0.428  11.570  19.481  0.00  0.00    +0.000 A 
ATOM      6  C   UNL     1      -0.324  12.653  18.995  0.00  0.00    +0.000 A 
ATOM      7  C   UNL     1      -1.355  12.449  18.079  0.00  0.00    +0.000 A 
ATOM      8  C   UNL     1      -1.651  11.161  17.655  0.00  0.00    +0.000 A 
ATOM      9 CL   UNL     1      -2.947  10.901  16.554  0.00  0.00    +0.000 Cl
ATOM     10  C   UNL     1      -0.900  10.080  18.109  0.00  0.00    +0.000 A 
ATOM     11  C   UNL     1       0.171  10.269  18.992  0.00  0.00    +0.000 A 
BRANCH   5  13
ATOM     12  C   UNL     1       1.964  13.024  20.566  0.00  0.00    +0.000 C 
ATOM     13  O   UNL     1       1.436  11.705  20.410  0.00  0.00    +0.000 OA
ENDBRANCH   5  13
ENDBRANCH   1  11
BRANCH   2  14
ATOM     14  C   UNL     1       2.621   7.336  19.288  0.00  0.00    +0.000 C 
BRANCH  14  15
ATOM     15  N   UNL     1       2.690   6.135  18.464  0.00  0.00    +0.000 N 
ATOM     16  C   UNL     1       3.870   5.865  17.621  0.00  0.00    +0.000 C 
ATOM     17  C   UNL     1       3.713   4.429  17.085  0.00  0.00    +0.000 C 
ATOM     18  C   UNL     1       2.773   3.857  18.099  0.00  0.00    +0.000 A 
ATOM     19  C   UNL     1       2.403   2.534  18.269  0.00  0.00    +0.000 A 
ATOM     20  C   UNL     1       1.467   2.241  19.259  0.00  0.00    +0.000 A 
ATOM     21  C   UNL     1       0.920   3.265  20.046  0.00  0.00    +0.000 A 
ATOM     22  C   UNL     1       1.294   4.597  19.847  0.00  0.00    +0.000 A 
ATOM     23  C   UNL     1       2.230   4.889  18.872  0.00  0.00    +0.000 A 
ENDBRANCH  14  15
ENDBRANCH   2  14
TORSDOF 4
ENDMDL
MODEL 6
REMARK VINA RESULT:      -6.9      2.794      4.094
REMARK  Name = 
REMARK  5 active torsions:
REMARK  status: ('A' for Active; 'I' for Inactive)
REMARK    1  A    between atoms: C_1  and  O_2
REMARK    2  A    between atoms: O_2  and  C_3
REMARK    3  A    between atoms: C_9  and  N_10
REMARK    4  A    between atoms: C_11  and  C_13
REMARK    5  A    between atoms: C_13  and  N_14
REMARK                            x       y       z     vdW  Elec       q    Type
REMARK                         _______ _______ _______ _____ _____    ______ ____
ROOT
ATOM      1  N   UNL     1       2.126   6.657  20.917  0.00  0.00    +0.000 N 
ATOM      2  C   UNL     1       1.588   5.387  20.757  0.00  0.00    +0.000 C 
ATOM      3  O   UNL     1       0.417   5.137  20.471  0.00  0.00    +0.000 OA
ATOM      4  H   UNL     1       3.137   6.751  20.902  0.00  0.00    +0.000 HD
ENDROOT
BRANCH   1  11
ATOM      5  C   UNL     1       1.385   8.608  19.637  0.00  0.00    +0.000 A 
ATOM      6  C   UNL     1       0.592   9.764  19.537  0.00  0.00    +0.000 A 
ATOM      7  C   UNL     1      -0.133  10.226  20.635  0.00  0.00    +0.000 A 
ATOM      8  C   UNL     1      -0.057   9.547  21.843  0.00  0.00    +0.000 A 
ATOM      9 CL   UNL     1      -0.919  10.137  23.210  0.00  0.00    +0.000 Cl
ATOM     10  C   UNL     1       0.706   8.388  21.952  0.00  0.00    +0.000 A 
ATOM     11  C   UNL     1       1.402   7.879  20.848  0.00  0.00    +0.000 A 
BRANCH   5  13
ATOM     12  C   UNL     1       2.381   9.031  17.521  0.00  0.00    +0.000 C 
ATOM     13  O   UNL     1       2.148   8.121  18.599  0.00  0.00    +0.000 OA
ENDBRANCH   5  13
ENDBRANCH   1  11
BRANCH   2  14
ATOM     14  C   UNL     1       2.577   4.232  20.940  0.00  0.00    +0.000 C 
BRANCH  14  15
ATOM     15  N   UNL     1       3.020   3.644  19.682  0.00  0.00    +0.000 N 
ATOM     16  C   UNL     1       2.095   2.845  18.855  0.00  0.00    +0.000 C 
ATOM     17  C   UNL     1       2.810   2.586  17.515  0.00  0.00    +0.000 C 
ATOM     18  C   UNL     1       3.804   3.705  17.512  0.00  0.00    +0.000 A 
ATOM     19  C   UNL     1       4.616   4.123  16.471  0.00  0.00    +0.000 A 
ATOM     20  C   UNL     1       5.507   5.166  16.717  0.00  0.00    +0.000 A 
ATOM     21  C   UNL     1       5.574   5.759  17.987  0.00  0.00    +0.000 A 
ATOM     22  C   UNL     1       4.759   5.311  19.029  0.00  0.00    +0.000 A 
ATOM     23  C   UNL     1       3.867   4.282  18.784  0.00  0.00    +0.000 A 
ENDBRANCH  14  15
ENDBRANCH   2  14
TORSDOF 4
ENDMDL
MODEL 7
REMARK VINA RESULT:      -6.8      5.189      8.194
REMARK  Name = 
REMARK  5 active torsions:
REMARK  status: ('A' for Active; 'I' for Inactive)
REMARK    1  A    between atoms: C_1  and  O_2
REMARK    2  A    between atoms: O_2  and  C_3
REMARK    3  A    between atoms: C_9  and  N_10
REMARK    4  A    between atoms: C_11  and  C_13
REMARK    5  A    between atoms: C_13  and  N_14
REMARK                            x       y       z     vdW  Elec       q    Type
REMARK                         _______ _______ _______ _____ _____    ______ ____
ROOT
ATOM      1  N   UNL     1       5.887   3.682  16.836  0.00  0.00    +0.000 N 
ATOM      2  C   UNL     1       4.601   3.586  17.351  0.00  0.00    +0.000 C 
ATOM      3  O   UNL     1       3.560   3.730  16.708  0.00  0.00    +0.000 OA
ATOM      4  H   UNL     1       6.650   3.302  17.387  0.00  0.00    +0.000 HD
ENDROOT
BRANCH   1  11
ATOM      5  C   UNL     1       7.057   5.147  15.261  0.00  0.00    +0.000 A 
ATOM      6  C   UNL     1       7.468   5.437  13.949  0.00  0.00    +0.000 A 
ATOM      7  C   UNL     1       7.015   4.669  12.876  0.00  0.00    +0.000 A 
ATOM      8  C   UNL     1       6.138   3.619  13.106  0.00  0.00    +0.000 A 
ATOM      9 CL   UNL     1       5.547   2.694  11.781  0.00  0.00    +0.000 Cl
ATOM     10  C   UNL     1       5.739   3.305  14.402  0.00  0.00    +0.000 A 
ATOM     11  C   UNL     1       6.221   4.033  15.498  0.00  0.00    +0.000 A 
BRANCH   5  13
ATOM     12  C   UNL     1       6.475   6.816  16.851  0.00  0.00    +0.000 C 
ATOM     13  O   UNL     1       7.444   5.888  16.356  0.00  0.00    +0.000 OA
ENDBRANCH   5  13
ENDBRANCH   1  11
BRANCH   2  14
ATOM     14  C   UNL     1       4.519   3.250  18.842  0.00  0.00    +0.000 C 
BRANCH  14  15
ATOM     15  N   UNL     1       3.252   3.634  19.453  0.00  0.00    +0.000 N 
ATOM     16  C   UNL     1       2.695   2.865  20.582  0.00  0.00    +0.000 C 
ATOM     17  C   UNL     1       1.498   3.672  21.121  0.00  0.00    +0.000 C 
ATOM     18  C   UNL     1       1.838   5.039  20.617  0.00  0.00    +0.000 A 
ATOM     19  C   UNL     1       1.236   6.244  20.943  0.00  0.00    +0.000 A 
ATOM     20  C   UNL     1       1.695   7.395  20.306  0.00  0.00    +0.000 A 
ATOM     21  C   UNL     1       2.730   7.321  19.362  0.00  0.00    +0.000 A 
ATOM     22  C   UNL     1       3.313   6.094  19.034  0.00  0.00    +0.000 A 
ATOM     23  C   UNL     1       2.865   4.951  19.672  0.00  0.00    +0.000 A 
ENDBRANCH  14  15
ENDBRANCH   2  14
TORSDOF 4
ENDMDL
MODEL 8
REMARK VINA RESULT:      -6.8      3.650      8.023
REMARK  Name = 
REMARK  5 active torsions:
REMARK  status: ('A' for Active; 'I' for Inactive)
REMARK    1  A    between atoms: C_1  and  O_2
REMARK    2  A    between atoms: O_2  and  C_3
REMARK    3  A    between atoms: C_9  and  N_10
REMARK    4  A    between atoms: C_11  and  C_13
REMARK    5  A    between atoms: C_13  and  N_14
REMARK                            x       y       z     vdW  Elec       q    Type
REMARK                         _______ _______ _______ _____ _____    ______ ____
ROOT
ATOM      1  N   UNL     1       3.963   5.616  18.283  0.00  0.00    +0.000 N 
ATOM      2  C   UNL     1       3.382   6.877  18.272  0.00  0.00    +0.000 C 
ATOM      3  O   UNL     1       3.668   7.791  17.497  0.00  0.00    +0.000 OA
ATOM      4  H   UNL     1       3.483   4.875  18.785  0.00  0.00    +0.000 HD
ENDROOT
BRANCH   1  11
ATOM      5  C   UNL     1       6.337   5.095  17.990  0.00  0.00    +0.000 A 
ATOM      6  C   UNL     1       7.378   4.580  17.199  0.00  0.00    +0.000 A 
ATOM      7  C   UNL     1       7.149   4.215  15.873  0.00  0.00    +0.000 A 
ATOM      8  C   UNL     1       5.884   4.375  15.325  0.00  0.00    +0.000 A 
ATOM      9 CL   UNL     1       5.608   3.962  13.678  0.00  0.00    +0.000 Cl
ATOM     10  C   UNL     1       4.837   4.863  16.103  0.00  0.00    +0.000 A 
ATOM     11  C   UNL     1       5.034   5.189  17.451  0.00  0.00    +0.000 A 
BRANCH   5  13
ATOM     12  C   UNL     1       7.854   5.792  19.682  0.00  0.00    +0.000 C 
ATOM     13  O   UNL     1       6.509   5.503  19.295  0.00  0.00    +0.000 OA
ENDBRANCH   5  13
ENDBRANCH   1  11
BRANCH   2  14
ATOM     14  C   UNL     1       2.281   7.098  19.314  0.00  0.00    +0.000 C 
BRANCH  14  15
ATOM     15  N   UNL     1       1.783   8.467  19.348  0.00  0.00    +0.000 N 
ATOM     16  C   UNL     1       1.185   9.083  18.149  0.00  0.00    +0.000 C 
ATOM     17  C   UNL     1       0.563  10.420  18.599  0.00  0.00    +0.000 C 
ATOM     18  C   UNL     1       0.389  10.163  20.063  0.00  0.00    +0.000 A 
ATOM     19  C   UNL     1      -0.306  10.927  20.986  0.00  0.00    +0.000 A 
ATOM     20  C   UNL     1      -0.291  10.512  22.317  0.00  0.00    +0.000 A 
ATOM     21  C   UNL     1       0.414   9.361  22.695  0.00  0.00    +0.000 A 
ATOM     22  C   UNL     1       1.123   8.613  21.751  0.00  0.00    +0.000 A 
ATOM     23  C   UNL     1       1.102   9.017  20.429  0.00  0.00    +0.000 A 
ENDBRANCH  14  15
ENDBRANCH   2  14
TORSDOF 4
ENDMDL
MODEL 9
REMARK VINA RESULT:      -6.7      3.721      8.064
REMARK  Name = 
REMARK  5 active torsions:
REMARK  status: ('A' for Active; 'I' for Inactive)
REMARK    1  A    between atoms: C_1  and  O_2
REMARK    2  A    between atoms: O_2  and  C_3
REMARK    3  A    between atoms: C_9  and  N_10
REMARK    4  A    between atoms: C_11  and  C_13
REMARK    5  A    between atoms: C_13  and  N_14
REMARK                            x       y       z     vdW  Elec       q    Type
REMARK                         _______ _______ _______ _____ _____    ______ ____
ROOT
ATOM      1  N   UNL     1       2.023   7.693  20.769  0.00  0.00    +0.000 N 
ATOM      2  C   UNL     1       0.930   8.345  21.326  0.00  0.00    +0.000 C 
ATOM      3  O   UNL     1      -0.208   7.884  21.415  0.00  0.00    +0.000 OA
ATOM      4  H   UNL     1       2.949   8.056  20.974  0.00  0.00    +0.000 HD
ENDROOT
BRANCH   1  11
ATOM      5  C   UNL     1       2.352   6.302  18.781  0.00  0.00    +0.000 A 
ATOM      6  C   UNL     1       2.423   5.030  18.188  0.00  0.00    +0.000 A 
ATOM      7  C   UNL     1       2.093   3.887  18.916  0.00  0.00    +0.000 A 
ATOM      8  C   UNL     1       1.677   4.009  20.234  0.00  0.00    +0.000 A 
ATOM      9 CL   UNL     1       1.233   2.605  21.123  0.00  0.00    +0.000 Cl
ATOM     10  C   UNL     1       1.623   5.260  20.843  0.00  0.00    +0.000 A 
ATOM     11  C   UNL     1       1.997   6.416  20.145  0.00  0.00    +0.000 A 
BRANCH   5  13
ATOM     12  C   UNL     1       3.862   7.482  17.374  0.00  0.00    +0.000 C 
ATOM     13  O   UNL     1       2.633   7.469  18.105  0.00  0.00    +0.000 OA
ENDBRANCH   5  13
ENDBRANCH   1  11
BRANCH   2  14
ATOM     14  C   UNL     1       1.218   9.742  21.882  0.00  0.00    +0.000 C 
BRANCH  14  15
ATOM     15  N   UNL     1       0.481  10.800  21.201  0.00  0.00    +0.000 N 
ATOM     16  C   UNL     1       0.396  10.833  19.729  0.00  0.00    +0.000 C 
ATOM     17  C   UNL     1      -0.633  11.922  19.368  0.00  0.00    +0.000 C 
ATOM     18  C   UNL     1      -1.411  12.000  20.644  0.00  0.00    +0.000 A 
ATOM     19  C   UNL     1      -2.600  12.669  20.879  0.00  0.00    +0.000 A 
ATOM     20  C   UNL     1      -3.120  12.640  22.172  0.00  0.00    +0.000 A 
ATOM     21  C   UNL     1      -2.445  11.957  23.194  0.00  0.00    +0.000 A 
ATOM     22  C   UNL     1      -1.237  11.301  22.941  0.00  0.00    +0.000 A 
ATOM     23  C   UNL     1      -0.724  11.321  21.656  0.00  0.00    +0.000 A 
ENDBRANCH  14  15
ENDBRANCH   2  14
TORSDOF 4
ENDMDL
