MODEL 1
REMARK VINA RESULT:      -8.4      0.000      0.000
REMARK  Name = 
REMARK  6 active torsions:
REMARK  status: ('A' for Active; 'I' for Inactive)
REMARK    1  A    between atoms: C_1  and  C_2
REMARK    2  A    between atoms: C_2  and  C_3
REMARK    3  A    between atoms: C_3  and  C_4
REMARK    4  A    between atoms: C_4  and  C_5
REMARK    5  A    between atoms: C_5  and  C_6
REMARK    6  A    between atoms: C_9  and  C_10
REMARK                            x       y       z     vdW  Elec       q    Type
REMARK                         _______ _______ _______ _____ _____    ______ ____
ROOT
ATOM      1  C   UNL     1       5.695   4.381  15.804  0.00  0.00    +0.000 A 
ATOM      2  C   UNL     1       4.417   3.805  15.745  0.00  0.00    +0.000 A 
ATOM      3  C   UNL     1       3.612   3.732  16.871  0.00  0.00    +0.000 A 
ATOM      4  C   UNL     1       4.066   4.203  18.112  0.00  0.00    +0.000 A 
ATOM      5  C   UNL     1       5.379   4.752  18.219  0.00  0.00    +0.000 A 
ATOM      6  C   UNL     1       5.914   5.220  19.446  0.00  0.00    +0.000 A 
ATOM      7  C   UNL     1       7.204   5.739  19.553  0.00  0.00    +0.000 A 
ATOM      8  C   UNL     1       8.001   5.818  18.428  0.00  0.00    +0.000 A 
ATOM      9  C   UNL     1       7.504   5.379  17.201  0.00  0.00    +0.000 A 
ATOM     10  C   UNL     1       6.202   4.839  17.053  0.00  0.00    +0.000 A 
ENDROOT
BRANCH   4  11
ATOM     11  C   UNL     1       3.097   4.144  19.288  0.00  0.00    +0.000 C 
ATOM     12  C   UNL     1       1.653   3.981  18.796  0.00  0.00    +0.000 C 
ATOM     13  C   UNL     1       0.756   3.745  19.969  0.00  0.00    +0.000 C 
ATOM     14  C   UNL     1       1.239   3.216  21.100  0.00  0.00    +0.000 C 
ATOM     15  C   UNL     1       2.638   2.760  21.209  0.00  0.00    +0.000 C 
ATOM     16  O   UNL     1       3.004   2.104  22.171  0.00  0.00    +0.000 OA
ATOM     17  O   UNL     1       3.460   3.060  20.173  0.00  0.00    +0.000 OA
ENDBRANCH   4  11
BRANCH   1  18
ATOM     18  C   UNL     1       6.458   4.458  14.492  0.00  0.00    +0.000 C 
BRANCH  18  19
ATOM     19  C   UNL     1       5.582   4.092  13.286  0.00  0.00    +0.000 C 
BRANCH  19  20
ATOM     20  C   UNL     1       6.326   3.166  12.326  0.00  0.00    +0.000 C 
BRANCH  20  22
ATOM     21  C   UNL     1       4.046   3.179  11.268  0.00  0.00    +0.000 C 
ATOM     22  C   UNL     1       5.352   2.417  11.420  0.00  0.00    +0.000 C 
ENDBRANCH  20  22
ENDBRANCH  19  20
ENDBRANCH  18  19
ENDBRANCH   1  18
TORSDOF 5
ENDMDL
MODEL 2
REMARK VINA RESULT:      -8.2      3.380      4.569
REMARK  Name = 
REMARK  6 active torsions:
REMARK  status: ('A' for Active; 'I' for Inactive)
REMARK    1  A    between atoms: C_1  and  C_2
REMARK    2  A    between atoms: C_2  and  C_3
REMARK    3  A    between atoms: C_3  and  C_4
REMARK    4  A    between atoms: C_4  and  C_5
REMARK    5  A    between atoms: C_5  and  C_6
REMARK    6  A    between atoms: C_9  and  C_10
REMARK                            x       y       z     vdW  Elec       q    Type
REMARK                         _______ _______ _______ _____ _____    ______ ____
ROOT
ATOM      1  C   UNL     1       5.087   4.925  16.825  0.00  0.00    +0.000 A 
ATOM      2  C   UNL     1       5.192   6.324  16.857  0.00  0.00    +0.000 A 
ATOM      3  C   UNL     1       4.195   7.105  17.419  0.00  0.00    +0.000 A 
ATOM      4  C   UNL     1       3.033   6.521  17.943  0.00  0.00    +0.000 A 
ATOM      5  C   UNL     1       2.870   5.104  17.885  0.00  0.00    +0.000 A 
ATOM      6  C   UNL     1       1.710   4.447  18.369  0.00  0.00    +0.000 A 
ATOM      7  C   UNL     1       1.544   3.064  18.295  0.00  0.00    +0.000 A 
ATOM      8  C   UNL     1       2.543   2.288  17.742  0.00  0.00    +0.000 A 
ATOM      9  C   UNL     1       3.704   2.898  17.267  0.00  0.00    +0.000 A 
ATOM     10  C   UNL     1       3.907   4.299  17.318  0.00  0.00    +0.000 A 
ENDROOT
BRANCH   4  11
ATOM     11  C   UNL     1       2.011   7.443  18.600  0.00  0.00    +0.000 C 
ATOM     12  C   UNL     1       2.105   7.357  20.129  0.00  0.00    +0.000 C 
ATOM     13  C   UNL     1       1.223   8.400  20.737  0.00  0.00    +0.000 C 
ATOM     14  C   UNL     1       0.911   9.509  20.055  0.00  0.00    +0.000 C 
ATOM     15  C   UNL     1       1.490   9.794  18.728  0.00  0.00    +0.000 C 
ATOM     16  O   UNL     1       1.352  10.893  18.214  0.00  0.00    +0.000 OA
ATOM     17  O   UNL     1       2.215   8.803  18.153  0.00  0.00    +0.000 OA
ENDBRANCH   4  11
BRANCH   1  18
ATOM     18  C   UNL     1       6.271   4.175  16.239  0.00  0.00    +0.000 C 
BRANCH  18  19
ATOM     19  C   UNL     1       6.579   4.606  14.798  0.00  0.00    +0.000 C 
BRANCH  19  20
ATOM     20  C   UNL     1       5.456   4.195  13.849  0.00  0.00    +0.000 C 
BRANCH  20  22
ATOM     21  C   UNL     1       4.897   3.033  11.692  0.00  0.00    +0.000 C 
ATOM     22  C   UNL     1       6.015   3.523  12.596  0.00  0.00    +0.000 C 
ENDBRANCH  20  22
ENDBRANCH  19  20
ENDBRANCH  18  19
ENDBRANCH   1  18
TORSDOF 5
ENDMDL
MODEL 3
REMARK VINA RESULT:      -7.9      3.479      5.474
REMARK  Name = 
REMARK  6 active torsions:
REMARK  status: ('A' for Active; 'I' for Inactive)
REMARK    1  A    between atoms: C_1  and  C_2
REMARK    2  A    between atoms: C_2  and  C_3
REMARK    3  A    between atoms: C_3  and  C_4
REMARK    4  A    between atoms: C_4  and  C_5
REMARK    5  A    between atoms: C_5  and  C_6
REMARK    6  A    between atoms: C_9  and  C_10
REMARK                            x       y       z     vdW  Elec       q    Type
REMARK                         _______ _______ _______ _____ _____    ______ ____
ROOT
ATOM      1  C   UNL     1       4.812   5.316  16.689  0.00  0.00    +0.000 A 
ATOM      2  C   UNL     1       4.805   6.717  16.763  0.00  0.00    +0.000 A 
ATOM      3  C   UNL     1       3.810   7.392  17.453  0.00  0.00    +0.000 A 
ATOM      4  C   UNL     1       2.761   6.696  18.068  0.00  0.00    +0.000 A 
ATOM      5  C   UNL     1       2.709   5.273  17.972  0.00  0.00    +0.000 A 
ATOM      6  C   UNL     1       1.663   4.505  18.544  0.00  0.00    +0.000 A 
ATOM      7  C   UNL     1       1.604   3.116  18.433  0.00  0.00    +0.000 A 
ATOM      8  C   UNL     1       2.602   2.444  17.754  0.00  0.00    +0.000 A 
ATOM      9  C   UNL     1       3.653   3.165  17.189  0.00  0.00    +0.000 A 
ATOM     10  C   UNL     1       3.744   4.577  17.272  0.00  0.00    +0.000 A 
ENDROOT
BRANCH   4  11
ATOM     11  C   UNL     1       1.740   7.507  18.859  0.00  0.00    +0.000 C 
ATOM     12  C   UNL     1       2.032   7.431  20.363  0.00  0.00    +0.000 C 
ATOM     13  C   UNL     1       1.131   8.377  21.090  0.00  0.00    +0.000 C 
ATOM     14  C   UNL     1       0.624   9.448  20.467  0.00  0.00    +0.000 C 
ATOM     15  C   UNL     1       1.000   9.791  19.082  0.00  0.00    +0.000 C 
ATOM     16  O   UNL     1       0.686  10.870  18.603  0.00  0.00    +0.000 OA
ATOM     17  O   UNL     1       1.745   8.881  18.408  0.00  0.00    +0.000 OA
ENDBRANCH   4  11
BRANCH   1  18
ATOM     18  C   UNL     1       5.986   4.688  15.958  0.00  0.00    +0.000 C 
BRANCH  18  19
ATOM     19  C   UNL     1       7.256   4.647  16.820  0.00  0.00    +0.000 C 
BRANCH  19  20
ATOM     20  C   UNL     1       6.916   4.744  18.305  0.00  0.00    +0.000 C 
BRANCH  20  22
ATOM     21  C   UNL     1       7.908   7.053  18.270  0.00  0.00    +0.000 C 
ATOM     22  C   UNL     1       7.838   5.732  19.017  0.00  0.00    +0.000 C 
ENDBRANCH  20  22
ENDBRANCH  19  20
ENDBRANCH  18  19
ENDBRANCH   1  18
TORSDOF 5
ENDMDL
MODEL 4
REMARK VINA RESULT:      -7.8      3.326      7.151
REMARK  Name = 
REMARK  6 active torsions:
REMARK  status: ('A' for Active; 'I' for Inactive)
REMARK    1  A    between atoms: C_1  and  C_2
REMARK    2  A    between atoms: C_2  and  C_3
REMARK    3  A    between atoms: C_3  and  C_4
REMARK    4  A    between atoms: C_4  and  C_5
REMARK    5  A    between atoms: C_5  and  C_6
REMARK    6  A    between atoms: C_9  and  C_10
REMARK                            x       y       z     vdW  Elec       q    Type
REMARK                         _______ _______ _______ _____ _____    ______ ____
ROOT
ATOM      1  C   UNL     1       1.859   6.422  20.064  0.00  0.00    +0.000 A 
ATOM      2  C   UNL     1       2.670   7.258  19.283  0.00  0.00    +0.000 A 
ATOM      3  C   UNL     1       3.631   6.733  18.433  0.00  0.00    +0.000 A 
ATOM      4  C   UNL     1       3.844   5.350  18.354  0.00  0.00    +0.000 A 
ATOM      5  C   UNL     1       3.069   4.471  19.169  0.00  0.00    +0.000 A 
ATOM      6  C   UNL     1       3.249   3.064  19.163  0.00  0.00    +0.000 A 
ATOM      7  C   UNL     1       2.504   2.209  19.974  0.00  0.00    +0.000 A 
ATOM      8  C   UNL     1       1.542   2.733  20.814  0.00  0.00    +0.000 A 
ATOM      9  C   UNL     1       1.328   4.111  20.838  0.00  0.00    +0.000 A 
ATOM     10  C   UNL     1       2.069   5.014  20.035  0.00  0.00    +0.000 A 
ENDROOT
BRANCH   4  11
ATOM     11  C   UNL     1       4.876   4.849  17.349  0.00  0.00    +0.000 C 
ATOM     12  C   UNL     1       4.913   5.753  16.111  0.00  0.00    +0.000 C 
ATOM     13  C   UNL     1       6.053   5.343  15.234  0.00  0.00    +0.000 C 
ATOM     14  C   UNL     1       7.117   4.716  15.751  0.00  0.00    +0.000 C 
ATOM     15  C   UNL     1       7.255   4.487  17.202  0.00  0.00    +0.000 C 
ATOM     16  O   UNL     1       8.313   4.096  17.671  0.00  0.00    +0.000 OA
ATOM     17  O   UNL     1       6.179   4.783  17.972  0.00  0.00    +0.000 OA
ENDBRANCH   4  11
BRANCH   1  18
ATOM     18  C   UNL     1       0.802   7.111  20.910  0.00  0.00    +0.000 C 
BRANCH  18  19
ATOM     19  C   UNL     1       1.167   8.568  21.228  0.00  0.00    +0.000 C 
BRANCH  19  20
ATOM     20  C   UNL     1       0.087   9.527  20.733  0.00  0.00    +0.000 C 
BRANCH  20  22
ATOM     21  C   UNL     1      -0.385  10.235  18.368  0.00  0.00    +0.000 C 
ATOM     22  C   UNL     1       0.581  10.338  19.536  0.00  0.00    +0.000 C 
ENDBRANCH  20  22
ENDBRANCH  19  20
ENDBRANCH  18  19
ENDBRANCH   1  18
TORSDOF 5
ENDMDL
MODEL 5
REMARK VINA RESULT:      -7.8      3.594      7.651
REMARK  Name = 
REMARK  6 active torsions:
REMARK  status: ('A' for Active; 'I' for Inactive)
REMARK    1  A    between atoms: C_1  and  C_2
REMARK    2  A    between atoms: C_2  and  C_3
REMARK    3  A    between atoms: C_3  and  C_4
REMARK    4  A    between atoms: C_4  and  C_5
REMARK    5  A    between atoms: C_5  and  C_6
REMARK    6  A    between atoms: C_9  and  C_10
REMARK                            x       y       z     vdW  Elec       q    Type
REMARK                         _______ _______ _______ _____ _____    ______ ____
ROOT
ATOM      1  C   UNL     1       2.003   6.437  20.161  0.00  0.00    +0.000 A 
ATOM      2  C   UNL     1       2.545   7.251  19.154  0.00  0.00    +0.000 A 
ATOM      3  C   UNL     1       3.467   6.751  18.249  0.00  0.00    +0.000 A 
ATOM      4  C   UNL     1       3.912   5.424  18.333  0.00  0.00    +0.000 A 
ATOM      5  C   UNL     1       3.418   4.581  19.373  0.00  0.00    +0.000 A 
ATOM      6  C   UNL     1       3.845   3.238  19.537  0.00  0.00    +0.000 A 
ATOM      7  C   UNL     1       3.376   2.422  20.565  0.00  0.00    +0.000 A 
ATOM      8  C   UNL     1       2.450   2.919  21.461  0.00  0.00    +0.000 A 
ATOM      9  C   UNL     1       1.998   4.232  21.324  0.00  0.00    +0.000 A 
ATOM     10  C   UNL     1       2.456   5.095  20.298  0.00  0.00    +0.000 A 
ENDROOT
BRANCH   4  11
ATOM     11  C   UNL     1       4.880   4.933  17.261  0.00  0.00    +0.000 C 
ATOM     12  C   UNL     1       4.850   5.856  16.037  0.00  0.00    +0.000 C 
ATOM     13  C   UNL     1       5.934   5.453  15.088  0.00  0.00    +0.000 C 
ATOM     14  C   UNL     1       7.022   4.812  15.532  0.00  0.00    +0.000 C 
ATOM     15  C   UNL     1       7.244   4.560  16.968  0.00  0.00    +0.000 C 
ATOM     16  O   UNL     1       8.326   4.156  17.368  0.00  0.00    +0.000 OA
ATOM     17  O   UNL     1       6.217   4.850  17.805  0.00  0.00    +0.000 OA
ENDBRANCH   4  11
BRANCH   1  18
ATOM     18  C   UNL     1       0.957   7.082  21.054  0.00  0.00    +0.000 C 
BRANCH  18  19
ATOM     19  C   UNL     1       0.996   8.615  20.987  0.00  0.00    +0.000 C 
BRANCH  19  20
ATOM     20  C   UNL     1       0.154   9.236  22.098  0.00  0.00    +0.000 C 
BRANCH  20  22
ATOM     21  C   UNL     1      -1.024  11.322  22.860  0.00  0.00    +0.000 C 
ATOM     22  C   UNL     1      -0.015  10.739  21.884  0.00  0.00    +0.000 C 
ENDBRANCH  20  22
ENDBRANCH  19  20
ENDBRANCH  18  19
ENDBRANCH   1  18
TORSDOF 5
ENDMDL
MODEL 6
REMARK VINA RESULT:      -7.7      3.897      7.257
REMARK  Name = 
REMARK  6 active torsions:
REMARK  status: ('A' for Active; 'I' for Inactive)
REMARK    1  A    between atoms: C_1  and  C_2
REMARK    2  A    between atoms: C_2  and  C_3
REMARK    3  A    between atoms: C_3  and  C_4
REMARK    4  A    between atoms: C_4  and  C_5
REMARK    5  A    between atoms: C_5  and  C_6
REMARK    6  A    between atoms: C_9  and  C_10
REMARK                            x       y       z     vdW  Elec       q    Type
REMARK                         _______ _______ _______ _____ _____    ______ ____
ROOT
ATOM      1  C   UNL     1       3.399   6.715  17.817  0.00  0.00    +0.000 A 
ATOM      2  C   UNL     1       4.261   7.409  16.956  0.00  0.00    +0.000 A 
ATOM      3  C   UNL     1       5.088   6.732  16.073  0.00  0.00    +0.000 A 
ATOM      4  C   UNL     1       5.112   5.331  16.039  0.00  0.00    +0.000 A 
ATOM      5  C   UNL     1       4.282   4.591  16.935  0.00  0.00    +0.000 A 
ATOM      6  C   UNL     1       4.275   3.174  16.977  0.00  0.00    +0.000 A 
ATOM      7  C   UNL     1       3.478   2.453  17.866  0.00  0.00    +0.000 A 
ATOM      8  C   UNL     1       2.648   3.130  18.738  0.00  0.00    +0.000 A 
ATOM      9  C   UNL     1       2.620   4.524  18.717  0.00  0.00    +0.000 A 
ATOM     10  C   UNL     1       3.419   5.292  17.835  0.00  0.00    +0.000 A 
ENDROOT
BRANCH   4  11
ATOM     11  C   UNL     1       6.002   4.662  14.997  0.00  0.00    +0.000 C 
ATOM     12  C   UNL     1       5.158   4.053  13.870  0.00  0.00    +0.000 C 
ATOM     13  C   UNL     1       6.062   3.569  12.782  0.00  0.00    +0.000 C 
ATOM     14  C   UNL     1       7.276   4.109  12.617  0.00  0.00    +0.000 C 
ATOM     15  C   UNL     1       7.736   5.252  13.428  0.00  0.00    +0.000 C 
ATOM     16  O   UNL     1       8.757   5.853  13.132  0.00  0.00    +0.000 OA
ATOM     17  O   UNL     1       6.946   5.621  14.466  0.00  0.00    +0.000 OA
ENDBRANCH   4  11
BRANCH   1  18
ATOM     18  C   UNL     1       2.498   7.567  18.695  0.00  0.00    +0.000 C 
BRANCH  18  19
ATOM     19  C   UNL     1       1.556   8.458  17.873  0.00  0.00    +0.000 C 
BRANCH  19  20
ATOM     20  C   UNL     1       1.704   9.926  18.265  0.00  0.00    +0.000 C 
BRANCH  20  22
ATOM     21  C   UNL     1      -0.776  10.333  18.231  0.00  0.00    +0.000 C 
ATOM     22  C   UNL     1       0.494  10.406  19.063  0.00  0.00    +0.000 C 
ENDBRANCH  20  22
ENDBRANCH  19  20
ENDBRANCH  18  19
ENDBRANCH   1  18
TORSDOF 5
ENDMDL
MODEL 7
REMARK VINA RESULT:      -7.7      3.020      4.168
REMARK  Name = 
REMARK  6 active torsions:
REMARK  status: ('A' for Active; 'I' for Inactive)
REMARK    1  A    between atoms: C_1  and  C_2
REMARK    2  A    between atoms: C_2  and  C_3
REMARK    3  A    between atoms: C_3  and  C_4
REMARK    4  A    between atoms: C_4  and  C_5
REMARK    5  A    between atoms: C_5  and  C_6
REMARK    6  A    between atoms: C_9  and  C_10
REMARK                            x       y       z     vdW  Elec       q    Type
REMARK                         _______ _______ _______ _____ _____    ______ ____
ROOT
ATOM      1  C   UNL     1       4.916   4.654  16.462  0.00  0.00    +0.000 A 
ATOM      2  C   UNL     1       5.316   5.993  16.339  0.00  0.00    +0.000 A 
ATOM      3  C   UNL     1       4.617   7.010  16.968  0.00  0.00    +0.000 A 
ATOM      4  C   UNL     1       3.466   6.734  17.720  0.00  0.00    +0.000 A 
ATOM      5  C   UNL     1       3.002   5.389  17.827  0.00  0.00    +0.000 A 
ATOM      6  C   UNL     1       1.830   5.039  18.546  0.00  0.00    +0.000 A 
ATOM      7  C   UNL     1       1.368   3.726  18.635  0.00  0.00    +0.000 A 
ATOM      8  C   UNL     1       2.071   2.713  18.014  0.00  0.00    +0.000 A 
ATOM      9  C   UNL     1       3.235   3.018  17.308  0.00  0.00    +0.000 A 
ATOM     10  C   UNL     1       3.733   4.339  17.189  0.00  0.00    +0.000 A 
ENDROOT
BRANCH   4  11
ATOM     11  C   UNL     1       2.789   7.901  18.432  0.00  0.00    +0.000 C 
ATOM     12  C   UNL     1       1.662   8.484  17.571  0.00  0.00    +0.000 C 
ATOM     13  C   UNL     1       0.906   9.498  18.368  0.00  0.00    +0.000 C 
ATOM     14  C   UNL     1       0.887   9.436  19.705  0.00  0.00    +0.000 C 
ATOM     15  C   UNL     1       1.524   8.328  20.440  0.00  0.00    +0.000 C 
ATOM     16  O   UNL     1       1.328   8.183  21.637  0.00  0.00    +0.000 OA
ATOM     17  O   UNL     1       2.279   7.467  19.714  0.00  0.00    +0.000 OA
ENDBRANCH   4  11
BRANCH   1  18
ATOM     18  C   UNL     1       5.797   3.624  15.777  0.00  0.00    +0.000 C 
BRANCH  18  19
ATOM     19  C   UNL     1       6.552   4.208  14.574  0.00  0.00    +0.000 C 
BRANCH  19  20
ATOM     20  C   UNL     1       5.700   4.148  13.308  0.00  0.00    +0.000 C 
BRANCH  20  22
ATOM     21  C   UNL     1       5.152   2.534  11.461  0.00  0.00    +0.000 C 
ATOM     22  C   UNL     1       6.257   3.125  12.320  0.00  0.00    +0.000 C 
ENDBRANCH  20  22
ENDBRANCH  19  20
ENDBRANCH  18  19
ENDBRANCH   1  18
TORSDOF 5
ENDMDL
MODEL 8
REMARK VINA RESULT:      -7.7      2.696      6.557
REMARK  Name = 
REMARK  6 active torsions:
REMARK  status: ('A' for Active; 'I' for Inactive)
REMARK    1  A    between atoms: C_1  and  C_2
REMARK    2  A    between atoms: C_2  and  C_3
REMARK    3  A    between atoms: C_3  and  C_4
REMARK    4  A    between atoms: C_4  and  C_5
REMARK    5  A    between atoms: C_5  and  C_6
REMARK    6  A    between atoms: C_9  and  C_10
REMARK                            x       y       z     vdW  Elec       q    Type
REMARK                         _______ _______ _______ _____ _____    ______ ____
ROOT
ATOM      1  C   UNL     1       3.315   4.661  20.034  0.00  0.00    +0.000 A 
ATOM      2  C   UNL     1       4.134   3.679  19.456  0.00  0.00    +0.000 A 
ATOM      3  C   UNL     1       4.784   3.906  18.253  0.00  0.00    +0.000 A 
ATOM      4  C   UNL     1       4.614   5.112  17.560  0.00  0.00    +0.000 A 
ATOM      5  C   UNL     1       3.751   6.115  18.094  0.00  0.00    +0.000 A 
ATOM      6  C   UNL     1       3.509   7.347  17.434  0.00  0.00    +0.000 A 
ATOM      7  C   UNL     1       2.651   8.319  17.948  0.00  0.00    +0.000 A 
ATOM      8  C   UNL     1       2.012   8.094  19.151  0.00  0.00    +0.000 A 
ATOM      9  C   UNL     1       2.235   6.899  19.835  0.00  0.00    +0.000 A 
ATOM     10  C   UNL     1       3.093   5.885  19.343  0.00  0.00    +0.000 A 
ENDROOT
BRANCH   4  11
ATOM     11  C   UNL     1       5.412   5.309  16.275  0.00  0.00    +0.000 C 
ATOM     12  C   UNL     1       6.918   5.199  16.548  0.00  0.00    +0.000 C 
ATOM     13  C   UNL     1       7.657   5.214  15.248  0.00  0.00    +0.000 C 
ATOM     14  C   UNL     1       7.057   4.816  14.119  0.00  0.00    +0.000 C 
ATOM     15  C   UNL     1       5.689   4.263  14.120  0.00  0.00    +0.000 C 
ATOM     16  O   UNL     1       5.237   3.725  13.121  0.00  0.00    +0.000 OA
ATOM     17  O   UNL     1       5.001   4.337  15.285  0.00  0.00    +0.000 OA
ENDBRANCH   4  11
BRANCH   1  18
ATOM     18  C   UNL     1       2.706   4.319  21.383  0.00  0.00    +0.000 C 
BRANCH  18  19
ATOM     19  C   UNL     1       1.795   3.085  21.316  0.00  0.00    +0.000 C 
BRANCH  19  20
ATOM     20  C   UNL     1       0.600   3.332  20.399  0.00  0.00    +0.000 C 
BRANCH  20  22
ATOM     21  C   UNL     1       1.057   3.350  17.928  0.00  0.00    +0.000 C 
ATOM     22  C   UNL     1       0.699   2.491  19.129  0.00  0.00    +0.000 C 
ENDBRANCH  20  22
ENDBRANCH  19  20
ENDBRANCH  18  19
ENDBRANCH   1  18
TORSDOF 5
ENDMDL
MODEL 9
REMARK VINA RESULT:      -7.6      2.663      6.830
REMARK  Name = 
REMARK  6 active torsions:
REMARK  status: ('A' for Active; 'I' for Inactive)
REMARK    1  A    between atoms: C_1  and  C_2
REMARK    2  A    between atoms: C_2  and  C_3
REMARK    3  A    between atoms: C_3  and  C_4
REMARK    4  A    between atoms: C_4  and  C_5
REMARK    5  A    between atoms: C_5  and  C_6
REMARK    6  A    between atoms: C_9  and  C_10
REMARK                            x       y       z     vdW  Elec       q    Type
REMARK                         _______ _______ _______ _____ _____    ______ ____
ROOT
ATOM      1  C   UNL     1       3.789   4.445  17.997  0.00  0.00    +0.000 A 
ATOM      2  C   UNL     1       3.312   4.080  16.729  0.00  0.00    +0.000 A 
ATOM      3  C   UNL     1       4.170   3.961  15.648  0.00  0.00    +0.000 A 
ATOM      4  C   UNL     1       5.538   4.234  15.781  0.00  0.00    +0.000 A 
ATOM      5  C   UNL     1       6.052   4.654  17.045  0.00  0.00    +0.000 A 
ATOM      6  C   UNL     1       7.418   4.976  17.247  0.00  0.00    +0.000 A 
ATOM      7  C   UNL     1       7.915   5.404  18.478  0.00  0.00    +0.000 A 
ATOM      8  C   UNL     1       7.059   5.514  19.556  0.00  0.00    +0.000 A 
ATOM      9  C   UNL     1       5.711   5.194  19.398  0.00  0.00    +0.000 A 
ATOM     10  C   UNL     1       5.167   4.763  18.163  0.00  0.00    +0.000 A 
ENDROOT
BRANCH   4  11
ATOM     11  C   UNL     1       6.426   4.019  14.560  0.00  0.00    +0.000 C 
ATOM     12  C   UNL     1       5.589   3.593  13.348  0.00  0.00    +0.000 C 
ATOM     13  C   UNL     1       6.459   3.568  12.132  0.00  0.00    +0.000 C 
ATOM     14  C   UNL     1       7.560   4.326  12.067  0.00  0.00    +0.000 C 
ATOM     15  C   UNL     1       7.911   5.279  13.137  0.00  0.00    +0.000 C 
ATOM     16  O   UNL     1       8.802   6.098  12.972  0.00  0.00    +0.000 OA
ATOM     17  O   UNL     1       7.166   5.227  14.269  0.00  0.00    +0.000 OA
ENDBRANCH   4  11
BRANCH   1  18
ATOM     18  C   UNL     1       2.762   4.483  19.116  0.00  0.00    +0.000 C 
BRANCH  18  19
ATOM     19  C   UNL     1       1.450   3.788  18.727  0.00  0.00    +0.000 C 
BRANCH  19  20
ATOM     20  C   UNL     1       0.716   3.268  19.961  0.00  0.00    +0.000 C 
BRANCH  20  22
ATOM     21  C   UNL     1       2.099   2.332  21.839  0.00  0.00    +0.000 C 
ATOM     22  C   UNL     1       1.492   3.588  21.237  0.00  0.00    +0.000 C 
ENDBRANCH  20  22
ENDBRANCH  19  20
ENDBRANCH  18  19
ENDBRANCH   1  18
TORSDOF 5
ENDMDL
