MODEL 1
REMARK VINA RESULT:      -5.7      0.000      0.000
REMARK  Name = 
REMARK  4 active torsions:
REMARK  status: ('A' for Active; 'I' for Inactive)
REMARK    1  A    between atoms: C_1  and  O_2
REMARK    2  A    between atoms: O_2  and  C_3
REMARK    3  A    between atoms: C_8  and  C_9
REMARK    4  A    between atoms: N_10  and  C_11
REMARK                            x       y       z     vdW  Elec       q    Type
REMARK                         _______ _______ _______ _____ _____    ______ ____
ROOT
ATOM      1  C   UNL     1       5.219   4.633  15.951  0.00  0.00    +0.000 A 
ATOM      2  C   UNL     1       5.259   6.004  16.189  0.00  0.00    +0.000 A 
ATOM      3  C   UNL     1       4.478   6.589  17.186  0.00  0.00    +0.000 A 
ATOM      4  C   UNL     1       3.651   5.755  17.946  0.00  0.00    +0.000 A 
ATOM      5  S   UNL     1       2.595   6.194  19.228  0.00  0.00    +0.000 S 
ATOM      6  C   UNL     1       2.093   4.577  19.454  0.00  0.00    +0.000 A 
ATOM      7  C   UNL     1       1.103   4.226  20.505  0.00  0.00    +0.000 C 
ATOM      8  N   UNL     1       2.695   3.761  18.598  0.00  0.00    +0.000 N 
ATOM      9  C   UNL     1       2.453   2.323  18.558  0.00  0.00    +0.000 C 
ATOM     10  C   UNL     1       3.587   4.382  17.732  0.00  0.00    +0.000 A 
ATOM     11  C   UNL     1       4.382   3.805  16.720  0.00  0.00    +0.000 A 
ENDROOT
BRANCH   1  13
ATOM     12  C   UNL     1       6.901   4.777  14.276  0.00  0.00    +0.000 C 
ATOM     13  O   UNL     1       5.954   3.984  14.993  0.00  0.00    +0.000 OA
ENDBRANCH   1  13
TORSDOF 1
ENDMDL
MODEL 2
REMARK VINA RESULT:      -5.7      1.852      2.606
REMARK  Name = 
REMARK  4 active torsions:
REMARK  status: ('A' for Active; 'I' for Inactive)
REMARK    1  A    between atoms: C_1  and  O_2
REMARK    2  A    between atoms: O_2  and  C_3
REMARK    3  A    between atoms: C_8  and  C_9
REMARK    4  A    between atoms: N_10  and  C_11
REMARK                            x       y       z     vdW  Elec       q    Type
REMARK                         _______ _______ _______ _____ _____    ______ ____
ROOT
ATOM      1  C   UNL     1       5.516   6.160  16.823  0.00  0.00    +0.000 A 
ATOM      2  C   UNL     1       5.643   5.000  16.064  0.00  0.00    +0.000 A 
ATOM      3  C   UNL     1       4.805   3.905  16.270  0.00  0.00    +0.000 A 
ATOM      4  C   UNL     1       3.827   4.005  17.266  0.00  0.00    +0.000 A 
ATOM      5  S   UNL     1       2.666   2.827  17.732  0.00  0.00    +0.000 S 
ATOM      6  C   UNL     1       2.012   3.853  18.931  0.00  0.00    +0.000 A 
ATOM      7  C   UNL     1       0.873   3.409  19.775  0.00  0.00    +0.000 C 
ATOM      8  N   UNL     1       2.648   5.017  18.969  0.00  0.00    +0.000 N 
ATOM      9  C   UNL     1       2.306   6.086  19.901  0.00  0.00    +0.000 C 
ATOM     10  C   UNL     1       3.676   5.148  18.043  0.00  0.00    +0.000 A 
ATOM     11  C   UNL     1       4.530   6.249  17.822  0.00  0.00    +0.000 A 
ENDROOT
BRANCH   1  13
ATOM     12  C   UNL     1       7.476   7.332  17.488  0.00  0.00    +0.000 C 
ATOM     13  O   UNL     1       6.299   7.277  16.681  0.00  0.00    +0.000 OA
ENDBRANCH   1  13
TORSDOF 1
ENDMDL
MODEL 3
REMARK VINA RESULT:      -5.6      1.267      1.267
REMARK  Name = 
REMARK  4 active torsions:
REMARK  status: ('A' for Active; 'I' for Inactive)
REMARK    1  A    between atoms: C_1  and  O_2
REMARK    2  A    between atoms: O_2  and  C_3
REMARK    3  A    between atoms: C_8  and  C_9
REMARK    4  A    between atoms: N_10  and  C_11
REMARK                            x       y       z     vdW  Elec       q    Type
REMARK                         _______ _______ _______ _____ _____    ______ ____
ROOT
ATOM      1  C   UNL     1       6.124   5.380  16.685  0.00  0.00    +0.000 A 
ATOM      2  C   UNL     1       5.491   6.612  16.554  0.00  0.00    +0.000 A 
ATOM      3  C   UNL     1       4.394   6.952  17.347  0.00  0.00    +0.000 A 
ATOM      4  C   UNL     1       3.947   6.013  18.283  0.00  0.00    +0.000 A 
ATOM      5  S   UNL     1       2.636   6.159  19.385  0.00  0.00    +0.000 S 
ATOM      6  C   UNL     1       2.912   4.597  20.019  0.00  0.00    +0.000 A 
ATOM      7  C   UNL     1       2.057   4.054  21.106  0.00  0.00    +0.000 C 
ATOM      8  N   UNL     1       3.939   4.008  19.420  0.00  0.00    +0.000 N 
ATOM      9  C   UNL     1       4.398   2.664  19.755  0.00  0.00    +0.000 C 
ATOM     10  C   UNL     1       4.556   4.773  18.438  0.00  0.00    +0.000 A 
ATOM     11  C   UNL     1       5.665   4.444  17.629  0.00  0.00    +0.000 A 
ENDROOT
BRANCH   1  13
ATOM     12  C   UNL     1       6.956   4.678  14.570  0.00  0.00    +0.000 C 
ATOM     13  O   UNL     1       7.205   4.973  15.945  0.00  0.00    +0.000 OA
ENDBRANCH   1  13
TORSDOF 1
ENDMDL
MODEL 4
REMARK VINA RESULT:      -5.6      2.045      2.853
REMARK  Name = 
REMARK  4 active torsions:
REMARK  status: ('A' for Active; 'I' for Inactive)
REMARK    1  A    between atoms: C_1  and  O_2
REMARK    2  A    between atoms: O_2  and  C_3
REMARK    3  A    between atoms: C_8  and  C_9
REMARK    4  A    between atoms: N_10  and  C_11
REMARK                            x       y       z     vdW  Elec       q    Type
REMARK                         _______ _______ _______ _____ _____    ______ ____
ROOT
ATOM      1  C   UNL     1       6.646   5.899  16.584  0.00  0.00    +0.000 A 
ATOM      2  C   UNL     1       6.677   4.705  15.869  0.00  0.00    +0.000 A 
ATOM      3  C   UNL     1       5.667   3.753  16.003  0.00  0.00    +0.000 A 
ATOM      4  C   UNL     1       4.613   4.034  16.881  0.00  0.00    +0.000 A 
ATOM      5  S   UNL     1       3.245   3.058  17.238  0.00  0.00    +0.000 S 
ATOM      6  C   UNL     1       2.628   4.214  18.335  0.00  0.00    +0.000 A 
ATOM      7  C   UNL     1       1.350   3.974  19.055  0.00  0.00    +0.000 C 
ATOM      8  N   UNL     1       3.424   5.272  18.419  0.00  0.00    +0.000 N 
ATOM      9  C   UNL     1       3.148   6.414  19.284  0.00  0.00    +0.000 C 
ATOM     10  C   UNL     1       4.553   5.216  17.611  0.00  0.00    +0.000 A 
ATOM     11  C   UNL     1       5.583   6.169  17.465  0.00  0.00    +0.000 A 
ENDROOT
BRANCH   1  13
ATOM     12  C   UNL     1       7.670   7.782  17.615  0.00  0.00    +0.000 C 
ATOM     13  O   UNL     1       7.598   6.883  16.508  0.00  0.00    +0.000 OA
ENDBRANCH   1  13
TORSDOF 1
ENDMDL
MODEL 5
REMARK VINA RESULT:      -5.5      1.603      1.841
REMARK  Name = 
REMARK  4 active torsions:
REMARK  status: ('A' for Active; 'I' for Inactive)
REMARK    1  A    between atoms: C_1  and  O_2
REMARK    2  A    between atoms: O_2  and  C_3
REMARK    3  A    between atoms: C_8  and  C_9
REMARK    4  A    between atoms: N_10  and  C_11
REMARK                            x       y       z     vdW  Elec       q    Type
REMARK                         _______ _______ _______ _____ _____    ______ ____
ROOT
ATOM      1  C   UNL     1       4.662   5.941  17.137  0.00  0.00    +0.000 A 
ATOM      2  C   UNL     1       3.832   7.007  17.469  0.00  0.00    +0.000 A 
ATOM      3  C   UNL     1       2.910   6.910  18.511  0.00  0.00    +0.000 A 
ATOM      4  C   UNL     1       2.843   5.704  19.218  0.00  0.00    +0.000 A 
ATOM      5  S   UNL     1       1.816   5.306  20.537  0.00  0.00    +0.000 S 
ATOM      6  C   UNL     1       2.471   3.732  20.654  0.00  0.00    +0.000 A 
ATOM      7  C   UNL     1       1.986   2.780  21.686  0.00  0.00    +0.000 C 
ATOM      8  N   UNL     1       3.410   3.531  19.738  0.00  0.00    +0.000 N 
ATOM      9  C   UNL     1       4.137   2.274  19.600  0.00  0.00    +0.000 C 
ATOM     10  C   UNL     1       3.656   4.619  18.910  0.00  0.00    +0.000 A 
ATOM     11  C   UNL     1       4.585   4.733  17.853  0.00  0.00    +0.000 A 
ENDROOT
BRANCH   1  13
ATOM     12  C   UNL     1       6.858   5.367  16.426  0.00  0.00    +0.000 C 
ATOM     13  O   UNL     1       5.592   5.958  16.129  0.00  0.00    +0.000 OA
ENDBRANCH   1  13
TORSDOF 1
ENDMDL
MODEL 6
REMARK VINA RESULT:      -5.4      2.781      5.171
REMARK  Name = 
REMARK  4 active torsions:
REMARK  status: ('A' for Active; 'I' for Inactive)
REMARK    1  A    between atoms: C_1  and  O_2
REMARK    2  A    between atoms: O_2  and  C_3
REMARK    3  A    between atoms: C_8  and  C_9
REMARK    4  A    between atoms: N_10  and  C_11
REMARK                            x       y       z     vdW  Elec       q    Type
REMARK                         _______ _______ _______ _____ _____    ______ ____
ROOT
ATOM      1  C   UNL     1       1.889   2.843  19.434  0.00  0.00    +0.000 A 
ATOM      2  C   UNL     1       2.581   1.803  18.821  0.00  0.00    +0.000 A 
ATOM      3  C   UNL     1       3.568   2.051  17.867  0.00  0.00    +0.000 A 
ATOM      4  C   UNL     1       3.846   3.383  17.543  0.00  0.00    +0.000 A 
ATOM      5  S   UNL     1       5.000   3.980  16.419  0.00  0.00    +0.000 S 
ATOM      6  C   UNL     1       4.575   5.603  16.747  0.00  0.00    +0.000 A 
ATOM      7  C   UNL     1       5.259   6.725  16.053  0.00  0.00    +0.000 C 
ATOM      8  N   UNL     1       3.610   5.674  17.654  0.00  0.00    +0.000 N 
ATOM      9  C   UNL     1       3.044   6.934  18.124  0.00  0.00    +0.000 C 
ATOM     10  C   UNL     1       3.172   4.446  18.135  0.00  0.00    +0.000 A 
ATOM     11  C   UNL     1       2.177   4.179  19.099  0.00  0.00    +0.000 A 
ENDROOT
BRANCH   1  13
ATOM     12  C   UNL     1       1.326   2.751  21.743  0.00  0.00    +0.000 C 
ATOM     13  O   UNL     1       0.909   2.682  20.379  0.00  0.00    +0.000 OA
ENDBRANCH   1  13
TORSDOF 1
ENDMDL
MODEL 7
REMARK VINA RESULT:      -5.4      2.937      5.172
REMARK  Name = 
REMARK  4 active torsions:
REMARK  status: ('A' for Active; 'I' for Inactive)
REMARK    1  A    between atoms: C_1  and  O_2
REMARK    2  A    between atoms: O_2  and  C_3
REMARK    3  A    between atoms: C_8  and  C_9
REMARK    4  A    between atoms: N_10  and  C_11
REMARK                            x       y       z     vdW  Elec       q    Type
REMARK                         _______ _______ _______ _____ _____    ______ ____
ROOT
ATOM      1  C   UNL     1       2.083   3.918  19.544  0.00  0.00    +0.000 A 
ATOM      2  C   UNL     1       1.594   3.424  18.338  0.00  0.00    +0.000 A 
ATOM      3  C   UNL     1       2.394   3.379  17.196  0.00  0.00    +0.000 A 
ATOM      4  C   UNL     1       3.708   3.848  17.297  0.00  0.00    +0.000 A 
ATOM      5  S   UNL     1       4.907   3.910  16.067  0.00  0.00    +0.000 S 
ATOM      6  C   UNL     1       6.056   4.592  17.133  0.00  0.00    +0.000 A 
ATOM      7  C   UNL     1       7.428   4.918  16.666  0.00  0.00    +0.000 C 
ATOM      8  N   UNL     1       5.546   4.762  18.346  0.00  0.00    +0.000 N 
ATOM      9  C   UNL     1       6.300   5.331  19.458  0.00  0.00    +0.000 C 
ATOM     10  C   UNL     1       4.226   4.350  18.486  0.00  0.00    +0.000 A 
ATOM     11  C   UNL     1       3.406   4.388  19.633  0.00  0.00    +0.000 A 
ENDROOT
BRANCH   1  13
ATOM     12  C   UNL     1       1.641   2.997  21.692  0.00  0.00    +0.000 C 
ATOM     13  O   UNL     1       1.363   3.994  20.708  0.00  0.00    +0.000 OA
ENDBRANCH   1  13
TORSDOF 1
ENDMDL
MODEL 8
REMARK VINA RESULT:      -5.3      2.174      2.469
REMARK  Name = 
REMARK  4 active torsions:
REMARK  status: ('A' for Active; 'I' for Inactive)
REMARK    1  A    between atoms: C_1  and  O_2
REMARK    2  A    between atoms: O_2  and  C_3
REMARK    3  A    between atoms: C_8  and  C_9
REMARK    4  A    between atoms: N_10  and  C_11
REMARK                            x       y       z     vdW  Elec       q    Type
REMARK                         _______ _______ _______ _____ _____    ______ ____
ROOT
ATOM      1  C   UNL     1       6.225   5.867  18.119  0.00  0.00    +0.000 A 
ATOM      2  C   UNL     1       5.363   6.656  17.363  0.00  0.00    +0.000 A 
ATOM      3  C   UNL     1       4.013   6.331  17.230  0.00  0.00    +0.000 A 
ATOM      4  C   UNL     1       3.547   5.184  17.881  0.00  0.00    +0.000 A 
ATOM      5  S   UNL     1       1.949   4.551  17.896  0.00  0.00    +0.000 S 
ATOM      6  C   UNL     1       2.410   3.241  18.892  0.00  0.00    +0.000 A 
ATOM      7  C   UNL     1       1.415   2.226  19.324  0.00  0.00    +0.000 C 
ATOM      8  N   UNL     1       3.703   3.291  19.186  0.00  0.00    +0.000 N 
ATOM      9  C   UNL     1       4.373   2.296  20.017  0.00  0.00    +0.000 C 
ATOM     10  C   UNL     1       4.382   4.373  18.642  0.00  0.00    +0.000 A 
ATOM     11  C   UNL     1       5.745   4.715  18.768  0.00  0.00    +0.000 A 
ENDROOT
BRANCH   1  13
ATOM     12  C   UNL     1       7.981   7.471  18.114  0.00  0.00    +0.000 C 
ATOM     13  O   UNL     1       7.561   6.118  18.299  0.00  0.00    +0.000 OA
ENDBRANCH   1  13
TORSDOF 1
ENDMDL
MODEL 9
REMARK VINA RESULT:      -5.3      2.660      4.789
REMARK  Name = 
REMARK  4 active torsions:
REMARK  status: ('A' for Active; 'I' for Inactive)
REMARK    1  A    between atoms: C_1  and  O_2
REMARK    2  A    between atoms: O_2  and  C_3
REMARK    3  A    between atoms: C_8  and  C_9
REMARK    4  A    between atoms: N_10  and  C_11
REMARK                            x       y       z     vdW  Elec       q    Type
REMARK                         _______ _______ _______ _____ _____    ______ ____
ROOT
ATOM      1  C   UNL     1       2.916   3.401  18.135  0.00  0.00    +0.000 A 
ATOM      2  C   UNL     1       3.569   2.921  19.267  0.00  0.00    +0.000 A 
ATOM      3  C   UNL     1       4.787   3.460  19.683  0.00  0.00    +0.000 A 
ATOM      4  C   UNL     1       5.336   4.501  18.928  0.00  0.00    +0.000 A 
ATOM      5  S   UNL     1       6.806   5.348  19.203  0.00  0.00    +0.000 S 
ATOM      6  C   UNL     1       6.571   6.333  17.827  0.00  0.00    +0.000 A 
ATOM      7  C   UNL     1       7.561   7.377  17.460  0.00  0.00    +0.000 C 
ATOM      8  N   UNL     1       5.442   6.025  17.201  0.00  0.00    +0.000 N 
ATOM      9  C   UNL     1       4.988   6.701  15.991  0.00  0.00    +0.000 C 
ATOM     10  C   UNL     1       4.711   5.001  17.791  0.00  0.00    +0.000 A 
ATOM     11  C   UNL     1       3.479   4.447  17.383  0.00  0.00    +0.000 A 
ENDROOT
BRANCH   1  13
ATOM     12  C   UNL     1       0.803   2.433  18.641  0.00  0.00    +0.000 C 
ATOM     13  O   UNL     1       1.719   2.927  17.663  0.00  0.00    +0.000 OA
ENDBRANCH   1  13
TORSDOF 1
ENDMDL
