MODEL 1
REMARK VINA RESULT:      -8.7      0.000      0.000
REMARK  Name = 
REMARK  9 active torsions:
REMARK  status: ('A' for Active; 'I' for Inactive)
REMARK    1  A    between atoms: C_5  and  C_6
REMARK    2  A    between atoms: C_6  and  S_7
REMARK    3  A    between atoms: S_7  and  C_8
REMARK    4  A    between atoms: N_16  and  C_17
REMARK    5  A    between atoms: C_17  and  C_18
REMARK    6  A    between atoms: C_18  and  C_19
REMARK    7  A    between atoms: C_19  and  C_20
REMARK    8  A    between atoms: C_20  and  C_21
REMARK    9  A    between atoms: C_21  and  C_22
REMARK                            x       y       z     vdW  Elec       q    Type
REMARK                         _______ _______ _______ _____ _____    ______ ____
ROOT
ATOM      1  C   UNL     1       2.739   7.385  17.879  0.00  0.00    +0.000 A 
ATOM      2  C   UNL     1       1.926   6.262  18.009  0.00  0.00    +0.000 A 
ATOM      3  C   UNL     1       2.465   4.979  17.911  0.00  0.00    +0.000 A 
ATOM      4  C   UNL     1       1.635   3.856  18.063  0.00  0.00    +0.000 A 
ATOM      5  C   UNL     1       2.163   2.567  17.993  0.00  0.00    +0.000 A 
ATOM      6  C   UNL     1       3.517   2.388  17.758  0.00  0.00    +0.000 A 
ATOM      7  C   UNL     1       4.356   3.497  17.592  0.00  0.00    +0.000 A 
ATOM      8  C   UNL     1       3.858   4.811  17.682  0.00  0.00    +0.000 A 
ATOM      9  N   UNL     1       4.640   5.932  17.564  0.00  0.00    +0.000 N 
ATOM     10  C   UNL     1       4.094   7.178  17.660  0.00  0.00    +0.000 A 
ENDROOT
BRANCH   1  11
ATOM     11  S   UNL     1       1.978   8.979  18.151  0.00  0.00    +0.000 S 
BRANCH  11  12
ATOM     12  C   UNL     1       1.267   8.864  19.830  0.00  0.00    +0.000 C 
BRANCH  12  17
ATOM     13  F   UNL     1      -2.341  13.076  20.905  0.00  0.00    +0.000 F 
ATOM     14  C   UNL     1      -1.476  12.087  20.645  0.00  0.00    +0.000 A 
ATOM     15  C   UNL     1      -1.569  11.394  19.445  0.00  0.00    +0.000 A 
ATOM     16  C   UNL     1      -0.673  10.356  19.176  0.00  0.00    +0.000 A 
ATOM     17  C   UNL     1       0.315  10.002  20.113  0.00  0.00    +0.000 A 
ATOM     18  C   UNL     1       0.401  10.730  21.312  0.00  0.00    +0.000 A 
ATOM     19  C   UNL     1      -0.497  11.768  21.578  0.00  0.00    +0.000 A 
ENDBRANCH  12  17
ENDBRANCH  11  12
ENDBRANCH   1  11
BRANCH   9  20
ATOM     20  C   UNL     1       6.121   5.847  17.360  0.00  0.00    +0.000 C 
BRANCH  20  21
ATOM     21  C   UNL     1       6.672   7.254  17.179  0.00  0.00    +0.000 C 
BRANCH  21  22
ATOM     22  C   UNL     1       7.921   7.551  18.024  0.00  0.00    +0.000 C 
BRANCH  22  23
ATOM     23  C   UNL     1       8.224   9.044  17.900  0.00  0.00    +0.000 C 
BRANCH  23  24
ATOM     24  C   UNL     1       9.054   9.669  19.025  0.00  0.00    +0.000 C 
BRANCH  24  25
ATOM     25  C   UNL     1       9.271  11.188  18.783  0.00  0.00    +0.000 C 
ATOM     26  C   UNL     1       9.413  11.973  20.100  0.00  0.00    +0.000 C 
ATOM     27  C   UNL     1      10.829  11.978  20.673  0.00  0.00    +0.000 C 
ATOM     28  C   UNL     1      11.838  12.457  19.637  0.00  0.00    +0.000 C 
ATOM     29  C   UNL     1      11.800  11.553  18.415  0.00  0.00    +0.000 C 
ATOM     30  C   UNL     1      10.407  11.532  17.794  0.00  0.00    +0.000 C 
ENDBRANCH  24  25
ENDBRANCH  23  24
ENDBRANCH  22  23
ENDBRANCH  21  22
ENDBRANCH  20  21
ENDBRANCH   9  20
TORSDOF 9
ENDMDL
MODEL 2
REMARK VINA RESULT:      -8.6      5.496     10.864
REMARK  Name = 
REMARK  9 active torsions:
REMARK  status: ('A' for Active; 'I' for Inactive)
REMARK    1  A    between atoms: C_5  and  C_6
REMARK    2  A    between atoms: C_6  and  S_7
REMARK    3  A    between atoms: S_7  and  C_8
REMARK    4  A    between atoms: N_16  and  C_17
REMARK    5  A    between atoms: C_17  and  C_18
REMARK    6  A    between atoms: C_18  and  C_19
REMARK    7  A    between atoms: C_19  and  C_20
REMARK    8  A    between atoms: C_20  and  C_21
REMARK    9  A    between atoms: C_21  and  C_22
REMARK                            x       y       z     vdW  Elec       q    Type
REMARK                         _______ _______ _______ _____ _____    ______ ____
ROOT
ATOM      1  C   UNL     1       1.268   9.232  19.088  0.00  0.00    +0.000 A 
ATOM      2  C   UNL     1       1.069   9.019  20.450  0.00  0.00    +0.000 A 
ATOM      3  C   UNL     1       0.206   9.838  21.179  0.00  0.00    +0.000 A 
ATOM      4  C   UNL     1       0.002   9.599  22.548  0.00  0.00    +0.000 A 
ATOM      5  C   UNL     1      -0.877  10.393  23.285  0.00  0.00    +0.000 A 
ATOM      6  C   UNL     1      -1.545  11.438  22.667  0.00  0.00    +0.000 A 
ATOM      7  C   UNL     1      -1.343  11.697  21.305  0.00  0.00    +0.000 A 
ATOM      8  C   UNL     1      -0.483  10.898  20.529  0.00  0.00    +0.000 A 
ATOM      9  N   UNL     1      -0.276  11.084  19.185  0.00  0.00    +0.000 N 
ATOM     10  C   UNL     1       0.574  10.274  18.491  0.00  0.00    +0.000 A 
ENDROOT
BRANCH   1  11
ATOM     11  S   UNL     1       2.288   8.049  18.219  0.00  0.00    +0.000 S 
BRANCH  11  12
ATOM     12  C   UNL     1       2.786   6.848  19.501  0.00  0.00    +0.000 C 
BRANCH  12  17
ATOM     13  F   UNL     1       0.442   1.773  18.685  0.00  0.00    +0.000 F 
ATOM     14  C   UNL     1       0.985   2.983  18.877  0.00  0.00    +0.000 A 
ATOM     15  C   UNL     1       1.552   3.656  17.803  0.00  0.00    +0.000 A 
ATOM     16  C   UNL     1       2.127   4.914  18.003  0.00  0.00    +0.000 A 
ATOM     17  C   UNL     1       2.144   5.498  19.283  0.00  0.00    +0.000 A 
ATOM     18  C   UNL     1       1.548   4.805  20.349  0.00  0.00    +0.000 A 
ATOM     19  C   UNL     1       0.973   3.547  20.147  0.00  0.00    +0.000 A 
ENDBRANCH  12  17
ENDBRANCH  11  12
ENDBRANCH   1  11
BRANCH   9  20
ATOM     20  C   UNL     1      -0.989  12.152  18.414  0.00  0.00    +0.000 C 
BRANCH  20  21
ATOM     21  C   UNL     1      -1.892  11.491  17.384  0.00  0.00    +0.000 C 
BRANCH  21  22
ATOM     22  C   UNL     1      -3.150  10.839  17.980  0.00  0.00    +0.000 C 
BRANCH  22  23
ATOM     23  C   UNL     1      -4.368  11.562  17.403  0.00  0.00    +0.000 C 
BRANCH  23  24
ATOM     24  C   UNL     1      -5.731  11.175  17.985  0.00  0.00    +0.000 C 
BRANCH  24  25
ATOM     25  C   UNL     1      -6.389  12.377  18.715  0.00  0.00    +0.000 C 
ATOM     26  C   UNL     1      -7.615  11.954  19.546  0.00  0.00    +0.000 C 
ATOM     27  C   UNL     1      -7.272  11.440  20.943  0.00  0.00    +0.000 C 
ATOM     28  C   UNL     1      -6.414  12.444  21.702  0.00  0.00    +0.000 C 
ATOM     29  C   UNL     1      -5.126  12.710  20.942  0.00  0.00    +0.000 C 
ATOM     30  C   UNL     1      -5.416  13.246  19.543  0.00  0.00    +0.000 C 
ENDBRANCH  24  25
ENDBRANCH  23  24
ENDBRANCH  22  23
ENDBRANCH  21  22
ENDBRANCH  20  21
ENDBRANCH   9  20
TORSDOF 9
ENDMDL
MODEL 3
REMARK VINA RESULT:      -8.3      5.146      9.296
REMARK  Name = 
REMARK  9 active torsions:
REMARK  status: ('A' for Active; 'I' for Inactive)
REMARK    1  A    between atoms: C_5  and  C_6
REMARK    2  A    between atoms: C_6  and  S_7
REMARK    3  A    between atoms: S_7  and  C_8
REMARK    4  A    between atoms: N_16  and  C_17
REMARK    5  A    between atoms: C_17  and  C_18
REMARK    6  A    between atoms: C_18  and  C_19
REMARK    7  A    between atoms: C_19  and  C_20
REMARK    8  A    between atoms: C_20  and  C_21
REMARK    9  A    between atoms: C_21  and  C_22
REMARK                            x       y       z     vdW  Elec       q    Type
REMARK                         _______ _______ _______ _____ _____    ______ ____
ROOT
ATOM      1  C   UNL     1       5.287   4.938  18.469  0.00  0.00    +0.000 A 
ATOM      2  C   UNL     1       4.746   3.718  18.869  0.00  0.00    +0.000 A 
ATOM      3  C   UNL     1       3.483   3.659  19.456  0.00  0.00    +0.000 A 
ATOM      4  C   UNL     1       2.944   2.419  19.836  0.00  0.00    +0.000 A 
ATOM      5  C   UNL     1       1.671   2.340  20.402  0.00  0.00    +0.000 A 
ATOM      6  C   UNL     1       0.935   3.496  20.605  0.00  0.00    +0.000 A 
ATOM      7  C   UNL     1       1.463   4.741  20.243  0.00  0.00    +0.000 A 
ATOM      8  C   UNL     1       2.733   4.851  19.647  0.00  0.00    +0.000 A 
ATOM      9  N   UNL     1       3.283   6.040  19.240  0.00  0.00    +0.000 N 
ATOM     10  C   UNL     1       4.523   6.078  18.670  0.00  0.00    +0.000 A 
ENDROOT
BRANCH   1  11
ATOM     11  S   UNL     1       6.853   4.893  17.608  0.00  0.00    +0.000 S 
BRANCH  11  12
ATOM     12  C   UNL     1       6.593   5.939  16.134  0.00  0.00    +0.000 C 
BRANCH  12  17
ATOM     13  F   UNL     1       6.016   2.797  11.475  0.00  0.00    +0.000 F 
ATOM     14  C   UNL     1       6.145   3.553  12.573  0.00  0.00    +0.000 A 
ATOM     15  C   UNL     1       7.281   4.336  12.736  0.00  0.00    +0.000 A 
ATOM     16  C   UNL     1       7.422   5.118  13.886  0.00  0.00    +0.000 A 
ATOM     17  C   UNL     1       6.428   5.111  14.882  0.00  0.00    +0.000 A 
ATOM     18  C   UNL     1       5.280   4.326  14.686  0.00  0.00    +0.000 A 
ATOM     19  C   UNL     1       5.142   3.544  13.535  0.00  0.00    +0.000 A 
ENDBRANCH  12  17
ENDBRANCH  11  12
ENDBRANCH   1  11
BRANCH   9  20
ATOM     20  C   UNL     1       2.549   7.339  19.368  0.00  0.00    +0.000 C 
BRANCH  20  21
ATOM     21  C   UNL     1       2.156   7.819  17.978  0.00  0.00    +0.000 C 
BRANCH  21  22
ATOM     22  C   UNL     1       2.166   9.347  17.818  0.00  0.00    +0.000 C 
BRANCH  22  23
ATOM     23  C   UNL     1       1.103   9.922  18.755  0.00  0.00    +0.000 C 
BRANCH  23  24
ATOM     24  C   UNL     1      -0.347   9.518  18.471  0.00  0.00    +0.000 C 
BRANCH  24  25
ATOM     25  C   UNL     1      -1.047  10.557  17.552  0.00  0.00    +0.000 C 
ATOM     26  C   UNL     1      -2.291   9.974  16.857  0.00  0.00    +0.000 C 
ATOM     27  C   UNL     1      -3.562  10.035  17.702  0.00  0.00    +0.000 C 
ATOM     28  C   UNL     1      -3.823  11.452  18.198  0.00  0.00    +0.000 C 
ATOM     29  C   UNL     1      -2.649  11.937  19.032  0.00  0.00    +0.000 C 
ATOM     30  C   UNL     1      -1.356  11.914  18.223  0.00  0.00    +0.000 C 
ENDBRANCH  24  25
ENDBRANCH  23  24
ENDBRANCH  22  23
ENDBRANCH  21  22
ENDBRANCH  20  21
ENDBRANCH   9  20
TORSDOF 9
ENDMDL
MODEL 4
REMARK VINA RESULT:      -8.2      3.696      7.370
REMARK  Name = 
REMARK  9 active torsions:
REMARK  status: ('A' for Active; 'I' for Inactive)
REMARK    1  A    between atoms: C_5  and  C_6
REMARK    2  A    between atoms: C_6  and  S_7
REMARK    3  A    between atoms: S_7  and  C_8
REMARK    4  A    between atoms: N_16  and  C_17
REMARK    5  A    between atoms: C_17  and  C_18
REMARK    6  A    between atoms: C_18  and  C_19
REMARK    7  A    between atoms: C_19  and  C_20
REMARK    8  A    between atoms: C_20  and  C_21
REMARK    9  A    between atoms: C_21  and  C_22
REMARK                            x       y       z     vdW  Elec       q    Type
REMARK                         _______ _______ _______ _____ _____    ______ ____
ROOT
ATOM      1  C   UNL     1       4.047   4.609  17.026  0.00  0.00    +0.000 A 
ATOM      2  C   UNL     1       3.625   3.456  17.684  0.00  0.00    +0.000 A 
ATOM      3  C   UNL     1       2.826   3.541  18.824  0.00  0.00    +0.000 A 
ATOM      4  C   UNL     1       2.393   2.368  19.465  0.00  0.00    +0.000 A 
ATOM      5  C   UNL     1       1.573   2.434  20.591  0.00  0.00    +0.000 A 
ATOM      6  C   UNL     1       1.191   3.668  21.094  0.00  0.00    +0.000 A 
ATOM      7  C   UNL     1       1.624   4.847  20.473  0.00  0.00    +0.000 A 
ATOM      8  C   UNL     1       2.431   4.812  19.321  0.00  0.00    +0.000 A 
ATOM      9  N   UNL     1       2.853   5.934  18.652  0.00  0.00    +0.000 N 
ATOM     10  C   UNL     1       3.637   5.831  17.540  0.00  0.00    +0.000 A 
ENDROOT
BRANCH   1  11
ATOM     11  S   UNL     1       4.955   4.393  15.502  0.00  0.00    +0.000 S 
BRANCH  11  12
ATOM     12  C   UNL     1       6.681   4.122  16.035  0.00  0.00    +0.000 C 
BRANCH  12  17
ATOM     13  F   UNL     1       8.620   8.333  19.263  0.00  0.00    +0.000 F 
ATOM     14  C   UNL     1       8.147   7.337  18.502  0.00  0.00    +0.000 A 
ATOM     15  C   UNL     1       8.153   6.038  18.993  0.00  0.00    +0.000 A 
ATOM     16  C   UNL     1       7.669   4.996  18.197  0.00  0.00    +0.000 A 
ATOM     17  C   UNL     1       7.183   5.252  16.902  0.00  0.00    +0.000 A 
ATOM     18  C   UNL     1       7.170   6.577  16.435  0.00  0.00    +0.000 A 
ATOM     19  C   UNL     1       7.655   7.617  17.233  0.00  0.00    +0.000 A 
ENDBRANCH  12  17
ENDBRANCH  11  12
ENDBRANCH   1  11
BRANCH   9  20
ATOM     20  C   UNL     1       2.454   7.311  19.084  0.00  0.00    +0.000 C 
BRANCH  20  21
ATOM     21  C   UNL     1       1.920   8.067  17.876  0.00  0.00    +0.000 C 
BRANCH  21  22
ATOM     22  C   UNL     1       2.080   9.593  17.972  0.00  0.00    +0.000 C 
BRANCH  22  23
ATOM     23  C   UNL     1       0.792  10.161  18.568  0.00  0.00    +0.000 C 
BRANCH  23  24
ATOM     24  C   UNL     1       0.924  10.897  19.904  0.00  0.00    +0.000 C 
BRANCH  24  25
ATOM     25  C   UNL     1       0.627  12.413  19.739  0.00  0.00    +0.000 C 
ATOM     26  C   UNL     1       1.178  13.245  20.912  0.00  0.00    +0.000 C 
ATOM     27  C   UNL     1       2.647  13.634  20.763  0.00  0.00    +0.000 C 
ATOM     28  C   UNL     1       2.898  14.329  19.430  0.00  0.00    +0.000 C 
ATOM     29  C   UNL     1       2.508  13.412  18.282  0.00  0.00    +0.000 C 
ATOM     30  C   UNL     1       1.039  13.012  18.377  0.00  0.00    +0.000 C 
ENDBRANCH  24  25
ENDBRANCH  23  24
ENDBRANCH  22  23
ENDBRANCH  21  22
ENDBRANCH  20  21
ENDBRANCH   9  20
TORSDOF 9
ENDMDL
MODEL 5
REMARK VINA RESULT:      -8.2      3.860      8.821
REMARK  Name = 
REMARK  9 active torsions:
REMARK  status: ('A' for Active; 'I' for Inactive)
REMARK    1  A    between atoms: C_5  and  C_6
REMARK    2  A    between atoms: C_6  and  S_7
REMARK    3  A    between atoms: S_7  and  C_8
REMARK    4  A    between atoms: N_16  and  C_17
REMARK    5  A    between atoms: C_17  and  C_18
REMARK    6  A    between atoms: C_18  and  C_19
REMARK    7  A    between atoms: C_19  and  C_20
REMARK    8  A    between atoms: C_20  and  C_21
REMARK    9  A    between atoms: C_21  and  C_22
REMARK                            x       y       z     vdW  Elec       q    Type
REMARK                         _______ _______ _______ _____ _____    ______ ____
ROOT
ATOM      1  C   UNL     1       7.190   6.638  17.806  0.00  0.00    +0.000 A 
ATOM      2  C   UNL     1       7.668   6.120  16.604  0.00  0.00    +0.000 A 
ATOM      3  C   UNL     1       6.832   5.381  15.766  0.00  0.00    +0.000 A 
ATOM      4  C   UNL     1       7.324   4.882  14.550  0.00  0.00    +0.000 A 
ATOM      5  C   UNL     1       6.495   4.163  13.688  0.00  0.00    +0.000 A 
ATOM      6  C   UNL     1       5.176   3.925  14.040  0.00  0.00    +0.000 A 
ATOM      7  C   UNL     1       4.674   4.406  15.256  0.00  0.00    +0.000 A 
ATOM      8  C   UNL     1       5.478   5.156  16.134  0.00  0.00    +0.000 A 
ATOM      9  N   UNL     1       5.028   5.682  17.319  0.00  0.00    +0.000 N 
ATOM     10  C   UNL     1       5.861   6.399  18.127  0.00  0.00    +0.000 A 
ENDROOT
BRANCH   1  11
ATOM     11  S   UNL     1       8.299   7.679  18.744  0.00  0.00    +0.000 S 
BRANCH  11  12
ATOM     12  C   UNL     1       8.217   9.301  17.909  0.00  0.00    +0.000 C 
BRANCH  12  17
ATOM     13  F   UNL     1      11.643  13.113  20.286  0.00  0.00    +0.000 F 
ATOM     14  C   UNL     1      10.841  12.198  19.724  0.00  0.00    +0.000 A 
ATOM     15  C   UNL     1      10.814  12.068  18.342  0.00  0.00    +0.000 A 
ATOM     16  C   UNL     1       9.971  11.121  17.753  0.00  0.00    +0.000 A 
ATOM     17  C   UNL     1       9.144  10.308  18.548  0.00  0.00    +0.000 A 
ATOM     18  C   UNL     1       9.202  10.446  19.945  0.00  0.00    +0.000 A 
ATOM     19  C   UNL     1      10.046  11.393  20.531  0.00  0.00    +0.000 A 
ENDBRANCH  12  17
ENDBRANCH  11  12
ENDBRANCH   1  11
BRANCH   9  20
ATOM     20  C   UNL     1       3.607   5.525  17.766  0.00  0.00    +0.000 C 
BRANCH  20  21
ATOM     21  C   UNL     1       3.109   6.864  18.292  0.00  0.00    +0.000 C 
BRANCH  21  22
ATOM     22  C   UNL     1       2.420   6.780  19.664  0.00  0.00    +0.000 C 
BRANCH  22  23
ATOM     23  C   UNL     1       2.460   5.320  20.118  0.00  0.00    +0.000 C 
BRANCH  23  24
ATOM     24  C   UNL     1       1.128   4.564  20.105  0.00  0.00    +0.000 C 
BRANCH  24  25
ATOM     25  C   UNL     1       1.352   3.034  20.245  0.00  0.00    +0.000 C 
ATOM     26  C   UNL     1       1.043   2.278  18.940  0.00  0.00    +0.000 C 
ATOM     27  C   UNL     1       2.206   2.242  17.951  0.00  0.00    +0.000 C 
ATOM     28  C   UNL     1       3.471   1.705  18.610  0.00  0.00    +0.000 C 
ATOM     29  C   UNL     1       3.853   2.579  19.794  0.00  0.00    +0.000 C 
ATOM     30  C   UNL     1       2.727   2.629  20.822  0.00  0.00    +0.000 C 
ENDBRANCH  24  25
ENDBRANCH  23  24
ENDBRANCH  22  23
ENDBRANCH  21  22
ENDBRANCH  20  21
ENDBRANCH   9  20
TORSDOF 9
ENDMDL
MODEL 6
REMARK VINA RESULT:      -8.2      4.264      8.218
REMARK  Name = 
REMARK  9 active torsions:
REMARK  status: ('A' for Active; 'I' for Inactive)
REMARK    1  A    between atoms: C_5  and  C_6
REMARK    2  A    between atoms: C_6  and  S_7
REMARK    3  A    between atoms: S_7  and  C_8
REMARK    4  A    between atoms: N_16  and  C_17
REMARK    5  A    between atoms: C_17  and  C_18
REMARK    6  A    between atoms: C_18  and  C_19
REMARK    7  A    between atoms: C_19  and  C_20
REMARK    8  A    between atoms: C_20  and  C_21
REMARK    9  A    between atoms: C_21  and  C_22
REMARK                            x       y       z     vdW  Elec       q    Type
REMARK                         _______ _______ _______ _____ _____    ______ ____
ROOT
ATOM      1  C   UNL     1       5.215   5.174  19.158  0.00  0.00    +0.000 A 
ATOM      2  C   UNL     1       4.866   3.844  19.381  0.00  0.00    +0.000 A 
ATOM      3  C   UNL     1       3.565   3.401  19.142  0.00  0.00    +0.000 A 
ATOM      4  C   UNL     1       3.234   2.053  19.354  0.00  0.00    +0.000 A 
ATOM      5  C   UNL     1       1.945   1.588  19.095  0.00  0.00    +0.000 A 
ATOM      6  C   UNL     1       0.974   2.466  18.638  0.00  0.00    +0.000 A 
ATOM      7  C   UNL     1       1.286   3.816  18.433  0.00  0.00    +0.000 A 
ATOM      8  C   UNL     1       2.584   4.309  18.661  0.00  0.00    +0.000 A 
ATOM      9  N   UNL     1       2.952   5.613  18.442  0.00  0.00    +0.000 N 
ATOM     10  C   UNL     1       4.229   6.028  18.685  0.00  0.00    +0.000 A 
ENDROOT
BRANCH   1  11
ATOM     11  S   UNL     1       6.935   5.612  19.368  0.00  0.00    +0.000 S 
BRANCH  11  12
ATOM     12  C   UNL     1       7.384   6.458  17.814  0.00  0.00    +0.000 C 
BRANCH  12  17
ATOM     13  F   UNL     1       5.073   3.874  13.352  0.00  0.00    +0.000 F 
ATOM     14  C   UNL     1       5.631   4.494  14.401  0.00  0.00    +0.000 A 
ATOM     15  C   UNL     1       6.606   3.840  15.144  0.00  0.00    +0.000 A 
ATOM     16  C   UNL     1       7.182   4.480  16.244  0.00  0.00    +0.000 A 
ATOM     17  C   UNL     1       6.776   5.777  16.610  0.00  0.00    +0.000 A 
ATOM     18  C   UNL     1       5.802   6.425  15.832  0.00  0.00    +0.000 A 
ATOM     19  C   UNL     1       5.227   5.781  14.732  0.00  0.00    +0.000 A 
ENDBRANCH  12  17
ENDBRANCH  11  12
ENDBRANCH   1  11
BRANCH   9  20
ATOM     20  C   UNL     1       1.993   6.628  17.901  0.00  0.00    +0.000 C 
BRANCH  20  21
ATOM     21  C   UNL     1       2.483   8.017  18.284  0.00  0.00    +0.000 C 
BRANCH  21  22
ATOM     22  C   UNL     1       1.632   9.161  17.710  0.00  0.00    +0.000 C 
BRANCH  22  23
ATOM     23  C   UNL     1       1.580  10.274  18.756  0.00  0.00    +0.000 C 
BRANCH  23  24
ATOM     24  C   UNL     1       1.378   9.836  20.210  0.00  0.00    +0.000 C 
BRANCH  24  25
ATOM     25  C   UNL     1      -0.131   9.703  20.549  0.00  0.00    +0.000 C 
ATOM     26  C   UNL     1      -0.376   8.797  21.771  0.00  0.00    +0.000 C 
ATOM     27  C   UNL     1      -0.255   9.516  23.113  0.00  0.00    +0.000 C 
ATOM     28  C   UNL     1      -1.148  10.750  23.156  0.00  0.00    +0.000 C 
ATOM     29  C   UNL     1      -0.765  11.710  22.043  0.00  0.00    +0.000 C 
ATOM     30  C   UNL     1      -0.890  11.042  20.677  0.00  0.00    +0.000 C 
ENDBRANCH  24  25
ENDBRANCH  23  24
ENDBRANCH  22  23
ENDBRANCH  21  22
ENDBRANCH  20  21
ENDBRANCH   9  20
TORSDOF 9
ENDMDL
MODEL 7
REMARK VINA RESULT:      -8.2      3.583      8.019
REMARK  Name = 
REMARK  9 active torsions:
REMARK  status: ('A' for Active; 'I' for Inactive)
REMARK    1  A    between atoms: C_5  and  C_6
REMARK    2  A    between atoms: C_6  and  S_7
REMARK    3  A    between atoms: S_7  and  C_8
REMARK    4  A    between atoms: N_16  and  C_17
REMARK    5  A    between atoms: C_17  and  C_18
REMARK    6  A    between atoms: C_18  and  C_19
REMARK    7  A    between atoms: C_19  and  C_20
REMARK    8  A    between atoms: C_20  and  C_21
REMARK    9  A    between atoms: C_21  and  C_22
REMARK                            x       y       z     vdW  Elec       q    Type
REMARK                         _______ _______ _______ _____ _____    ______ ____
ROOT
ATOM      1  C   UNL     1       4.102   4.605  17.051  0.00  0.00    +0.000 A 
ATOM      2  C   UNL     1       3.712   3.467  17.754  0.00  0.00    +0.000 A 
ATOM      3  C   UNL     1       2.888   3.572  18.875  0.00  0.00    +0.000 A 
ATOM      4  C   UNL     1       2.489   2.413  19.561  0.00  0.00    +0.000 A 
ATOM      5  C   UNL     1       1.644   2.498  20.668  0.00  0.00    +0.000 A 
ATOM      6  C   UNL     1       1.205   3.737  21.106  0.00  0.00    +0.000 A 
ATOM      7  C   UNL     1       1.604   4.903  20.440  0.00  0.00    +0.000 A 
ATOM      8  C   UNL     1       2.434   4.848  19.304  0.00  0.00    +0.000 A 
ATOM      9  N   UNL     1       2.825   5.954  18.593  0.00  0.00    +0.000 N 
ATOM     10  C   UNL     1       3.635   5.831  17.501  0.00  0.00    +0.000 A 
ENDROOT
BRANCH   1  11
ATOM     11  S   UNL     1       5.048   4.355  15.556  0.00  0.00    +0.000 S 
BRANCH  11  12
ATOM     12  C   UNL     1       6.764   4.124  16.135  0.00  0.00    +0.000 C 
BRANCH  12  17
ATOM     13  F   UNL     1       8.598   8.491  19.216  0.00  0.00    +0.000 F 
ATOM     14  C   UNL     1       8.150   7.458  18.490  0.00  0.00    +0.000 A 
ATOM     15  C   UNL     1       8.163   6.181  19.035  0.00  0.00    +0.000 A 
ATOM     16  C   UNL     1       7.704   5.101  18.275  0.00  0.00    +0.000 A 
ATOM     17  C   UNL     1       7.238   5.296  16.962  0.00  0.00    +0.000 A 
ATOM     18  C   UNL     1       7.218   6.600  16.440  0.00  0.00    +0.000 A 
ATOM     19  C   UNL     1       7.677   7.678  17.202  0.00  0.00    +0.000 A 
ENDBRANCH  12  17
ENDBRANCH  11  12
ENDBRANCH   1  11
BRANCH   9  20
ATOM     20  C   UNL     1       2.364   7.332  18.953  0.00  0.00    +0.000 C 
BRANCH  20  21
ATOM     21  C   UNL     1       2.599   8.253  17.765  0.00  0.00    +0.000 C 
BRANCH  21  22
ATOM     22  C   UNL     1       2.029   9.669  17.947  0.00  0.00    +0.000 C 
BRANCH  22  23
ATOM     23  C   UNL     1       0.551   9.532  18.314  0.00  0.00    +0.000 C 
BRANCH  23  24
ATOM     24  C   UNL     1      -0.219  10.836  18.544  0.00  0.00    +0.000 C 
BRANCH  24  25
ATOM     25  C   UNL     1      -0.603  11.002  20.040  0.00  0.00    +0.000 C 
ATOM     26  C   UNL     1       0.611  11.363  20.916  0.00  0.00    +0.000 C 
ATOM     27  C   UNL     1       0.933  12.855  20.951  0.00  0.00    +0.000 C 
ATOM     28  C   UNL     1      -0.292  13.671  21.347  0.00  0.00    +0.000 C 
ATOM     29  C   UNL     1      -1.421  13.430  20.359  0.00  0.00    +0.000 C 
ATOM     30  C   UNL     1      -1.793  11.951  20.304  0.00  0.00    +0.000 C 
ENDBRANCH  24  25
ENDBRANCH  23  24
ENDBRANCH  22  23
ENDBRANCH  21  22
ENDBRANCH  20  21
ENDBRANCH   9  20
TORSDOF 9
ENDMDL
MODEL 8
REMARK VINA RESULT:      -8.1      0.765      1.234
REMARK  Name = 
REMARK  9 active torsions:
REMARK  status: ('A' for Active; 'I' for Inactive)
REMARK    1  A    between atoms: C_5  and  C_6
REMARK    2  A    between atoms: C_6  and  S_7
REMARK    3  A    between atoms: S_7  and  C_8
REMARK    4  A    between atoms: N_16  and  C_17
REMARK    5  A    between atoms: C_17  and  C_18
REMARK    6  A    between atoms: C_18  and  C_19
REMARK    7  A    between atoms: C_19  and  C_20
REMARK    8  A    between atoms: C_20  and  C_21
REMARK    9  A    between atoms: C_21  and  C_22
REMARK                            x       y       z     vdW  Elec       q    Type
REMARK                         _______ _______ _______ _____ _____    ______ ____
ROOT
ATOM      1  C   UNL     1       2.726   7.417  17.968  0.00  0.00    +0.000 A 
ATOM      2  C   UNL     1       2.004   6.250  18.207  0.00  0.00    +0.000 A 
ATOM      3  C   UNL     1       2.575   4.999  17.970  0.00  0.00    +0.000 A 
ATOM      4  C   UNL     1       1.841   3.832  18.235  0.00  0.00    +0.000 A 
ATOM      5  C   UNL     1       2.406   2.574  18.028  0.00  0.00    +0.000 A 
ATOM      6  C   UNL     1       3.700   2.471  17.542  0.00  0.00    +0.000 A 
ATOM      7  C   UNL     1       4.441   3.626  17.262  0.00  0.00    +0.000 A 
ATOM      8  C   UNL     1       3.908   4.909  17.485  0.00  0.00    +0.000 A 
ATOM      9  N   UNL     1       4.602   6.072  17.262  0.00  0.00    +0.000 N 
ATOM     10  C   UNL     1       4.024   7.286  17.497  0.00  0.00    +0.000 A 
ENDROOT
BRANCH   1  11
ATOM     11  S   UNL     1       1.953   8.962  18.427  0.00  0.00    +0.000 S 
BRANCH  11  12
ATOM     12  C   UNL     1       1.362   8.687  20.133  0.00  0.00    +0.000 C 
BRANCH  12  17
ATOM     13  F   UNL     1      -2.263  12.695  21.779  0.00  0.00    +0.000 F 
ATOM     14  C   UNL     1      -1.393  11.755  21.388  0.00  0.00    +0.000 A 
ATOM     15  C   UNL     1      -1.262  11.461  20.037  0.00  0.00    +0.000 A 
ATOM     16  C   UNL     1      -0.362  10.473  19.629  0.00  0.00    +0.000 A 
ATOM     17  C   UNL     1       0.406   9.770  20.575  0.00  0.00    +0.000 A 
ATOM     18  C   UNL     1       0.270  10.098  21.934  0.00  0.00    +0.000 A 
ATOM     19  C   UNL     1      -0.632  11.086  22.340  0.00  0.00    +0.000 A 
ENDBRANCH  12  17
ENDBRANCH  11  12
ENDBRANCH   1  11
BRANCH   9  20
ATOM     20  C   UNL     1       6.021   6.069  16.787  0.00  0.00    +0.000 C 
BRANCH  20  21
ATOM     21  C   UNL     1       6.882   6.793  17.812  0.00  0.00    +0.000 C 
BRANCH  21  22
ATOM     22  C   UNL     1       7.452   8.132  17.318  0.00  0.00    +0.000 C 
BRANCH  22  23
ATOM     23  C   UNL     1       8.387   8.670  18.401  0.00  0.00    +0.000 C 
BRANCH  23  24
ATOM     24  C   UNL     1       8.764  10.151  18.306  0.00  0.00    +0.000 C 
BRANCH  24  25
ATOM     25  C   UNL     1       9.898  10.505  19.305  0.00  0.00    +0.000 C 
ATOM     26  C   UNL     1      10.959  11.430  18.679  0.00  0.00    +0.000 C 
ATOM     27  C   UNL     1      10.602  12.914  18.736  0.00  0.00    +0.000 C 
ATOM     28  C   UNL     1      10.269  13.345  20.159  0.00  0.00    +0.000 C 
ATOM     29  C   UNL     1       9.099  12.532  20.689  0.00  0.00    +0.000 C 
ATOM     30  C   UNL     1       9.417  11.040  20.672  0.00  0.00    +0.000 C 
ENDBRANCH  24  25
ENDBRANCH  23  24
ENDBRANCH  22  23
ENDBRANCH  21  22
ENDBRANCH  20  21
ENDBRANCH   9  20
TORSDOF 9
ENDMDL
MODEL 9
REMARK VINA RESULT:      -8.0      3.607      8.236
REMARK  Name = 
REMARK  9 active torsions:
REMARK  status: ('A' for Active; 'I' for Inactive)
REMARK    1  A    between atoms: C_5  and  C_6
REMARK    2  A    between atoms: C_6  and  S_7
REMARK    3  A    between atoms: S_7  and  C_8
REMARK    4  A    between atoms: N_16  and  C_17
REMARK    5  A    between atoms: C_17  and  C_18
REMARK    6  A    between atoms: C_18  and  C_19
REMARK    7  A    between atoms: C_19  and  C_20
REMARK    8  A    between atoms: C_20  and  C_21
REMARK    9  A    between atoms: C_21  and  C_22
REMARK                            x       y       z     vdW  Elec       q    Type
REMARK                         _______ _______ _______ _____ _____    ______ ____
ROOT
ATOM      1  C   UNL     1       4.047   4.572  17.114  0.00  0.00    +0.000 A 
ATOM      2  C   UNL     1       3.648   3.402  17.754  0.00  0.00    +0.000 A 
ATOM      3  C   UNL     1       2.855   3.454  18.901  0.00  0.00    +0.000 A 
ATOM      4  C   UNL     1       2.445   2.264  19.525  0.00  0.00    +0.000 A 
ATOM      5  C   UNL     1       1.632   2.298  20.657  0.00  0.00    +0.000 A 
ATOM      6  C   UNL     1       1.234   3.517  21.183  0.00  0.00    +0.000 A 
ATOM      7  C   UNL     1       1.644   4.713  20.580  0.00  0.00    +0.000 A 
ATOM      8  C   UNL     1       2.444   4.711  19.422  0.00  0.00    +0.000 A 
ATOM      9  N   UNL     1       2.844   5.850  18.770  0.00  0.00    +0.000 N 
ATOM     10  C   UNL     1       3.622   5.778  17.652  0.00  0.00    +0.000 A 
ENDROOT
BRANCH   1  11
ATOM     11  S   UNL     1       4.949   4.396  15.581  0.00  0.00    +0.000 S 
BRANCH  11  12
ATOM     12  C   UNL     1       6.682   4.146  16.097  0.00  0.00    +0.000 C 
BRANCH  12  17
ATOM     13  F   UNL     1       8.630   8.425  19.230  0.00  0.00    +0.000 F 
ATOM     14  C   UNL     1       8.154   7.413  18.492  0.00  0.00    +0.000 A 
ATOM     15  C   UNL     1       8.147   6.127  19.016  0.00  0.00    +0.000 A 
ATOM     16  C   UNL     1       7.660   5.069  18.244  0.00  0.00    +0.000 A 
ATOM     17  C   UNL     1       7.187   5.295  16.939  0.00  0.00    +0.000 A 
ATOM     18  C   UNL     1       7.187   6.607  16.437  0.00  0.00    +0.000 A 
ATOM     19  C   UNL     1       7.675   7.664  17.212  0.00  0.00    +0.000 A 
ENDBRANCH  12  17
ENDBRANCH  11  12
ENDBRANCH   1  11
BRANCH   9  20
ATOM     20  C   UNL     1       2.426   7.213  19.228  0.00  0.00    +0.000 C 
BRANCH  20  21
ATOM     21  C   UNL     1       1.896   7.990  18.032  0.00  0.00    +0.000 C 
BRANCH  21  22
ATOM     22  C   UNL     1       2.459   9.416  17.912  0.00  0.00    +0.000 C 
BRANCH  22  23
ATOM     23  C   UNL     1       1.323  10.393  18.216  0.00  0.00    +0.000 C 
BRANCH  23  24
ATOM     24  C   UNL     1       0.936  10.554  19.689  0.00  0.00    +0.000 C 
BRANCH  24  25
ATOM     25  C   UNL     1      -0.606  10.506  19.871  0.00  0.00    +0.000 C 
ATOM     26  C   UNL     1      -1.221  11.912  20.005  0.00  0.00    +0.000 C 
ATOM     27  C   UNL     1      -1.514  12.593  18.670  0.00  0.00    +0.000 C 
ATOM     28  C   UNL     1      -2.368  11.703  17.776  0.00  0.00    +0.000 C 
ATOM     29  C   UNL     1      -1.654  10.387  17.515  0.00  0.00    +0.000 C 
ATOM     30  C   UNL     1      -1.357   9.657  18.821  0.00  0.00    +0.000 C 
ENDBRANCH  24  25
ENDBRANCH  23  24
ENDBRANCH  22  23
ENDBRANCH  21  22
ENDBRANCH  20  21
ENDBRANCH   9  20
TORSDOF 9
ENDMDL
