MODEL 1
REMARK VINA RESULT:      -7.0      0.000      0.000
REMARK  Name = 
REMARK  3 active torsions:
REMARK  status: ('A' for Active; 'I' for Inactive)
REMARK    1  A    between atoms: C_2  and  C_3
REMARK    2  A    between atoms: C_6  and  N_7
REMARK    3  A    between atoms: N_7  and  C_8
REMARK                            x       y       z     vdW  Elec       q    Type
REMARK                         _______ _______ _______ _____ _____    ______ ____
ROOT
ATOM      1  C   UNL     1       4.608   3.617  18.486  0.00  0.00    +0.000 C 
ATOM      2  C   UNL     1       3.498   3.734  17.710  0.00  0.00    +0.000 C 
ATOM      3 CL   UNL     1       3.645   4.040  15.998  0.00  0.00    +0.000 Cl
ATOM      4  C   UNL     1       2.073   3.594  18.190  0.00  0.00    +0.000 C 
ATOM      5  O   UNL     1       1.102   3.808  17.477  0.00  0.00    +0.000 OA
ATOM      6  C   UNL     1       1.987   3.201  19.586  0.00  0.00    +0.000 A 
ATOM      7  N   UNL     1       0.848   2.932  20.306  0.00  0.00    +0.000 NA
ATOM      8  C   UNL     1       1.262   2.611  21.513  0.00  0.00    +0.000 A 
ATOM      9  N   UNL     1       2.625   2.677  21.612  0.00  0.00    +0.000 N 
ATOM     10  C   UNL     1       3.093   3.045  20.383  0.00  0.00    +0.000 A 
ATOM     11  C   UNL     1       4.435   3.243  19.949  0.00  0.00    +0.000 C 
ATOM     12  O   UNL     1       5.416   3.128  20.678  0.00  0.00    +0.000 OA
ATOM     13  H   UNL     1       3.181   2.481  22.436  0.00  0.00    +0.000 HD
ENDROOT
BRANCH   1  14
ATOM     14  N   UNL     1       5.945   3.772  18.086  0.00  0.00    +0.000 N 
ATOM     15  H   UNL     1       6.544   3.188  18.687  0.00  0.00    +0.000 HD
BRANCH  14  19
ATOM     16  C   UNL     1       7.727   7.613  18.015  0.00  0.00    +0.000 A 
ATOM     17  C   UNL     1       6.684   7.321  17.133  0.00  0.00    +0.000 A 
ATOM     18  C   UNL     1       6.102   6.051  17.129  0.00  0.00    +0.000 A 
ATOM     19  C   UNL     1       6.565   5.049  17.992  0.00  0.00    +0.000 A 
ATOM     20  C   UNL     1       7.594   5.357  18.890  0.00  0.00    +0.000 A 
ATOM     21  C   UNL     1       8.183   6.627  18.894  0.00  0.00    +0.000 A 
BRANCH  16  23
ATOM     22  N   UNL     1       8.783   9.981  18.060  0.00  0.00    +0.000 NA
ATOM     23  C   UNL     1       8.308   8.923  18.032  0.00  0.00    +0.000 C 
ENDBRANCH  16  23
ENDBRANCH  14  19
ENDBRANCH   1  14
TORSDOF 3
ENDMDL
MODEL 2
REMARK VINA RESULT:      -6.9      2.702      3.537
REMARK  Name = 
REMARK  3 active torsions:
REMARK  status: ('A' for Active; 'I' for Inactive)
REMARK    1  A    between atoms: C_2  and  C_3
REMARK    2  A    between atoms: C_6  and  N_7
REMARK    3  A    between atoms: N_7  and  C_8
REMARK                            x       y       z     vdW  Elec       q    Type
REMARK                         _______ _______ _______ _____ _____    ______ ____
ROOT
ATOM      1  C   UNL     1       4.858   4.423  18.950  0.00  0.00    +0.000 C 
ATOM      2  C   UNL     1       4.029   5.496  18.865  0.00  0.00    +0.000 C 
ATOM      3 CL   UNL     1       4.455   6.864  17.869  0.00  0.00    +0.000 Cl
ATOM      4  C   UNL     1       2.693   5.629  19.555  0.00  0.00    +0.000 C 
ATOM      5  O   UNL     1       2.027   6.656  19.532  0.00  0.00    +0.000 OA
ATOM      6  C   UNL     1       2.303   4.422  20.262  0.00  0.00    +0.000 A 
ATOM      7  N   UNL     1       1.127   4.195  20.935  0.00  0.00    +0.000 NA
ATOM      8  C   UNL     1       1.219   2.967  21.400  0.00  0.00    +0.000 A 
ATOM      9  N   UNL     1       2.415   2.392  21.069  0.00  0.00    +0.000 N 
ATOM     10  C   UNL     1       3.108   3.313  20.336  0.00  0.00    +0.000 A 
ATOM     11  C   UNL     1       4.397   3.210  19.742  0.00  0.00    +0.000 C 
ATOM     12  O   UNL     1       5.121   2.223  19.839  0.00  0.00    +0.000 OA
ATOM     13  H   UNL     1       2.725   1.459  21.314  0.00  0.00    +0.000 HD
ENDROOT
BRANCH   1  14
ATOM     14  N   UNL     1       6.121   4.273  18.352  0.00  0.00    +0.000 N 
ATOM     15  H   UNL     1       6.778   4.935  18.788  0.00  0.00    +0.000 HD
BRANCH  14  19
ATOM     16  C   UNL     1       6.718   4.318  14.161  0.00  0.00    +0.000 A 
ATOM     17  C   UNL     1       7.573   5.051  14.986  0.00  0.00    +0.000 A 
ATOM     18  C   UNL     1       7.375   5.064  16.369  0.00  0.00    +0.000 A 
ATOM     19  C   UNL     1       6.309   4.361  16.946  0.00  0.00    +0.000 A 
ATOM     20  C   UNL     1       5.470   3.610  16.113  0.00  0.00    +0.000 A 
ATOM     21  C   UNL     1       5.663   3.597  14.727  0.00  0.00    +0.000 A 
BRANCH  16  23
ATOM     22  N   UNL     1       7.122   4.277  11.599  0.00  0.00    +0.000 NA
ATOM     23  C   UNL     1       6.937   4.288  12.744  0.00  0.00    +0.000 C 
ENDBRANCH  16  23
ENDBRANCH  14  19
ENDBRANCH   1  14
TORSDOF 3
ENDMDL
MODEL 3
REMARK VINA RESULT:      -6.9      2.702      3.439
REMARK  Name = 
REMARK  3 active torsions:
REMARK  status: ('A' for Active; 'I' for Inactive)
REMARK    1  A    between atoms: C_2  and  C_3
REMARK    2  A    between atoms: C_6  and  N_7
REMARK    3  A    between atoms: N_7  and  C_8
REMARK                            x       y       z     vdW  Elec       q    Type
REMARK                         _______ _______ _______ _____ _____    ______ ____
ROOT
ATOM      1  C   UNL     1       4.860   4.485  18.929  0.00  0.00    +0.000 C 
ATOM      2  C   UNL     1       4.046   5.567  18.816  0.00  0.00    +0.000 C 
ATOM      3 CL   UNL     1       4.529   6.938  17.848  0.00  0.00    +0.000 Cl
ATOM      4  C   UNL     1       2.683   5.711  19.449  0.00  0.00    +0.000 C 
ATOM      5  O   UNL     1       2.029   6.745  19.403  0.00  0.00    +0.000 OA
ATOM      6  C   UNL     1       2.250   4.503  20.130  0.00  0.00    +0.000 A 
ATOM      7  N   UNL     1       1.044   4.285  20.751  0.00  0.00    +0.000 NA
ATOM      8  C   UNL     1       1.104   3.054  21.212  0.00  0.00    +0.000 A 
ATOM      9  N   UNL     1       2.307   2.468  20.929  0.00  0.00    +0.000 N 
ATOM     10  C   UNL     1       3.040   3.386  20.232  0.00  0.00    +0.000 A 
ATOM     11  C   UNL     1       4.353   3.273  19.693  0.00  0.00    +0.000 C 
ATOM     12  O   UNL     1       5.061   2.278  19.815  0.00  0.00    +0.000 OA
ATOM     13  H   UNL     1       2.596   1.530  21.180  0.00  0.00    +0.000 HD
ENDROOT
BRANCH   1  14
ATOM     14  N   UNL     1       6.145   4.326  18.386  0.00  0.00    +0.000 N 
ATOM     15  H   UNL     1       6.760   5.062  18.760  0.00  0.00    +0.000 HD
BRANCH  14  19
ATOM     16  C   UNL     1       6.792   4.356  14.201  0.00  0.00    +0.000 A 
ATOM     17  C   UNL     1       5.715   3.638  14.727  0.00  0.00    +0.000 A 
ATOM     18  C   UNL     1       5.502   3.600  16.107  0.00  0.00    +0.000 A 
ATOM     19  C   UNL     1       6.372   4.262  16.983  0.00  0.00    +0.000 A 
ATOM     20  C   UNL     1       7.436   4.998  16.447  0.00  0.00    +0.000 A 
ATOM     21  C   UNL     1       7.654   5.035  15.065  0.00  0.00    +0.000 A 
BRANCH  16  23
ATOM     22  N   UNL     1       7.165   4.470  11.637  0.00  0.00    +0.000 NA
ATOM     23  C   UNL     1       6.995   4.411  12.783  0.00  0.00    +0.000 C 
ENDBRANCH  16  23
ENDBRANCH  14  19
ENDBRANCH   1  14
TORSDOF 3
ENDMDL
MODEL 4
REMARK VINA RESULT:      -6.8      4.731      5.526
REMARK  Name = 
REMARK  3 active torsions:
REMARK  status: ('A' for Active; 'I' for Inactive)
REMARK    1  A    between atoms: C_2  and  C_3
REMARK    2  A    between atoms: C_6  and  N_7
REMARK    3  A    between atoms: N_7  and  C_8
REMARK                            x       y       z     vdW  Elec       q    Type
REMARK                         _______ _______ _______ _____ _____    ______ ____
ROOT
ATOM      1  C   UNL     1       2.880   5.975  19.227  0.00  0.00    +0.000 C 
ATOM      2  C   UNL     1       3.652   5.648  18.158  0.00  0.00    +0.000 C 
ATOM      3 CL   UNL     1       4.789   6.800  17.504  0.00  0.00    +0.000 Cl
ATOM      4  C   UNL     1       3.653   4.314  17.451  0.00  0.00    +0.000 C 
ATOM      5  O   UNL     1       4.291   4.098  16.429  0.00  0.00    +0.000 OA
ATOM      6  C   UNL     1       2.802   3.333  18.102  0.00  0.00    +0.000 A 
ATOM      7  N   UNL     1       2.630   2.016  17.750  0.00  0.00    +0.000 NA
ATOM      8  C   UNL     1       1.782   1.525  18.628  0.00  0.00    +0.000 A 
ATOM      9  N   UNL     1       1.383   2.474  19.528  0.00  0.00    +0.000 N 
ATOM     10  C   UNL     1       2.037   3.629  19.202  0.00  0.00    +0.000 A 
ATOM     11  C   UNL     1       1.984   4.905  19.829  0.00  0.00    +0.000 C 
ATOM     12  O   UNL     1       1.273   5.166  20.796  0.00  0.00    +0.000 OA
ATOM     13  H   UNL     1       0.733   2.345  20.295  0.00  0.00    +0.000 HD
ENDROOT
BRANCH   1  14
ATOM     14  N   UNL     1       2.825   7.212  19.891  0.00  0.00    +0.000 N 
ATOM     15  H   UNL     1       2.779   7.045  20.906  0.00  0.00    +0.000 HD
BRANCH  14  19
ATOM     16  C   UNL     1       0.068  10.275  18.918  0.00  0.00    +0.000 A 
ATOM     17  C   UNL     1       0.130   9.795  20.228  0.00  0.00    +0.000 A 
ATOM     18  C   UNL     1       1.019   8.768  20.559  0.00  0.00    +0.000 A 
ATOM     19  C   UNL     1       1.844   8.194  19.583  0.00  0.00    +0.000 A 
ATOM     20  C   UNL     1       1.791   8.697  18.278  0.00  0.00    +0.000 A 
ATOM     21  C   UNL     1       0.900   9.722  17.941  0.00  0.00    +0.000 A 
BRANCH  16  23
ATOM     22  N   UNL     1      -1.557  12.210  18.333  0.00  0.00    +0.000 NA
ATOM     23  C   UNL     1      -0.829  11.343  18.586  0.00  0.00    +0.000 C 
ENDBRANCH  16  23
ENDBRANCH  14  19
ENDBRANCH   1  14
TORSDOF 3
ENDMDL
MODEL 5
REMARK VINA RESULT:      -6.8      4.708      5.537
REMARK  Name = 
REMARK  3 active torsions:
REMARK  status: ('A' for Active; 'I' for Inactive)
REMARK    1  A    between atoms: C_2  and  C_3
REMARK    2  A    between atoms: C_6  and  N_7
REMARK    3  A    between atoms: N_7  and  C_8
REMARK                            x       y       z     vdW  Elec       q    Type
REMARK                         _______ _______ _______ _____ _____    ______ ____
ROOT
ATOM      1  C   UNL     1       2.837   6.015  19.256  0.00  0.00    +0.000 C 
ATOM      2  C   UNL     1       3.606   5.693  18.183  0.00  0.00    +0.000 C 
ATOM      3 CL   UNL     1       4.744   6.845  17.533  0.00  0.00    +0.000 Cl
ATOM      4  C   UNL     1       3.600   4.363  17.467  0.00  0.00    +0.000 C 
ATOM      5  O   UNL     1       4.235   4.151  16.442  0.00  0.00    +0.000 OA
ATOM      6  C   UNL     1       2.748   3.381  18.115  0.00  0.00    +0.000 A 
ATOM      7  N   UNL     1       2.571   2.066  17.754  0.00  0.00    +0.000 NA
ATOM      8  C   UNL     1       1.724   1.572  18.632  0.00  0.00    +0.000 A 
ATOM      9  N   UNL     1       1.330   2.517  19.539  0.00  0.00    +0.000 N 
ATOM     10  C   UNL     1       1.987   3.672  19.219  0.00  0.00    +0.000 A 
ATOM     11  C   UNL     1       1.939   4.945  19.854  0.00  0.00    +0.000 C 
ATOM     12  O   UNL     1       1.232   5.201  20.824  0.00  0.00    +0.000 OA
ATOM     13  H   UNL     1       0.682   2.385  20.307  0.00  0.00    +0.000 HD
ENDROOT
BRANCH   1  14
ATOM     14  N   UNL     1       2.788   7.248  19.927  0.00  0.00    +0.000 N 
ATOM     15  H   UNL     1       2.648   7.075  20.933  0.00  0.00    +0.000 HD
BRANCH  14  19
ATOM     16  C   UNL     1      -0.062  10.193  18.861  0.00  0.00    +0.000 A 
ATOM     17  C   UNL     1       0.788   9.670  17.883  0.00  0.00    +0.000 A 
ATOM     18  C   UNL     1       1.749   8.715  18.225  0.00  0.00    +0.000 A 
ATOM     19  C   UNL     1       1.887   8.281  19.550  0.00  0.00    +0.000 A 
ATOM     20  C   UNL     1       1.016   8.793  20.519  0.00  0.00    +0.000 A 
ATOM     21  C   UNL     1       0.055   9.753  20.182  0.00  0.00    +0.000 A 
BRANCH  16  23
ATOM     22  N   UNL     1      -1.873  11.939  18.230  0.00  0.00    +0.000 NA
ATOM     23  C   UNL     1      -1.061  11.156  18.504  0.00  0.00    +0.000 C 
ENDBRANCH  16  23
ENDBRANCH  14  19
ENDBRANCH   1  14
TORSDOF 3
ENDMDL
MODEL 6
REMARK VINA RESULT:      -6.8      2.826      3.722
REMARK  Name = 
REMARK  3 active torsions:
REMARK  status: ('A' for Active; 'I' for Inactive)
REMARK    1  A    between atoms: C_2  and  C_3
REMARK    2  A    between atoms: C_6  and  N_7
REMARK    3  A    between atoms: N_7  and  C_8
REMARK                            x       y       z     vdW  Elec       q    Type
REMARK                         _______ _______ _______ _____ _____    ______ ____
ROOT
ATOM      1  C   UNL     1       4.448   5.485  18.887  0.00  0.00    +0.000 C 
ATOM      2  C   UNL     1       3.313   6.198  19.114  0.00  0.00    +0.000 C 
ATOM      3 CL   UNL     1       3.050   7.722  18.304  0.00  0.00    +0.000 Cl
ATOM      4  C   UNL     1       2.181   5.779  20.021  0.00  0.00    +0.000 C 
ATOM      5  O   UNL     1       1.224   6.500  20.275  0.00  0.00    +0.000 OA
ATOM      6  C   UNL     1       2.364   4.447  20.570  0.00  0.00    +0.000 A 
ATOM      7  N   UNL     1       1.495   3.752  21.375  0.00  0.00    +0.000 NA
ATOM      8  C   UNL     1       2.079   2.596  21.609  0.00  0.00    +0.000 A 
ATOM      9  N   UNL     1       3.302   2.518  21.001  0.00  0.00    +0.000 N 
ATOM     10  C   UNL     1       3.486   3.694  20.330  0.00  0.00    +0.000 A 
ATOM     11  C   UNL     1       4.585   4.115  19.529  0.00  0.00    +0.000 C 
ATOM     12  O   UNL     1       5.596   3.444  19.345  0.00  0.00    +0.000 OA
ATOM     13  H   UNL     1       3.945   1.736  21.034  0.00  0.00    +0.000 HD
ENDROOT
BRANCH   1  14
ATOM     14  N   UNL     1       5.537   5.853  18.079  0.00  0.00    +0.000 N 
ATOM     15  H   UNL     1       5.516   6.873  17.935  0.00  0.00    +0.000 HD
BRANCH  14  19
ATOM     16  C   UNL     1       6.288   4.276  14.222  0.00  0.00    +0.000 A 
ATOM     17  C   UNL     1       5.030   4.106  14.803  0.00  0.00    +0.000 A 
ATOM     18  C   UNL     1       4.774   4.600  16.084  0.00  0.00    +0.000 A 
ATOM     19  C   UNL     1       5.776   5.256  16.811  0.00  0.00    +0.000 A 
ATOM     20  C   UNL     1       7.028   5.442  16.213  0.00  0.00    +0.000 A 
ATOM     21  C   UNL     1       7.289   4.945  14.931  0.00  0.00    +0.000 A 
BRANCH  16  23
ATOM     22  N   UNL     1       6.733   3.396  11.823  0.00  0.00    +0.000 NA
ATOM     23  C   UNL     1       6.542   3.786  12.899  0.00  0.00    +0.000 C 
ENDBRANCH  16  23
ENDBRANCH  14  19
ENDBRANCH   1  14
TORSDOF 3
ENDMDL
MODEL 7
REMARK VINA RESULT:      -6.7      0.299      1.094
REMARK  Name = 
REMARK  3 active torsions:
REMARK  status: ('A' for Active; 'I' for Inactive)
REMARK    1  A    between atoms: C_2  and  C_3
REMARK    2  A    between atoms: C_6  and  N_7
REMARK    3  A    between atoms: N_7  and  C_8
REMARK                            x       y       z     vdW  Elec       q    Type
REMARK                         _______ _______ _______ _____ _____    ______ ____
ROOT
ATOM      1  C   UNL     1       4.731   3.796  18.421  0.00  0.00    +0.000 C 
ATOM      2  C   UNL     1       3.677   3.833  17.564  0.00  0.00    +0.000 C 
ATOM      3 CL   UNL     1       3.933   4.128  15.862  0.00  0.00    +0.000 Cl
ATOM      4  C   UNL     1       2.232   3.610  17.939  0.00  0.00    +0.000 C 
ATOM      5  O   UNL     1       1.306   3.754  17.152  0.00  0.00    +0.000 OA
ATOM      6  C   UNL     1       2.066   3.229  19.331  0.00  0.00    +0.000 A 
ATOM      7  N   UNL     1       0.895   2.898  19.969  0.00  0.00    +0.000 NA
ATOM      8  C   UNL     1       1.237   2.618  21.209  0.00  0.00    +0.000 A 
ATOM      9  N   UNL     1       2.582   2.770  21.407  0.00  0.00    +0.000 N 
ATOM     10  C   UNL     1       3.117   3.153  20.209  0.00  0.00    +0.000 A 
ATOM     11  C   UNL     1       4.472   3.429  19.873  0.00  0.00    +0.000 C 
ATOM     12  O   UNL     1       5.401   3.385  20.675  0.00  0.00    +0.000 OA
ATOM     13  H   UNL     1       3.086   2.620  22.272  0.00  0.00    +0.000 HD
ENDROOT
BRANCH   1  14
ATOM     14  N   UNL     1       6.083   4.031  18.119  0.00  0.00    +0.000 N 
ATOM     15  H   UNL     1       6.666   3.406  18.693  0.00  0.00    +0.000 HD
BRANCH  14  19
ATOM     16  C   UNL     1       7.877   7.866  18.123  0.00  0.00    +0.000 A 
ATOM     17  C   UNL     1       8.317   6.899  19.029  0.00  0.00    +0.000 A 
ATOM     18  C   UNL     1       7.718   5.636  19.056  0.00  0.00    +0.000 A 
ATOM     19  C   UNL     1       6.661   5.328  18.190  0.00  0.00    +0.000 A 
ATOM     20  C   UNL     1       6.242   6.295  17.268  0.00  0.00    +0.000 A 
ATOM     21  C   UNL     1       6.836   7.562  17.242  0.00  0.00    +0.000 A 
BRANCH  16  23
ATOM     22  N   UNL     1       9.003  10.201  18.055  0.00  0.00    +0.000 NA
ATOM     23  C   UNL     1       8.507   9.153  18.083  0.00  0.00    +0.000 C 
ENDBRANCH  16  23
ENDBRANCH  14  19
ENDBRANCH   1  14
TORSDOF 3
ENDMDL
MODEL 8
REMARK VINA RESULT:      -6.5      3.517      6.249
REMARK  Name = 
REMARK  3 active torsions:
REMARK  status: ('A' for Active; 'I' for Inactive)
REMARK    1  A    between atoms: C_2  and  C_3
REMARK    2  A    between atoms: C_6  and  N_7
REMARK    3  A    between atoms: N_7  and  C_8
REMARK                            x       y       z     vdW  Elec       q    Type
REMARK                         _______ _______ _______ _____ _____    ______ ____
ROOT
ATOM      1  C   UNL     1       4.917   4.509  17.857  0.00  0.00    +0.000 C 
ATOM      2  C   UNL     1       6.096   5.157  18.042  0.00  0.00    +0.000 C 
ATOM      3 CL   UNL     1       6.608   5.618  19.646  0.00  0.00    +0.000 Cl
ATOM      4  C   UNL     1       7.079   5.521  16.954  0.00  0.00    +0.000 C 
ATOM      5  O   UNL     1       8.080   6.196  17.155  0.00  0.00    +0.000 OA
ATOM      6  C   UNL     1       6.693   5.003  15.654  0.00  0.00    +0.000 A 
ATOM      7  N   UNL     1       7.394   5.104  14.476  0.00  0.00    +0.000 NA
ATOM      8  C   UNL     1       6.663   4.481  13.576  0.00  0.00    +0.000 A 
ATOM      9  N   UNL     1       5.506   3.993  14.118  0.00  0.00    +0.000 N 
ATOM     10  C   UNL     1       5.523   4.317  15.446  0.00  0.00    +0.000 A 
ATOM     11  C   UNL     1       4.563   4.032  16.457  0.00  0.00    +0.000 C 
ATOM     12  O   UNL     1       3.506   3.442  16.254  0.00  0.00    +0.000 OA
ATOM     13  H   UNL     1       4.779   3.483  13.631  0.00  0.00    +0.000 HD
ENDROOT
BRANCH   1  14
ATOM     14  N   UNL     1       3.962   4.182  18.834  0.00  0.00    +0.000 N 
ATOM     15  H   UNL     1       3.378   3.409  18.485  0.00  0.00    +0.000 HD
BRANCH  14  19
ATOM     16  C   UNL     1       1.525   7.197  20.536  0.00  0.00    +0.000 A 
ATOM     17  C   UNL     1       1.540   5.921  21.104  0.00  0.00    +0.000 A 
ATOM     18  C   UNL     1       2.321   4.910  20.540  0.00  0.00    +0.000 A 
ATOM     19  C   UNL     1       3.084   5.153  19.390  0.00  0.00    +0.000 A 
ATOM     20  C   UNL     1       3.082   6.441  18.841  0.00  0.00    +0.000 A 
ATOM     21  C   UNL     1       2.297   7.455  19.401  0.00  0.00    +0.000 A 
BRANCH  16  23
ATOM     22  N   UNL     1       0.112   9.092  21.604  0.00  0.00    +0.000 NA
ATOM     23  C   UNL     1       0.739   8.238  21.130  0.00  0.00    +0.000 C 
ENDBRANCH  16  23
ENDBRANCH  14  19
ENDBRANCH   1  14
TORSDOF 3
ENDMDL
MODEL 9
REMARK VINA RESULT:      -6.3      4.490      5.987
REMARK  Name = 
REMARK  3 active torsions:
REMARK  status: ('A' for Active; 'I' for Inactive)
REMARK    1  A    between atoms: C_2  and  C_3
REMARK    2  A    between atoms: C_6  and  N_7
REMARK    3  A    between atoms: N_7  and  C_8
REMARK                            x       y       z     vdW  Elec       q    Type
REMARK                         _______ _______ _______ _____ _____    ______ ____
ROOT
ATOM      1  C   UNL     1       3.312   5.881  18.219  0.00  0.00    +0.000 C 
ATOM      2  C   UNL     1       3.482   4.760  18.967  0.00  0.00    +0.000 C 
ATOM      3 CL   UNL     1       2.119   4.017  19.767  0.00  0.00    +0.000 Cl
ATOM      4  C   UNL     1       4.788   4.031  19.174  0.00  0.00    +0.000 C 
ATOM      5  O   UNL     1       4.913   3.084  19.939  0.00  0.00    +0.000 OA
ATOM      6  C   UNL     1       5.873   4.590  18.386  0.00  0.00    +0.000 A 
ATOM      7  N   UNL     1       7.163   4.125  18.299  0.00  0.00    +0.000 NA
ATOM      8  C   UNL     1       7.775   4.939  17.465  0.00  0.00    +0.000 A 
ATOM      9  N   UNL     1       6.938   5.925  17.018  0.00  0.00    +0.000 N 
ATOM     10  C   UNL     1       5.720   5.702  17.597  0.00  0.00    +0.000 A 
ATOM     11  C   UNL     1       4.506   6.431  17.454  0.00  0.00    +0.000 C 
ATOM     12  O   UNL     1       4.388   7.442  16.768  0.00  0.00    +0.000 OA
ATOM     13  H   UNL     1       7.172   6.672  16.376  0.00  0.00    +0.000 HD
ENDROOT
BRANCH   1  14
ATOM     14  N   UNL     1       2.124   6.606  18.029  0.00  0.00    +0.000 N 
ATOM     15  H   UNL     1       2.049   6.870  17.037  0.00  0.00    +0.000 HD
BRANCH  14  19
ATOM     16  C   UNL     1       1.008   9.951  20.374  0.00  0.00    +0.000 A 
ATOM     17  C   UNL     1       1.150  10.095  18.992  0.00  0.00    +0.000 A 
ATOM     18  C   UNL     1       1.541   9.006  18.208  0.00  0.00    +0.000 A 
ATOM     19  C   UNL     1       1.812   7.763  18.795  0.00  0.00    +0.000 A 
ATOM     20  C   UNL     1       1.644   7.621  20.178  0.00  0.00    +0.000 A 
ATOM     21  C   UNL     1       1.257   8.711  20.966  0.00  0.00    +0.000 A 
BRANCH  16  23
ATOM     22  N   UNL     1       0.245  11.956  21.831  0.00  0.00    +0.000 NA
ATOM     23  C   UNL     1       0.586  11.064  21.172  0.00  0.00    +0.000 C 
ENDBRANCH  16  23
ENDBRANCH  14  19
ENDBRANCH   1  14
TORSDOF 3
ENDMDL
