MODEL 1
REMARK VINA RESULT:      -8.9      0.000      0.000
REMARK  Name = 
REMARK  5 active torsions:
REMARK  status: ('A' for Active; 'I' for Inactive)
REMARK    1  A    between atoms: C_1  and  C_2
REMARK    2  A    between atoms: C_7  and  C_8
REMARK    3  A    between atoms: N_20  and  C_21
REMARK    4  A    between atoms: C_24  and  S_25
REMARK    5  A    between atoms: S_25  and  N_26
REMARK                            x       y       z     vdW  Elec       q    Type
REMARK                         _______ _______ _______ _____ _____    ______ ____
ROOT
ATOM      1  C   UNL     1       2.275   6.645  19.742  0.00  0.00    +0.000 C 
ATOM      2  C   UNL     1       1.233   7.600  20.237  0.00  0.00    +0.000 C 
ATOM      3  C   UNL     1       1.484   8.045  21.654  0.00  0.00    +0.000 C 
ATOM      4  O   UNL     1       0.403   8.895  22.020  0.00  0.00    +0.000 OA
ATOM      5  C   UNL     1       0.383  10.015  21.216  0.00  0.00    +0.000 A 
ATOM      6  C   UNL     1      -0.254  11.104  21.810  0.00  0.00    +0.000 A 
ATOM      7  C   UNL     1      -0.216  12.335  21.179  0.00  0.00    +0.000 A 
ATOM      8  C   UNL     1       0.450  12.455  19.953  0.00  0.00    +0.000 A 
ATOM      9  C   UNL     1       1.038  11.335  19.317  0.00  0.00    +0.000 A 
ATOM     10  C   UNL     1       0.987  10.085  19.934  0.00  0.00    +0.000 A 
ATOM     11  C   UNL     1       1.533   8.795  19.384  0.00  0.00    +0.000 C 
ATOM     12  N   UNL     1       2.244   8.526  18.315  0.00  0.00    +0.000 NA
ATOM     13  N   UNL     1       2.542   7.118  18.361  0.00  0.00    +0.000 N 
ENDROOT
BRANCH   1  20
ATOM     14  C   UNL     1       1.105   4.533  17.663  0.00  0.00    +0.000 C 
ATOM     15  C   UNL     1       1.474   4.220  19.087  0.00  0.00    +0.000 A 
ATOM     16  C   UNL     1       1.403   2.871  19.500  0.00  0.00    +0.000 A 
ATOM     17  C   UNL     1       1.657   2.491  20.818  0.00  0.00    +0.000 A 
ATOM     18  C   UNL     1       1.954   3.457  21.763  0.00  0.00    +0.000 A 
ATOM     19  C   UNL     1       2.068   4.785  21.367  0.00  0.00    +0.000 A 
ATOM     20  C   UNL     1       1.894   5.191  20.018  0.00  0.00    +0.000 A 
ENDBRANCH   1  20
BRANCH  13  21
ATOM     21  C   UNL     1       3.772   6.655  17.786  0.00  0.00    +0.000 A 
ATOM     22  C   UNL     1       4.110   6.932  16.440  0.00  0.00    +0.000 A 
ATOM     23  C   UNL     1       5.217   6.392  15.787  0.00  0.00    +0.000 A 
ATOM     24  C   UNL     1       6.085   5.586  16.496  0.00  0.00    +0.000 A 
ATOM     25  C   UNL     1       5.869   5.371  17.861  0.00  0.00    +0.000 A 
ATOM     26  C   UNL     1       4.723   5.910  18.500  0.00  0.00    +0.000 A 
BRANCH  24  27
ATOM     27  S   UNL     1       7.349   4.757  15.586  0.00  0.00    +0.000 S 
ATOM     28  O   UNL     1       7.862   5.649  14.564  0.00  0.00    +0.000 OA
ATOM     29  O   UNL     1       8.227   4.054  16.503  0.00  0.00    +0.000 OA
BRANCH  27  30
ATOM     30  N   UNL     1       6.502   3.568  14.755  0.00  0.00    +0.000 NA
ATOM     31  H   UNL     1       6.937   3.418  13.844  0.00  0.00    +0.000 HD
ATOM     32  H   UNL     1       6.450   2.722  15.324  0.00  0.00    +0.000 HD
ENDBRANCH  27  30
ENDBRANCH  24  27
ENDBRANCH  13  21
TORSDOF 4
ENDMDL
MODEL 2
REMARK VINA RESULT:      -8.2      0.965      1.330
REMARK  Name = 
REMARK  5 active torsions:
REMARK  status: ('A' for Active; 'I' for Inactive)
REMARK    1  A    between atoms: C_1  and  C_2
REMARK    2  A    between atoms: C_7  and  C_8
REMARK    3  A    between atoms: N_20  and  C_21
REMARK    4  A    between atoms: C_24  and  S_25
REMARK    5  A    between atoms: S_25  and  N_26
REMARK                            x       y       z     vdW  Elec       q    Type
REMARK                         _______ _______ _______ _____ _____    ______ ____
ROOT
ATOM      1  C   UNL     1       2.478   6.397  19.662  0.00  0.00    +0.000 C 
ATOM      2  C   UNL     1       1.476   7.291  20.325  0.00  0.00    +0.000 C 
ATOM      3  C   UNL     1       1.995   7.894  21.603  0.00  0.00    +0.000 C 
ATOM      4  O   UNL     1       0.936   8.667  22.158  0.00  0.00    +0.000 OA
ATOM      5  C   UNL     1       0.599   9.696  21.305  0.00  0.00    +0.000 A 
ATOM      6  C   UNL     1      -0.005  10.771  21.955  0.00  0.00    +0.000 A 
ATOM      7  C   UNL     1      -0.259  11.933  21.246  0.00  0.00    +0.000 A 
ATOM      8  C   UNL     1       0.085  11.996  19.890  0.00  0.00    +0.000 A 
ATOM      9  C   UNL     1       0.636  10.882  19.213  0.00  0.00    +0.000 A 
ATOM     10  C   UNL     1       0.876   9.699  19.912  0.00  0.00    +0.000 A 
ATOM     11  C   UNL     1       1.427   8.420  19.341  0.00  0.00    +0.000 C 
ATOM     12  N   UNL     1       1.896   8.118  18.154  0.00  0.00    +0.000 NA
ATOM     13  N   UNL     1       2.359   6.757  18.228  0.00  0.00    +0.000 N 
ENDROOT
BRANCH   1  20
ATOM     14  C   UNL     1       4.798   4.225  19.886  0.00  0.00    +0.000 C 
ATOM     15  C   UNL     1       3.378   4.010  20.328  0.00  0.00    +0.000 A 
ATOM     16  C   UNL     1       3.075   2.800  20.991  0.00  0.00    +0.000 A 
ATOM     17  C   UNL     1       1.773   2.478  21.376  0.00  0.00    +0.000 A 
ATOM     18  C   UNL     1       0.737   3.343  21.075  0.00  0.00    +0.000 A 
ATOM     19  C   UNL     1       1.021   4.557  20.457  0.00  0.00    +0.000 A 
ATOM     20  C   UNL     1       2.344   4.947  20.126  0.00  0.00    +0.000 A 
ENDBRANCH   1  20
BRANCH  13  21
ATOM     21  C   UNL     1       3.468   6.361  17.407  0.00  0.00    +0.000 A 
ATOM     22  C   UNL     1       3.541   5.069  16.835  0.00  0.00    +0.000 A 
ATOM     23  C   UNL     1       4.653   4.581  16.151  0.00  0.00    +0.000 A 
ATOM     24  C   UNL     1       5.737   5.414  15.952  0.00  0.00    +0.000 A 
ATOM     25  C   UNL     1       5.676   6.742  16.391  0.00  0.00    +0.000 A 
ATOM     26  C   UNL     1       4.545   7.210  17.107  0.00  0.00    +0.000 A 
BRANCH  24  27
ATOM     27  S   UNL     1       7.198   4.698  15.271  0.00  0.00    +0.000 S 
ATOM     28  O   UNL     1       7.790   5.630  14.330  0.00  0.00    +0.000 OA
ATOM     29  O   UNL     1       7.974   4.077  16.328  0.00  0.00    +0.000 OA
BRANCH  27  30
ATOM     30  N   UNL     1       6.602   3.438  14.334  0.00  0.00    +0.000 NA
ATOM     31  H   UNL     1       6.287   2.683  14.945  0.00  0.00    +0.000 HD
ATOM     32  H   UNL     1       5.873   3.787  13.711  0.00  0.00    +0.000 HD
ENDBRANCH  27  30
ENDBRANCH  24  27
ENDBRANCH  13  21
TORSDOF 4
ENDMDL
MODEL 3
REMARK VINA RESULT:      -8.0      6.141      9.286
REMARK  Name = 
REMARK  5 active torsions:
REMARK  status: ('A' for Active; 'I' for Inactive)
REMARK    1  A    between atoms: C_1  and  C_2
REMARK    2  A    between atoms: C_7  and  C_8
REMARK    3  A    between atoms: N_20  and  C_21
REMARK    4  A    between atoms: C_24  and  S_25
REMARK    5  A    between atoms: S_25  and  N_26
REMARK                            x       y       z     vdW  Elec       q    Type
REMARK                         _______ _______ _______ _____ _____    ______ ____
ROOT
ATOM      1  C   UNL     1      -0.082  12.025  19.605  0.00  0.00    +0.000 C 
ATOM      2  C   UNL     1       1.156  12.862  19.505  0.00  0.00    +0.000 C 
ATOM      3  C   UNL     1       1.973  12.542  18.281  0.00  0.00    +0.000 C 
ATOM      4  O   UNL     1       3.139  13.355  18.335  0.00  0.00    +0.000 OA
ATOM      5  C   UNL     1       2.793  14.689  18.282  0.00  0.00    +0.000 A 
ATOM      6  C   UNL     1       3.818  15.503  17.800  0.00  0.00    +0.000 A 
ATOM      7  C   UNL     1       3.560  16.840  17.553  0.00  0.00    +0.000 A 
ATOM      8  C   UNL     1       2.279  17.347  17.804  0.00  0.00    +0.000 A 
ATOM      9  C   UNL     1       1.257  16.537  18.357  0.00  0.00    +0.000 A 
ATOM     10  C   UNL     1       1.513  15.194  18.631  0.00  0.00    +0.000 A 
ATOM     11  C   UNL     1       0.553  14.208  19.242  0.00  0.00    +0.000 C 
ATOM     12  N   UNL     1      -0.715  14.299  19.560  0.00  0.00    +0.000 NA
ATOM     13  N   UNL     1      -1.117  12.999  20.030  0.00  0.00    +0.000 N 
ENDROOT
BRANCH   1  20
ATOM     14  C   UNL     1       1.091   9.281  18.489  0.00  0.00    +0.000 C 
ATOM     15  C   UNL     1       0.775   9.554  19.934  0.00  0.00    +0.000 A 
ATOM     16  C   UNL     1       1.127   8.564  20.878  0.00  0.00    +0.000 A 
ATOM     17  C   UNL     1       0.811   8.694  22.232  0.00  0.00    +0.000 A 
ATOM     18  C   UNL     1       0.105   9.802  22.666  0.00  0.00    +0.000 A 
ATOM     19  C   UNL     1      -0.216  10.805  21.758  0.00  0.00    +0.000 A 
ATOM     20  C   UNL     1       0.162  10.738  20.391  0.00  0.00    +0.000 A 
ENDBRANCH   1  20
BRANCH  13  21
ATOM     21  C   UNL     1      -2.473  12.578  19.818  0.00  0.00    +0.000 A 
ATOM     22  C   UNL     1      -2.840  11.808  18.689  0.00  0.00    +0.000 A 
ATOM     23  C   UNL     1      -4.157  11.492  18.356  0.00  0.00    +0.000 A 
ATOM     24  C   UNL     1      -5.175  11.892  19.199  0.00  0.00    +0.000 A 
ATOM     25  C   UNL     1      -4.865  12.554  20.391  0.00  0.00    +0.000 A 
ATOM     26  C   UNL     1      -3.521  12.887  20.699  0.00  0.00    +0.000 A 
BRANCH  24  27
ATOM     27  S   UNL     1      -6.832  11.658  18.638  0.00  0.00    +0.000 S 
ATOM     28  O   UNL     1      -7.108  10.236  18.551  0.00  0.00    +0.000 OA
ATOM     29  O   UNL     1      -7.716  12.570  19.338  0.00  0.00    +0.000 OA
BRANCH  27  30
ATOM     30  N   UNL     1      -6.775  12.198  17.049  0.00  0.00    +0.000 NA
ATOM     31  H   UNL     1      -6.974  11.419  16.420  0.00  0.00    +0.000 HD
ATOM     32  H   UNL     1      -7.411  12.987  16.931  0.00  0.00    +0.000 HD
ENDBRANCH  27  30
ENDBRANCH  24  27
ENDBRANCH  13  21
TORSDOF 4
ENDMDL
MODEL 4
REMARK VINA RESULT:      -7.9      3.693      6.393
REMARK  Name = 
REMARK  5 active torsions:
REMARK  status: ('A' for Active; 'I' for Inactive)
REMARK    1  A    between atoms: C_1  and  C_2
REMARK    2  A    between atoms: C_7  and  C_8
REMARK    3  A    between atoms: N_20  and  C_21
REMARK    4  A    between atoms: C_24  and  S_25
REMARK    5  A    between atoms: S_25  and  N_26
REMARK                            x       y       z     vdW  Elec       q    Type
REMARK                         _______ _______ _______ _____ _____    ______ ____
ROOT
ATOM      1  C   UNL     1       0.376  11.460  18.780  0.00  0.00    +0.000 C 
ATOM      2  C   UNL     1       0.620  12.897  18.440  0.00  0.00    +0.000 C 
ATOM      3  C   UNL     1       0.370  13.818  19.605  0.00  0.00    +0.000 C 
ATOM      4  O   UNL     1       0.578  15.146  19.138  0.00  0.00    +0.000 OA
ATOM      5  C   UNL     1       1.886  15.310  18.735  0.00  0.00    +0.000 A 
ATOM      6  C   UNL     1       2.310  16.638  18.779  0.00  0.00    +0.000 A 
ATOM      7  C   UNL     1       3.643  16.930  18.545  0.00  0.00    +0.000 A 
ATOM      8  C   UNL     1       4.531  15.886  18.259  0.00  0.00    +0.000 A 
ATOM      9  C   UNL     1       4.089  14.546  18.148  0.00  0.00    +0.000 A 
ATOM     10  C   UNL     1       2.744  14.243  18.359  0.00  0.00    +0.000 A 
ATOM     11  C   UNL     1       2.107  12.884  18.253  0.00  0.00    +0.000 C 
ATOM     12  N   UNL     1       2.612  11.690  18.056  0.00  0.00    +0.000 NA
ATOM     13  N   UNL     1       1.516  10.760  18.137  0.00  0.00    +0.000 N 
ENDROOT
BRANCH   1  20
ATOM     14  C   UNL     1      -2.223  12.288  20.425  0.00  0.00    +0.000 C 
ATOM     15  C   UNL     1      -2.233  11.486  19.154  0.00  0.00    +0.000 A 
ATOM     16  C   UNL     1      -3.489  11.171  18.589  0.00  0.00    +0.000 A 
ATOM     17  C   UNL     1      -3.604  10.372  17.452  0.00  0.00    +0.000 A 
ATOM     18  C   UNL     1      -2.466   9.838  16.872  0.00  0.00    +0.000 A 
ATOM     19  C   UNL     1      -1.219  10.168  17.391  0.00  0.00    +0.000 A 
ATOM     20  C   UNL     1      -1.066  11.043  18.498  0.00  0.00    +0.000 A 
ENDBRANCH   1  20
BRANCH  13  21
ATOM     21  C   UNL     1       1.772   9.435  18.627  0.00  0.00    +0.000 A 
ATOM     22  C   UNL     1       2.409   8.460  17.824  0.00  0.00    +0.000 A 
ATOM     23  C   UNL     1       2.556   7.123  18.190  0.00  0.00    +0.000 A 
ATOM     24  C   UNL     1       2.116   6.717  19.435  0.00  0.00    +0.000 A 
ATOM     25  C   UNL     1       1.584   7.661  20.320  0.00  0.00    +0.000 A 
ATOM     26  C   UNL     1       1.421   9.011  19.918  0.00  0.00    +0.000 A 
BRANCH  24  27
ATOM     27  S   UNL     1       2.128   4.986  19.775  0.00  0.00    +0.000 S 
ATOM     28  O   UNL     1       3.494   4.558  20.011  0.00  0.00    +0.000 OA
ATOM     29  O   UNL     1       1.052   4.664  20.694  0.00  0.00    +0.000 OA
BRANCH  27  30
ATOM     30  N   UNL     1       1.696   4.306  18.302  0.00  0.00    +0.000 NA
ATOM     31  H   UNL     1       0.866   4.779  17.942  0.00  0.00    +0.000 HD
ATOM     32  H   UNL     1       2.490   4.338  17.662  0.00  0.00    +0.000 HD
ENDBRANCH  27  30
ENDBRANCH  24  27
ENDBRANCH  13  21
TORSDOF 4
ENDMDL
MODEL 5
REMARK VINA RESULT:      -7.9      6.349      9.529
REMARK  Name = 
REMARK  5 active torsions:
REMARK  status: ('A' for Active; 'I' for Inactive)
REMARK    1  A    between atoms: C_1  and  C_2
REMARK    2  A    between atoms: C_7  and  C_8
REMARK    3  A    between atoms: N_20  and  C_21
REMARK    4  A    between atoms: C_24  and  S_25
REMARK    5  A    between atoms: S_25  and  N_26
REMARK                            x       y       z     vdW  Elec       q    Type
REMARK                         _______ _______ _______ _____ _____    ______ ____
ROOT
ATOM      1  C   UNL     1      -0.279  12.188  19.919  0.00  0.00    +0.000 C 
ATOM      2  C   UNL     1       1.019  12.921  19.782  0.00  0.00    +0.000 C 
ATOM      3  C   UNL     1       1.827  12.450  18.601  0.00  0.00    +0.000 C 
ATOM      4  O   UNL     1       3.050  13.177  18.617  0.00  0.00    +0.000 OA
ATOM      5  C   UNL     1       2.806  14.525  18.459  0.00  0.00    +0.000 A 
ATOM      6  C   UNL     1       3.895  15.222  17.938  0.00  0.00    +0.000 A 
ATOM      7  C   UNL     1       3.741  16.553  17.588  0.00  0.00    +0.000 A 
ATOM      8  C   UNL     1       2.499  17.170  17.776  0.00  0.00    +0.000 A 
ATOM      9  C   UNL     1       1.412  16.482  18.368  0.00  0.00    +0.000 A 
ATOM     10  C   UNL     1       1.562  15.148  18.745  0.00  0.00    +0.000 A 
ATOM     11  C   UNL     1       0.523  14.285  19.408  0.00  0.00    +0.000 C 
ATOM     12  N   UNL     1      -0.739  14.493  19.694  0.00  0.00    +0.000 NA
ATOM     13  N   UNL     1      -1.244  13.265  20.251  0.00  0.00    +0.000 N 
ENDROOT
BRANCH   1  20
ATOM     14  C   UNL     1       0.849   9.332  19.070  0.00  0.00    +0.000 C 
ATOM     15  C   UNL     1       0.449   9.714  20.468  0.00  0.00    +0.000 A 
ATOM     16  C   UNL     1       0.694   8.778  21.497  0.00  0.00    +0.000 A 
ATOM     17  C   UNL     1       0.294   9.012  22.814  0.00  0.00    +0.000 A 
ATOM     18  C   UNL     1      -0.393  10.172  23.124  0.00  0.00    +0.000 A 
ATOM     19  C   UNL     1      -0.609  11.122  22.132  0.00  0.00    +0.000 A 
ATOM     20  C   UNL     1      -0.144  10.948  20.803  0.00  0.00    +0.000 A 
ENDBRANCH   1  20
BRANCH  13  21
ATOM     21  C   UNL     1      -2.624  12.930  20.044  0.00  0.00    +0.000 A 
ATOM     22  C   UNL     1      -3.632  13.362  20.938  0.00  0.00    +0.000 A 
ATOM     23  C   UNL     1      -4.963  12.953  20.870  0.00  0.00    +0.000 A 
ATOM     24  C   UNL     1      -5.357  12.126  19.837  0.00  0.00    +0.000 A 
ATOM     25  C   UNL     1      -4.431  11.760  18.854  0.00  0.00    +0.000 A 
ATOM     26  C   UNL     1      -3.076  12.167  18.957  0.00  0.00    +0.000 A 
BRANCH  24  27
ATOM     27  S   UNL     1      -6.991  11.464  19.905  0.00  0.00    +0.000 S 
ATOM     28  O   UNL     1      -7.234  10.933  21.233  0.00  0.00    +0.000 OA
ATOM     29  O   UNL     1      -7.914  12.382  19.265  0.00  0.00    +0.000 OA
BRANCH  27  30
ATOM     30  N   UNL     1      -6.901  10.123  18.898  0.00  0.00    +0.000 NA
ATOM     31  H   UNL     1      -7.797   9.634  18.905  0.00  0.00    +0.000 HD
ATOM     32  H   UNL     1      -6.604  10.413  17.965  0.00  0.00    +0.000 HD
ENDBRANCH  27  30
ENDBRANCH  24  27
ENDBRANCH  13  21
TORSDOF 4
ENDMDL
MODEL 6
REMARK VINA RESULT:      -7.8      6.760     10.113
REMARK  Name = 
REMARK  5 active torsions:
REMARK  status: ('A' for Active; 'I' for Inactive)
REMARK    1  A    between atoms: C_1  and  C_2
REMARK    2  A    between atoms: C_7  and  C_8
REMARK    3  A    between atoms: N_20  and  C_21
REMARK    4  A    between atoms: C_24  and  S_25
REMARK    5  A    between atoms: S_25  and  N_26
REMARK                            x       y       z     vdW  Elec       q    Type
REMARK                         _______ _______ _______ _____ _____    ______ ____
ROOT
ATOM      1  C   UNL     1       0.633  13.128  20.078  0.00  0.00    +0.000 C 
ATOM      2  C   UNL     1       2.011  13.567  19.691  0.00  0.00    +0.000 C 
ATOM      3  C   UNL     1       2.012  14.478  18.492  0.00  0.00    +0.000 C 
ATOM      4  O   UNL     1       3.372  14.773  18.195  0.00  0.00    +0.000 OA
ATOM      5  C   UNL     1       3.954  15.448  19.246  0.00  0.00    +0.000 A 
ATOM      6  C   UNL     1       5.049  16.222  18.862  0.00  0.00    +0.000 A 
ATOM      7  C   UNL     1       5.637  17.068  19.786  0.00  0.00    +0.000 A 
ATOM      8  C   UNL     1       5.126  17.119  21.089  0.00  0.00    +0.000 A 
ATOM      9  C   UNL     1       4.057  16.284  21.498  0.00  0.00    +0.000 A 
ATOM     10  C   UNL     1       3.473  15.411  20.581  0.00  0.00    +0.000 A 
ATOM     11  C   UNL     1       2.355  14.442  20.858  0.00  0.00    +0.000 C 
ATOM     12  N   UNL     1       1.610  14.240  21.918  0.00  0.00    +0.000 NA
ATOM     13  N   UNL     1       0.645  13.234  21.558  0.00  0.00    +0.000 N 
ENDROOT
BRANCH   1  20
ATOM     14  C   UNL     1      -2.303  12.218  19.241  0.00  0.00    +0.000 C 
ATOM     15  C   UNL     1      -1.046  11.461  18.915  0.00  0.00    +0.000 A 
ATOM     16  C   UNL     1      -1.164  10.325  18.084  0.00  0.00    +0.000 A 
ATOM     17  C   UNL     1      -0.066   9.517  17.783  0.00  0.00    +0.000 A 
ATOM     18  C   UNL     1       1.169   9.807  18.336  0.00  0.00    +0.000 A 
ATOM     19  C   UNL     1       1.312  10.943  19.125  0.00  0.00    +0.000 A 
ATOM     20  C   UNL     1       0.232  11.828  19.383  0.00  0.00    +0.000 A 
ENDBRANCH   1  20
BRANCH  13  21
ATOM     21  C   UNL     1      -0.649  13.267  22.177  0.00  0.00    +0.000 A 
ATOM     22  C   UNL     1      -1.212  12.116  22.778  0.00  0.00    +0.000 A 
ATOM     23  C   UNL     1      -2.516  12.050  23.266  0.00  0.00    +0.000 A 
ATOM     24  C   UNL     1      -3.304  13.183  23.229  0.00  0.00    +0.000 A 
ATOM     25  C   UNL     1      -2.764  14.384  22.755  0.00  0.00    +0.000 A 
ATOM     26  C   UNL     1      -1.442  14.423  22.240  0.00  0.00    +0.000 A 
BRANCH  24  27
ATOM     27  S   UNL     1      -5.005  13.004  23.659  0.00  0.00    +0.000 S 
ATOM     28  O   UNL     1      -5.525  14.290  24.086  0.00  0.00    +0.000 OA
ATOM     29  O   UNL     1      -5.678  12.198  22.658  0.00  0.00    +0.000 OA
BRANCH  27  30
ATOM     30  N   UNL     1      -4.949  12.063  25.048  0.00  0.00    +0.000 NA
ATOM     31  H   UNL     1      -3.975  11.873  25.289  0.00  0.00    +0.000 HD
ATOM     32  H   UNL     1      -5.469  12.523  25.797  0.00  0.00    +0.000 HD
ENDBRANCH  27  30
ENDBRANCH  24  27
ENDBRANCH  13  21
TORSDOF 4
ENDMDL
MODEL 7
REMARK VINA RESULT:      -7.8      6.357      9.502
REMARK  Name = 
REMARK  5 active torsions:
REMARK  status: ('A' for Active; 'I' for Inactive)
REMARK    1  A    between atoms: C_1  and  C_2
REMARK    2  A    between atoms: C_7  and  C_8
REMARK    3  A    between atoms: N_20  and  C_21
REMARK    4  A    between atoms: C_24  and  S_25
REMARK    5  A    between atoms: S_25  and  N_26
REMARK                            x       y       z     vdW  Elec       q    Type
REMARK                         _______ _______ _______ _____ _____    ______ ____
ROOT
ATOM      1  C   UNL     1      -0.242  12.081  19.875  0.00  0.00    +0.000 C 
ATOM      2  C   UNL     1       1.002  12.899  19.719  0.00  0.00    +0.000 C 
ATOM      3  C   UNL     1       1.835  12.465  18.541  0.00  0.00    +0.000 C 
ATOM      4  O   UNL     1       3.005  13.275  18.539  0.00  0.00    +0.000 OA
ATOM      5  C   UNL     1       2.668  14.600  18.361  0.00  0.00    +0.000 A 
ATOM      6  C   UNL     1       3.705  15.362  17.823  0.00  0.00    +0.000 A 
ATOM      7  C   UNL     1       3.459  16.672  17.453  0.00  0.00    +0.000 A 
ATOM      8  C   UNL     1       2.177  17.206  17.638  0.00  0.00    +0.000 A 
ATOM      9  C   UNL     1       1.143  16.455  18.246  0.00  0.00    +0.000 A 
ATOM     10  C   UNL     1       1.386  15.140  18.644  0.00  0.00    +0.000 A 
ATOM     11  C   UNL     1       0.411  14.219  19.326  0.00  0.00    +0.000 C 
ATOM     12  N   UNL     1      -0.861  14.345  19.616  0.00  0.00    +0.000 NA
ATOM     13  N   UNL     1      -1.278  13.094  20.195  0.00  0.00    +0.000 N 
ENDROOT
BRANCH   1  20
ATOM     14  C   UNL     1      -1.001  11.809  22.957  0.00  0.00    +0.000 C 
ATOM     15  C   UNL     1      -0.443  10.698  22.111  0.00  0.00    +0.000 A 
ATOM     16  C   UNL     1      -0.352   9.415  22.693  0.00  0.00    +0.000 A 
ATOM     17  C   UNL     1       0.218   8.338  22.013  0.00  0.00    +0.000 A 
ATOM     18  C   UNL     1       0.742   8.528  20.747  0.00  0.00    +0.000 A 
ATOM     19  C   UNL     1       0.627   9.775  20.142  0.00  0.00    +0.000 A 
ATOM     20  C   UNL     1      -0.018  10.868  20.778  0.00  0.00    +0.000 A 
ENDBRANCH   1  20
BRANCH  13  21
ATOM     21  C   UNL     1      -2.633  12.662  20.001  0.00  0.00    +0.000 A 
ATOM     22  C   UNL     1      -3.007  11.879  18.884  0.00  0.00    +0.000 A 
ATOM     23  C   UNL     1      -4.325  11.552  18.568  0.00  0.00    +0.000 A 
ATOM     24  C   UNL     1      -5.337  11.952  19.417  0.00  0.00    +0.000 A 
ATOM     25  C   UNL     1      -5.019  12.628  20.600  0.00  0.00    +0.000 A 
ATOM     26  C   UNL     1      -3.673  12.973  20.890  0.00  0.00    +0.000 A 
BRANCH  24  27
ATOM     27  S   UNL     1      -6.998  11.702  18.876  0.00  0.00    +0.000 S 
ATOM     28  O   UNL     1      -7.908  12.217  19.882  0.00  0.00    +0.000 OA
ATOM     29  O   UNL     1      -7.114  12.068  17.477  0.00  0.00    +0.000 OA
BRANCH  27  30
ATOM     30  N   UNL     1      -7.169  10.033  18.933  0.00  0.00    +0.000 NA
ATOM     31  H   UNL     1      -6.453   9.640  19.546  0.00  0.00    +0.000 HD
ATOM     32  H   UNL     1      -8.120   9.794  19.217  0.00  0.00    +0.000 HD
ENDBRANCH  27  30
ENDBRANCH  24  27
ENDBRANCH  13  21
TORSDOF 4
ENDMDL
MODEL 8
REMARK VINA RESULT:      -7.7      6.584      9.973
REMARK  Name = 
REMARK  5 active torsions:
REMARK  status: ('A' for Active; 'I' for Inactive)
REMARK    1  A    between atoms: C_1  and  C_2
REMARK    2  A    between atoms: C_7  and  C_8
REMARK    3  A    between atoms: N_20  and  C_21
REMARK    4  A    between atoms: C_24  and  S_25
REMARK    5  A    between atoms: S_25  and  N_26
REMARK                            x       y       z     vdW  Elec       q    Type
REMARK                         _______ _______ _______ _____ _____    ______ ____
ROOT
ATOM      1  C   UNL     1       0.283  12.792  19.590  0.00  0.00    +0.000 C 
ATOM      2  C   UNL     1       1.717  13.008  19.219  0.00  0.00    +0.000 C 
ATOM      3  C   UNL     1       1.895  14.124  18.223  0.00  0.00    +0.000 C 
ATOM      4  O   UNL     1       3.282  14.188  17.912  0.00  0.00    +0.000 OA
ATOM      5  C   UNL     1       4.010  14.500  19.041  0.00  0.00    +0.000 A 
ATOM      6  C   UNL     1       5.238  15.094  18.754  0.00  0.00    +0.000 A 
ATOM      7  C   UNL     1       6.006  15.595  19.791  0.00  0.00    +0.000 A 
ATOM      8  C   UNL     1       5.536  15.483  21.105  0.00  0.00    +0.000 A 
ATOM      9  C   UNL     1       4.321  14.821  21.403  0.00  0.00    +0.000 A 
ATOM     10  C   UNL     1       3.550  14.292  20.368  0.00  0.00    +0.000 A 
ATOM     11  C   UNL     1       2.256  13.538  20.513  0.00  0.00    +0.000 C 
ATOM     12  N   UNL     1       1.501  13.282  21.553  0.00  0.00    +0.000 NA
ATOM     13  N   UNL     1       0.339  12.589  21.059  0.00  0.00    +0.000 N 
ENDROOT
BRANCH   1  20
ATOM     14  C   UNL     1       1.076   9.731  19.202  0.00  0.00    +0.000 C 
ATOM     15  C   UNL     1      -0.120  10.392  18.575  0.00  0.00    +0.000 A 
ATOM     16  C   UNL     1      -1.017   9.574  17.854  0.00  0.00    +0.000 A 
ATOM     17  C   UNL     1      -2.116  10.105  17.177  0.00  0.00    +0.000 A 
ATOM     18  C   UNL     1      -2.323  11.473  17.178  0.00  0.00    +0.000 A 
ATOM     19  C   UNL     1      -1.473  12.291  17.915  0.00  0.00    +0.000 A 
ATOM     20  C   UNL     1      -0.395  11.771  18.677  0.00  0.00    +0.000 A 
ENDBRANCH   1  20
BRANCH  13  21
ATOM     21  C   UNL     1      -0.910  12.761  21.745  0.00  0.00    +0.000 A 
ATOM     22  C   UNL     1      -1.310  11.886  22.783  0.00  0.00    +0.000 A 
ATOM     23  C   UNL     1      -2.566  11.916  23.386  0.00  0.00    +0.000 A 
ATOM     24  C   UNL     1      -3.469  12.890  23.008  0.00  0.00    +0.000 A 
ATOM     25  C   UNL     1      -3.088  13.857  22.071  0.00  0.00    +0.000 A 
ATOM     26  C   UNL     1      -1.813  13.793  21.451  0.00  0.00    +0.000 A 
BRANCH  24  27
ATOM     27  S   UNL     1      -5.111  12.765  23.638  0.00  0.00    +0.000 S 
ATOM     28  O   UNL     1      -6.019  12.472  22.545  0.00  0.00    +0.000 OA
ATOM     29  O   UNL     1      -5.105  11.983  24.861  0.00  0.00    +0.000 OA
BRANCH  27  30
ATOM     30  N   UNL     1      -5.463  14.341  24.099  0.00  0.00    +0.000 NA
ATOM     31  H   UNL     1      -5.572  14.920  23.266  0.00  0.00    +0.000 HD
ATOM     32  H   UNL     1      -6.283  14.347  24.708  0.00  0.00    +0.000 HD
ENDBRANCH  27  30
ENDBRANCH  24  27
ENDBRANCH  13  21
TORSDOF 4
ENDMDL
MODEL 9
REMARK VINA RESULT:      -7.7      6.593      9.698
REMARK  Name = 
REMARK  5 active torsions:
REMARK  status: ('A' for Active; 'I' for Inactive)
REMARK    1  A    between atoms: C_1  and  C_2
REMARK    2  A    between atoms: C_7  and  C_8
REMARK    3  A    between atoms: N_20  and  C_21
REMARK    4  A    between atoms: C_24  and  S_25
REMARK    5  A    between atoms: S_25  and  N_26
REMARK                            x       y       z     vdW  Elec       q    Type
REMARK                         _______ _______ _______ _____ _____    ______ ____
ROOT
ATOM      1  C   UNL     1      -0.308  12.309  20.017  0.00  0.00    +0.000 C 
ATOM      2  C   UNL     1       0.987  13.045  19.867  0.00  0.00    +0.000 C 
ATOM      3  C   UNL     1       1.840  12.495  18.754  0.00  0.00    +0.000 C 
ATOM      4  O   UNL     1       3.055  13.236  18.754  0.00  0.00    +0.000 OA
ATOM      5  C   UNL     1       2.802  14.565  18.484  0.00  0.00    +0.000 A 
ATOM      6  C   UNL     1       3.902  15.233  17.948  0.00  0.00    +0.000 A 
ATOM      7  C   UNL     1       3.747  16.530  17.490  0.00  0.00    +0.000 A 
ATOM      8  C   UNL     1       2.493  17.145  17.588  0.00  0.00    +0.000 A 
ATOM      9  C   UNL     1       1.393  16.491  18.194  0.00  0.00    +0.000 A 
ATOM     10  C   UNL     1       1.544  15.192  18.678  0.00  0.00    +0.000 A 
ATOM     11  C   UNL     1       0.491  14.370  19.371  0.00  0.00    +0.000 C 
ATOM     12  N   UNL     1      -0.783  14.583  19.598  0.00  0.00    +0.000 NA
ATOM     13  N   UNL     1      -1.294  13.396  20.231  0.00  0.00    +0.000 N 
ENDROOT
BRANCH   1  20
ATOM     14  C   UNL     1      -1.150  12.287  23.089  0.00  0.00    +0.000 C 
ATOM     15  C   UNL     1      -0.655  11.089  22.328  0.00  0.00    +0.000 A 
ATOM     16  C   UNL     1      -0.669   9.842  22.991  0.00  0.00    +0.000 A 
ATOM     17  C   UNL     1      -0.163   8.686  22.394  0.00  0.00    +0.000 A 
ATOM     18  C   UNL     1       0.401   8.758  21.132  0.00  0.00    +0.000 A 
ATOM     19  C   UNL     1       0.388   9.970  20.449  0.00  0.00    +0.000 A 
ATOM     20  C   UNL     1      -0.191  11.143  20.998  0.00  0.00    +0.000 A 
ENDBRANCH   1  20
BRANCH  13  21
ATOM     21  C   UNL     1      -2.663  13.029  20.004  0.00  0.00    +0.000 A 
ATOM     22  C   UNL     1      -3.703  13.500  20.840  0.00  0.00    +0.000 A 
ATOM     23  C   UNL     1      -5.026  13.067  20.757  0.00  0.00    +0.000 A 
ATOM     24  C   UNL     1      -5.378  12.173  19.766  0.00  0.00    +0.000 A 
ATOM     25  C   UNL     1      -4.418  11.761  18.835  0.00  0.00    +0.000 A 
ATOM     26  C   UNL     1      -3.072  12.194  18.952  0.00  0.00    +0.000 A 
BRANCH  24  27
ATOM     27  S   UNL     1      -7.005  11.493  19.825  0.00  0.00    +0.000 S 
ATOM     28  O   UNL     1      -7.287  11.055  21.180  0.00  0.00    +0.000 OA
ATOM     29  O   UNL     1      -7.916  12.347  19.089  0.00  0.00    +0.000 OA
BRANCH  27  30
ATOM     30  N   UNL     1      -6.861  10.084  18.923  0.00  0.00    +0.000 NA
ATOM     31  H   UNL     1      -6.619   9.309  19.542  0.00  0.00    +0.000 HD
ATOM     32  H   UNL     1      -7.718   9.926  18.392  0.00  0.00    +0.000 HD
ENDBRANCH  27  30
ENDBRANCH  24  27
ENDBRANCH  13  21
TORSDOF 4
ENDMDL
