MODEL 1
REMARK VINA RESULT:      -7.3      0.000      0.000
REMARK  Name = 
REMARK  7 active torsions:
REMARK  status: ('A' for Active; 'I' for Inactive)
REMARK    1  A    between atoms: C_2  and  C_3
REMARK    2  A    between atoms: C_3  and  N_4
REMARK    3  A    between atoms: C_3  and  C_15
REMARK    4  A    between atoms: C_5  and  O_7
REMARK    5  A    between atoms: O_7  and  C_8
REMARK    6  A    between atoms: C_8  and  C_9
REMARK    7  A    between atoms: C_19  and  N_20
REMARK                            x       y       z     vdW  Elec       q    Type
REMARK                         _______ _______ _______ _____ _____    ______ ____
ROOT
ATOM      1  C   UNL     1       4.905   4.317  18.783  0.00  0.00    +0.000 C 
ENDROOT
BRANCH   1   2
ATOM      2  C   UNL     1       3.909   5.468  18.756  0.00  0.00    +0.000 A 
ATOM      3  C   UNL     1       3.898   6.332  17.656  0.00  0.00    +0.000 A 
ATOM      4  C   UNL     1       3.127   7.494  17.670  0.00  0.00    +0.000 A 
ATOM      5  C   UNL     1       2.344   7.800  18.788  0.00  0.00    +0.000 A 
ATOM      6  C   UNL     1       2.352   6.970  19.907  0.00  0.00    +0.000 A 
ATOM      7  C   UNL     1       3.099   5.786  19.869  0.00  0.00    +0.000 A 
BRANCH   6   8
ATOM      8  N   UNL     1       1.461   7.202  20.962  0.00  0.00    +0.000 N 
ATOM      9  H   UNL     1       0.543   7.512  20.663  0.00  0.00    +0.000 HD
ATOM     10  H   UNL     1       1.836   7.784  21.705  0.00  0.00    +0.000 HD
ENDBRANCH   6   8
ENDBRANCH   1   2
BRANCH   1  11
ATOM     11  N   UNL     1       5.824   4.306  17.645  0.00  0.00    +0.000 N 
ATOM     12  C   UNL     1       7.166   4.557  17.776  0.00  0.00    +0.000 C 
ATOM     13  O   UNL     1       7.696   4.888  18.829  0.00  0.00    +0.000 OA
ATOM     14  H   UNL     1       5.502   4.067  16.715  0.00  0.00    +0.000 HD
BRANCH  12  15
ATOM     15  O   UNL     1       7.761   4.494  16.564  0.00  0.00    +0.000 OA
BRANCH  15  16
ATOM     16  C   UNL     1       7.249   5.428  15.592  0.00  0.00    +0.000 C 
BRANCH  16  17
ATOM     17  C   UNL     1       6.894   4.796  14.265  0.00  0.00    +0.000 A 
ATOM     18  C   UNL     1       7.710   4.948  13.129  0.00  0.00    +0.000 A 
ATOM     19  C   UNL     1       7.353   4.341  11.917  0.00  0.00    +0.000 A 
ATOM     20  C   UNL     1       6.198   3.570  11.833  0.00  0.00    +0.000 A 
ATOM     21  C   UNL     1       5.404   3.386  12.960  0.00  0.00    +0.000 A 
ATOM     22  C   UNL     1       5.753   3.991  14.168  0.00  0.00    +0.000 A 
ENDBRANCH  16  17
ENDBRANCH  15  16
ENDBRANCH  12  15
ENDBRANCH   1  11
BRANCH   1  24
ATOM     23  N   UNL     1       3.442   1.956  18.909  0.00  0.00    +0.000 NA
ATOM     24  C   UNL     1       4.105   3.026  18.852  0.00  0.00    +0.000 C 
ENDBRANCH   1  24
TORSDOF 7
ENDMDL
MODEL 2
REMARK VINA RESULT:      -7.3      1.831      3.714
REMARK  Name = 
REMARK  7 active torsions:
REMARK  status: ('A' for Active; 'I' for Inactive)
REMARK    1  A    between atoms: C_2  and  C_3
REMARK    2  A    between atoms: C_3  and  N_4
REMARK    3  A    between atoms: C_3  and  C_15
REMARK    4  A    between atoms: C_5  and  O_7
REMARK    5  A    between atoms: O_7  and  C_8
REMARK    6  A    between atoms: C_8  and  C_9
REMARK    7  A    between atoms: C_19  and  N_20
REMARK                            x       y       z     vdW  Elec       q    Type
REMARK                         _______ _______ _______ _____ _____    ______ ____
ROOT
ATOM      1  C   UNL     1       3.274   5.731  17.567  0.00  0.00    +0.000 C 
ENDROOT
BRANCH   1   2
ATOM      2  C   UNL     1       2.760   4.326  17.850  0.00  0.00    +0.000 A 
ATOM      3  C   UNL     1       1.428   4.154  18.239  0.00  0.00    +0.000 A 
ATOM      4  C   UNL     1       0.967   2.913  18.674  0.00  0.00    +0.000 A 
ATOM      5  C   UNL     1       1.837   1.818  18.713  0.00  0.00    +0.000 A 
ATOM      6  C   UNL     1       3.175   1.963  18.352  0.00  0.00    +0.000 A 
ATOM      7  C   UNL     1       3.620   3.204  17.880  0.00  0.00    +0.000 A 
BRANCH   6   8
ATOM      8  N   UNL     1       4.004   0.840  18.256  0.00  0.00    +0.000 N 
ATOM      9  H   UNL     1       4.232   0.579  17.302  0.00  0.00    +0.000 HD
ATOM     10  H   UNL     1       3.696   0.043  18.805  0.00  0.00    +0.000 HD
ENDBRANCH   6   8
ENDBRANCH   1   2
BRANCH   1  11
ATOM     11  N   UNL     1       4.725   5.807  17.410  0.00  0.00    +0.000 N 
ATOM     12  C   UNL     1       5.324   6.505  16.392  0.00  0.00    +0.000 C 
ATOM     13  O   UNL     1       4.706   7.053  15.488  0.00  0.00    +0.000 OA
ATOM     14  H   UNL     1       5.348   5.376  18.083  0.00  0.00    +0.000 HD
BRANCH  12  15
ATOM     15  O   UNL     1       6.668   6.389  16.489  0.00  0.00    +0.000 OA
BRANCH  15  16
ATOM     16  C   UNL     1       7.184   5.084  16.159  0.00  0.00    +0.000 C 
BRANCH  16  17
ATOM     17  C   UNL     1       7.062   4.730  14.694  0.00  0.00    +0.000 A 
ATOM     18  C   UNL     1       6.169   3.743  14.241  0.00  0.00    +0.000 A 
ATOM     19  C   UNL     1       6.078   3.446  12.874  0.00  0.00    +0.000 A 
ATOM     20  C   UNL     1       6.857   4.140  11.953  0.00  0.00    +0.000 A 
ATOM     21  C   UNL     1       7.718   5.143  12.390  0.00  0.00    +0.000 A 
ATOM     22  C   UNL     1       7.815   5.439  13.749  0.00  0.00    +0.000 A 
ENDBRANCH  16  17
ENDBRANCH  15  16
ENDBRANCH  12  15
ENDBRANCH   1  11
BRANCH   1  24
ATOM     23  N   UNL     1       2.404   7.367  19.641  0.00  0.00    +0.000 NA
ATOM     24  C   UNL     1       2.799   6.625  18.701  0.00  0.00    +0.000 C 
ENDBRANCH   1  24
TORSDOF 7
ENDMDL
MODEL 3
REMARK VINA RESULT:      -7.2      0.238      1.070
REMARK  Name = 
REMARK  7 active torsions:
REMARK  status: ('A' for Active; 'I' for Inactive)
REMARK    1  A    between atoms: C_2  and  C_3
REMARK    2  A    between atoms: C_3  and  N_4
REMARK    3  A    between atoms: C_3  and  C_15
REMARK    4  A    between atoms: C_5  and  O_7
REMARK    5  A    between atoms: O_7  and  C_8
REMARK    6  A    between atoms: C_8  and  C_9
REMARK    7  A    between atoms: C_19  and  N_20
REMARK                            x       y       z     vdW  Elec       q    Type
REMARK                         _______ _______ _______ _____ _____    ______ ____
ROOT
ATOM      1  C   UNL     1       4.935   4.154  18.630  0.00  0.00    +0.000 C 
ENDROOT
BRANCH   1   2
ATOM      2  C   UNL     1       3.946   5.311  18.658  0.00  0.00    +0.000 A 
ATOM      3  C   UNL     1       3.920   6.210  17.588  0.00  0.00    +0.000 A 
ATOM      4  C   UNL     1       3.156   7.374  17.654  0.00  0.00    +0.000 A 
ATOM      5  C   UNL     1       2.395   7.648  18.794  0.00  0.00    +0.000 A 
ATOM      6  C   UNL     1       2.418   6.782  19.886  0.00  0.00    +0.000 A 
ATOM      7  C   UNL     1       3.157   5.596  19.796  0.00  0.00    +0.000 A 
BRANCH   6   8
ATOM      8  N   UNL     1       1.548   6.985  20.964  0.00  0.00    +0.000 N 
ATOM      9  H   UNL     1       0.625   6.585  20.827  0.00  0.00    +0.000 HD
ATOM     10  H   UNL     1       1.502   7.945  21.290  0.00  0.00    +0.000 HD
ENDBRANCH   6   8
ENDBRANCH   1   2
BRANCH   1  11
ATOM     11  N   UNL     1       5.879   4.214  17.515  0.00  0.00    +0.000 N 
ATOM     12  C   UNL     1       7.208   4.509  17.686  0.00  0.00    +0.000 C 
ATOM     13  O   UNL     1       7.701   4.825  18.761  0.00  0.00    +0.000 OA
ATOM     14  H   UNL     1       5.587   3.994  16.570  0.00  0.00    +0.000 HD
BRANCH  12  15
ATOM     15  O   UNL     1       7.833   4.507  16.487  0.00  0.00    +0.000 OA
BRANCH  15  16
ATOM     16  C   UNL     1       7.258   5.397  15.508  0.00  0.00    +0.000 C 
BRANCH  16  17
ATOM     17  C   UNL     1       6.766   4.698  14.261  0.00  0.00    +0.000 A 
ATOM     18  C   UNL     1       5.483   4.125  14.188  0.00  0.00    +0.000 A 
ATOM     19  C   UNL     1       5.059   3.492  13.011  0.00  0.00    +0.000 A 
ATOM     20  C   UNL     1       5.896   3.441  11.901  0.00  0.00    +0.000 A 
ATOM     21  C   UNL     1       7.154   4.035  11.954  0.00  0.00    +0.000 A 
ATOM     22  C   UNL     1       7.582   4.663  13.123  0.00  0.00    +0.000 A 
ENDBRANCH  16  17
ENDBRANCH  15  16
ENDBRANCH  12  15
ENDBRANCH   1  11
BRANCH   1  24
ATOM     23  N   UNL     1       3.458   1.799  18.564  0.00  0.00    +0.000 NA
ATOM     24  C   UNL     1       4.127   2.867  18.594  0.00  0.00    +0.000 C 
ENDBRANCH   1  24
TORSDOF 7
ENDMDL
MODEL 4
REMARK VINA RESULT:      -7.1      4.730      6.295
REMARK  Name = 
REMARK  7 active torsions:
REMARK  status: ('A' for Active; 'I' for Inactive)
REMARK    1  A    between atoms: C_2  and  C_3
REMARK    2  A    between atoms: C_3  and  N_4
REMARK    3  A    between atoms: C_3  and  C_15
REMARK    4  A    between atoms: C_5  and  O_7
REMARK    5  A    between atoms: O_7  and  C_8
REMARK    6  A    between atoms: C_8  and  C_9
REMARK    7  A    between atoms: C_19  and  N_20
REMARK                            x       y       z     vdW  Elec       q    Type
REMARK                         _______ _______ _______ _____ _____    ______ ____
ROOT
ATOM      1  C   UNL     1       6.455   5.884  16.861  0.00  0.00    +0.000 C 
ENDROOT
BRANCH   1   2
ATOM      2  C   UNL     1       4.973   5.703  17.158  0.00  0.00    +0.000 A 
ATOM      3  C   UNL     1       4.238   6.791  17.641  0.00  0.00    +0.000 A 
ATOM      4  C   UNL     1       2.928   6.625  18.088  0.00  0.00    +0.000 A 
ATOM      5  C   UNL     1       2.330   5.362  18.046  0.00  0.00    +0.000 A 
ATOM      6  C   UNL     1       3.044   4.254  17.591  0.00  0.00    +0.000 A 
ATOM      7  C   UNL     1       4.345   4.438  17.107  0.00  0.00    +0.000 A 
BRANCH   6   8
ATOM      8  N   UNL     1       2.399   3.024  17.415  0.00  0.00    +0.000 N 
ATOM      9  H   UNL     1       1.433   3.107  17.115  0.00  0.00    +0.000 HD
ATOM     10  H   UNL     1       2.501   2.383  18.196  0.00  0.00    +0.000 HD
ENDBRANCH   6   8
ENDBRANCH   1   2
BRANCH   1  11
ATOM     11  N   UNL     1       6.897   7.277  16.893  0.00  0.00    +0.000 N 
ATOM     12  C   UNL     1       7.810   7.742  17.805  0.00  0.00    +0.000 C 
ATOM     13  O   UNL     1       8.271   7.062  18.713  0.00  0.00    +0.000 OA
ATOM     14  H   UNL     1       6.570   7.946  16.206  0.00  0.00    +0.000 HD
BRANCH  12  15
ATOM     15  O   UNL     1       8.017   9.064  17.608  0.00  0.00    +0.000 OA
BRANCH  15  16
ATOM     16  C   UNL     1       8.752   9.721  18.661  0.00  0.00    +0.000 C 
BRANCH  16  17
ATOM     17  C   UNL     1       9.422  11.006  18.229  0.00  0.00    +0.000 A 
ATOM     18  C   UNL     1      10.813  11.090  18.040  0.00  0.00    +0.000 A 
ATOM     19  C   UNL     1      11.399  12.297  17.632  0.00  0.00    +0.000 A 
ATOM     20  C   UNL     1      10.606  13.415  17.392  0.00  0.00    +0.000 A 
ATOM     21  C   UNL     1       9.225  13.330  17.542  0.00  0.00    +0.000 A 
ATOM     22  C   UNL     1       8.638  12.133  17.952  0.00  0.00    +0.000 A 
ENDBRANCH  16  17
ENDBRANCH  15  16
ENDBRANCH  12  15
ENDBRANCH   1  11
BRANCH   1  24
ATOM     23  N   UNL     1       6.949   4.735  14.377  0.00  0.00    +0.000 NA
ATOM     24  C   UNL     1       6.725   5.256  15.503  0.00  0.00    +0.000 C 
ENDBRANCH   1  24
TORSDOF 7
ENDMDL
MODEL 5
REMARK VINA RESULT:      -7.1      0.970      1.781
REMARK  Name = 
REMARK  7 active torsions:
REMARK  status: ('A' for Active; 'I' for Inactive)
REMARK    1  A    between atoms: C_2  and  C_3
REMARK    2  A    between atoms: C_3  and  N_4
REMARK    3  A    between atoms: C_3  and  C_15
REMARK    4  A    between atoms: C_5  and  O_7
REMARK    5  A    between atoms: O_7  and  C_8
REMARK    6  A    between atoms: C_8  and  C_9
REMARK    7  A    between atoms: C_19  and  N_20
REMARK                            x       y       z     vdW  Elec       q    Type
REMARK                         _______ _______ _______ _____ _____    ______ ____
ROOT
ATOM      1  C   UNL     1       4.878   3.828  18.924  0.00  0.00    +0.000 C 
ENDROOT
BRANCH   1   2
ATOM      2  C   UNL     1       3.927   4.980  19.218  0.00  0.00    +0.000 A 
ATOM      3  C   UNL     1       3.015   4.857  20.271  0.00  0.00    +0.000 A 
ATOM      4  C   UNL     1       2.015   5.809  20.463  0.00  0.00    +0.000 A 
ATOM      5  C   UNL     1       1.923   6.910  19.605  0.00  0.00    +0.000 A 
ATOM      6  C   UNL     1       2.804   7.048  18.534  0.00  0.00    +0.000 A 
ATOM      7  C   UNL     1       3.828   6.107  18.371  0.00  0.00    +0.000 A 
BRANCH   6   8
ATOM      8  N   UNL     1       2.800   8.219  17.766  0.00  0.00    +0.000 N 
ATOM      9  H   UNL     1       3.675   8.395  17.283  0.00  0.00    +0.000 HD
ATOM     10  H   UNL     1       2.464   9.041  18.258  0.00  0.00    +0.000 HD
ENDBRANCH   6   8
ENDBRANCH   1   2
BRANCH   1  11
ATOM     11  N   UNL     1       5.774   4.078  17.796  0.00  0.00    +0.000 N 
ATOM     12  C   UNL     1       7.053   4.545  17.957  0.00  0.00    +0.000 C 
ATOM     13  O   UNL     1       7.527   4.869  19.038  0.00  0.00    +0.000 OA
ATOM     14  H   UNL     1       5.489   3.869  16.846  0.00  0.00    +0.000 HD
BRANCH  12  15
ATOM     15  O   UNL     1       7.639   4.694  16.747  0.00  0.00    +0.000 OA
BRANCH  15  16
ATOM     16  C   UNL     1       6.881   5.478  15.804  0.00  0.00    +0.000 C 
BRANCH  16  17
ATOM     17  C   UNL     1       6.773   4.849  14.433  0.00  0.00    +0.000 A 
ATOM     18  C   UNL     1       5.748   3.941  14.112  0.00  0.00    +0.000 A 
ATOM     19  C   UNL     1       5.675   3.383  12.827  0.00  0.00    +0.000 A 
ATOM     20  C   UNL     1       6.605   3.738  11.855  0.00  0.00    +0.000 A 
ATOM     21  C   UNL     1       7.602   4.663  12.155  0.00  0.00    +0.000 A 
ATOM     22  C   UNL     1       7.681   5.217  13.432  0.00  0.00    +0.000 A 
ENDBRANCH  16  17
ENDBRANCH  15  16
ENDBRANCH  12  15
ENDBRANCH   1  11
BRANCH   1  24
ATOM     23  N   UNL     1       3.328   1.561  18.489  0.00  0.00    +0.000 NA
ATOM     24  C   UNL     1       4.031   2.589  18.686  0.00  0.00    +0.000 C 
ENDBRANCH   1  24
TORSDOF 7
ENDMDL
MODEL 6
REMARK VINA RESULT:      -7.1      3.048      6.244
REMARK  Name = 
REMARK  7 active torsions:
REMARK  status: ('A' for Active; 'I' for Inactive)
REMARK    1  A    between atoms: C_2  and  C_3
REMARK    2  A    between atoms: C_3  and  N_4
REMARK    3  A    between atoms: C_3  and  C_15
REMARK    4  A    between atoms: C_5  and  O_7
REMARK    5  A    between atoms: O_7  and  C_8
REMARK    6  A    between atoms: C_8  and  C_9
REMARK    7  A    between atoms: C_19  and  N_20
REMARK                            x       y       z     vdW  Elec       q    Type
REMARK                         _______ _______ _______ _____ _____    ______ ____
ROOT
ATOM      1  C   UNL     1       5.174   4.464  16.441  0.00  0.00    +0.000 C 
ENDROOT
BRANCH   1   2
ATOM      2  C   UNL     1       6.083   5.390  17.237  0.00  0.00    +0.000 A 
ATOM      3  C   UNL     1       6.369   6.662  16.732  0.00  0.00    +0.000 A 
ATOM      4  C   UNL     1       7.329   7.470  17.339  0.00  0.00    +0.000 A 
ATOM      5  C   UNL     1       8.010   7.017  18.473  0.00  0.00    +0.000 A 
ATOM      6  C   UNL     1       7.763   5.745  18.987  0.00  0.00    +0.000 A 
ATOM      7  C   UNL     1       6.769   4.955  18.394  0.00  0.00    +0.000 A 
BRANCH   6   8
ATOM      8  N   UNL     1       8.339   5.351  20.200  0.00  0.00    +0.000 N 
ATOM      9  H   UNL     1       9.284   4.993  20.108  0.00  0.00    +0.000 HD
ATOM     10  H   UNL     1       7.754   4.741  20.763  0.00  0.00    +0.000 HD
ENDBRANCH   6   8
ENDBRANCH   1   2
BRANCH   1  11
ATOM     11  N   UNL     1       4.853   3.216  17.132  0.00  0.00    +0.000 N 
ATOM     12  C   UNL     1       3.592   2.677  17.137  0.00  0.00    +0.000 C 
ATOM     13  O   UNL     1       2.616   3.225  16.640  0.00  0.00    +0.000 OA
ATOM     14  H   UNL     1       5.572   2.678  17.600  0.00  0.00    +0.000 HD
BRANCH  12  15
ATOM     15  O   UNL     1       3.588   1.535  17.862  0.00  0.00    +0.000 OA
BRANCH  15  16
ATOM     16  C   UNL     1       3.629   1.729  19.290  0.00  0.00    +0.000 C 
BRANCH  16  17
ATOM     17  C   UNL     1       2.796   2.895  19.773  0.00  0.00    +0.000 A 
ATOM     18  C   UNL     1       1.407   2.784  19.968  0.00  0.00    +0.000 A 
ATOM     19  C   UNL     1       0.669   3.885  20.425  0.00  0.00    +0.000 A 
ATOM     20  C   UNL     1       1.307   5.090  20.705  0.00  0.00    +0.000 A 
ATOM     21  C   UNL     1       2.685   5.197  20.547  0.00  0.00    +0.000 A 
ATOM     22  C   UNL     1       3.424   4.105  20.090  0.00  0.00    +0.000 A 
ENDBRANCH  16  17
ENDBRANCH  15  16
ENDBRANCH  12  15
ENDBRANCH   1  11
BRANCH   1  24
ATOM     23  N   UNL     1       6.423   3.968  14.006  0.00  0.00    +0.000 NA
ATOM     24  C   UNL     1       5.856   4.193  15.110  0.00  0.00    +0.000 C 
ENDBRANCH   1  24
TORSDOF 7
ENDMDL
MODEL 7
REMARK VINA RESULT:      -7.0      4.123      6.009
REMARK  Name = 
REMARK  7 active torsions:
REMARK  status: ('A' for Active; 'I' for Inactive)
REMARK    1  A    between atoms: C_2  and  C_3
REMARK    2  A    between atoms: C_3  and  N_4
REMARK    3  A    between atoms: C_3  and  C_15
REMARK    4  A    between atoms: C_5  and  O_7
REMARK    5  A    between atoms: O_7  and  C_8
REMARK    6  A    between atoms: C_8  and  C_9
REMARK    7  A    between atoms: C_19  and  N_20
REMARK                            x       y       z     vdW  Elec       q    Type
REMARK                         _______ _______ _______ _____ _____    ______ ____
ROOT
ATOM      1  C   UNL     1       6.731   5.132  16.709  0.00  0.00    +0.000 C 
ENDROOT
BRANCH   1   2
ATOM      2  C   UNL     1       5.238   5.146  17.006  0.00  0.00    +0.000 A 
ATOM      3  C   UNL     1       4.631   6.347  17.386  0.00  0.00    +0.000 A 
ATOM      4  C   UNL     1       3.311   6.369  17.833  0.00  0.00    +0.000 A 
ATOM      5  C   UNL     1       2.574   5.182  17.894  0.00  0.00    +0.000 A 
ATOM      6  C   UNL     1       3.158   3.966  17.544  0.00  0.00    +0.000 A 
ATOM      7  C   UNL     1       4.472   3.959  17.060  0.00  0.00    +0.000 A 
BRANCH   6   8
ATOM      8  N   UNL     1       2.378   2.806  17.470  0.00  0.00    +0.000 N 
ATOM      9  H   UNL     1       1.450   2.959  17.090  0.00  0.00    +0.000 HD
ATOM     10  H   UNL     1       2.353   2.263  18.328  0.00  0.00    +0.000 HD
ENDBRANCH   6   8
ENDBRANCH   1   2
BRANCH   1  11
ATOM     11  N   UNL     1       7.451   6.281  17.256  0.00  0.00    +0.000 N 
ATOM     12  C   UNL     1       7.877   6.334  18.559  0.00  0.00    +0.000 C 
ATOM     13  O   UNL     1       7.624   5.474  19.393  0.00  0.00    +0.000 OA
ATOM     14  H   UNL     1       7.702   7.068  16.671  0.00  0.00    +0.000 HD
BRANCH  12  15
ATOM     15  O   UNL     1       8.498   7.514  18.787  0.00  0.00    +0.000 OA
BRANCH  15  16
ATOM     16  C   UNL     1       8.075   8.592  17.928  0.00  0.00    +0.000 C 
BRANCH  16  17
ATOM     17  C   UNL     1       8.623   9.943  18.328  0.00  0.00    +0.000 A 
ATOM     18  C   UNL     1       8.370  11.100  17.568  0.00  0.00    +0.000 A 
ATOM     19  C   UNL     1       8.888  12.339  17.974  0.00  0.00    +0.000 A 
ATOM     20  C   UNL     1       9.640  12.435  19.141  0.00  0.00    +0.000 A 
ATOM     21  C   UNL     1       9.865  11.301  19.916  0.00  0.00    +0.000 A 
ATOM     22  C   UNL     1       9.355  10.067  19.515  0.00  0.00    +0.000 A 
ENDBRANCH  16  17
ENDBRANCH  15  16
ENDBRANCH  12  15
ENDBRANCH   1  11
BRANCH   1  24
ATOM     23  N   UNL     1       7.027   4.988  13.948  0.00  0.00    +0.000 NA
ATOM     24  C   UNL     1       6.893   5.053  15.200  0.00  0.00    +0.000 C 
ENDBRANCH   1  24
TORSDOF 7
ENDMDL
MODEL 8
REMARK VINA RESULT:      -7.0      4.689      6.217
REMARK  Name = 
REMARK  7 active torsions:
REMARK  status: ('A' for Active; 'I' for Inactive)
REMARK    1  A    between atoms: C_2  and  C_3
REMARK    2  A    between atoms: C_3  and  N_4
REMARK    3  A    between atoms: C_3  and  C_15
REMARK    4  A    between atoms: C_5  and  O_7
REMARK    5  A    between atoms: O_7  and  C_8
REMARK    6  A    between atoms: C_8  and  C_9
REMARK    7  A    between atoms: C_19  and  N_20
REMARK                            x       y       z     vdW  Elec       q    Type
REMARK                         _______ _______ _______ _____ _____    ______ ____
ROOT
ATOM      1  C   UNL     1       6.578   5.700  16.799  0.00  0.00    +0.000 C 
ENDROOT
BRANCH   1   2
ATOM      2  C   UNL     1       5.156   5.498  17.303  0.00  0.00    +0.000 A 
ATOM      3  C   UNL     1       4.548   4.249  17.142  0.00  0.00    +0.000 A 
ATOM      4  C   UNL     1       3.196   4.072  17.431  0.00  0.00    +0.000 A 
ATOM      5  C   UNL     1       2.434   5.147  17.898  0.00  0.00    +0.000 A 
ATOM      6  C   UNL     1       3.006   6.409  18.047  0.00  0.00    +0.000 A 
ATOM      7  C   UNL     1       4.373   6.569  17.793  0.00  0.00    +0.000 A 
BRANCH   6   8
ATOM      8  N   UNL     1       2.280   7.445  18.649  0.00  0.00    +0.000 N 
ATOM      9  H   UNL     1       2.102   7.300  19.637  0.00  0.00    +0.000 HD
ATOM     10  H   UNL     1       1.440   7.714  18.146  0.00  0.00    +0.000 HD
ENDBRANCH   6   8
ENDBRANCH   1   2
BRANCH   1  11
ATOM     11  N   UNL     1       7.016   7.095  16.816  0.00  0.00    +0.000 N 
ATOM     12  C   UNL     1       7.833   7.601  17.794  0.00  0.00    +0.000 C 
ATOM     13  O   UNL     1       8.199   6.962  18.772  0.00  0.00    +0.000 OA
ATOM     14  H   UNL     1       6.762   7.732  16.071  0.00  0.00    +0.000 HD
BRANCH  12  15
ATOM     15  O   UNL     1       8.061   8.914  17.563  0.00  0.00    +0.000 OA
BRANCH  15  16
ATOM     16  C   UNL     1       8.734   9.605  18.634  0.00  0.00    +0.000 C 
BRANCH  16  17
ATOM     17  C   UNL     1       9.371  10.911  18.214  0.00  0.00    +0.000 A 
ATOM     18  C   UNL     1       8.601  12.049  17.913  0.00  0.00    +0.000 A 
ATOM     19  C   UNL     1       9.227  13.245  17.535  0.00  0.00    +0.000 A 
ATOM     20  C   UNL     1      10.615  13.320  17.472  0.00  0.00    +0.000 A 
ATOM     21  C   UNL     1      11.385  12.209  17.802  0.00  0.00    +0.000 A 
ATOM     22  C   UNL     1      10.767  11.016  18.175  0.00  0.00    +0.000 A 
ENDBRANCH  16  17
ENDBRANCH  15  16
ENDBRANCH  12  15
ENDBRANCH   1  11
BRANCH   1  24
ATOM     23  N   UNL     1       6.705   4.643  14.230  0.00  0.00    +0.000 NA
ATOM     24  C   UNL     1       6.647   5.122  15.395  0.00  0.00    +0.000 C 
ENDBRANCH   1  24
TORSDOF 7
ENDMDL
MODEL 9
REMARK VINA RESULT:      -7.0      2.391      6.745
REMARK  Name = 
REMARK  7 active torsions:
REMARK  status: ('A' for Active; 'I' for Inactive)
REMARK    1  A    between atoms: C_2  and  C_3
REMARK    2  A    between atoms: C_3  and  N_4
REMARK    3  A    between atoms: C_3  and  C_15
REMARK    4  A    between atoms: C_5  and  O_7
REMARK    5  A    between atoms: O_7  and  C_8
REMARK    6  A    between atoms: C_8  and  C_9
REMARK    7  A    between atoms: C_19  and  N_20
REMARK                            x       y       z     vdW  Elec       q    Type
REMARK                         _______ _______ _______ _____ _____    ______ ____
ROOT
ATOM      1  C   UNL     1       5.924   4.319  16.515  0.00  0.00    +0.000 C 
ENDROOT
BRANCH   1   2
ATOM      2  C   UNL     1       6.266   4.443  15.037  0.00  0.00    +0.000 A 
ATOM      3  C   UNL     1       5.581   3.649  14.111  0.00  0.00    +0.000 A 
ATOM      4  C   UNL     1       5.981   3.605  12.776  0.00  0.00    +0.000 A 
ATOM      5  C   UNL     1       7.070   4.370  12.347  0.00  0.00    +0.000 A 
ATOM      6  C   UNL     1       7.785   5.154  13.250  0.00  0.00    +0.000 A 
ATOM      7  C   UNL     1       7.353   5.222  14.580  0.00  0.00    +0.000 A 
BRANCH   6   8
ATOM      8  N   UNL     1       8.781   6.025  12.792  0.00  0.00    +0.000 N 
ATOM      9  H   UNL     1       9.378   6.388  13.527  0.00  0.00    +0.000 HD
ATOM     10  H   UNL     1       8.444   6.760  12.177  0.00  0.00    +0.000 HD
ENDBRANCH   6   8
ENDBRANCH   1   2
BRANCH   1  11
ATOM     11  N   UNL     1       5.006   5.350  16.996  0.00  0.00    +0.000 N 
ATOM     12  C   UNL     1       4.733   5.533  18.328  0.00  0.00    +0.000 C 
ATOM     13  O   UNL     1       5.163   4.810  19.216  0.00  0.00    +0.000 OA
ATOM     14  H   UNL     1       4.568   6.000  16.355  0.00  0.00    +0.000 HD
BRANCH  12  15
ATOM     15  O   UNL     1       3.844   6.543  18.475  0.00  0.00    +0.000 OA
BRANCH  15  16
ATOM     16  C   UNL     1       2.493   6.214  18.095  0.00  0.00    +0.000 C 
BRANCH  16  17
ATOM     17  C   UNL     1       1.948   4.980  18.779  0.00  0.00    +0.000 A 
ATOM     18  C   UNL     1       1.748   4.931  20.171  0.00  0.00    +0.000 A 
ATOM     19  C   UNL     1       1.234   3.771  20.769  0.00  0.00    +0.000 A 
ATOM     20  C   UNL     1       0.901   2.668  19.989  0.00  0.00    +0.000 A 
ATOM     21  C   UNL     1       1.063   2.722  18.608  0.00  0.00    +0.000 A 
ATOM     22  C   UNL     1       1.578   3.872  18.008  0.00  0.00    +0.000 A 
ENDBRANCH  16  17
ENDBRANCH  15  16
ENDBRANCH  12  15
ENDBRANCH   1  11
BRANCH   1  24
ATOM     23  N   UNL     1       8.319   4.373  17.928  0.00  0.00    +0.000 NA
ATOM     24  C   UNL     1       7.233   4.348  17.287  0.00  0.00    +0.000 C 
ENDBRANCH   1  24
TORSDOF 7
ENDMDL
