MODEL 1
REMARK VINA RESULT:      -8.5      0.000      0.000
REMARK  Name = 
REMARK  8 active torsions:
REMARK  status: ('A' for Active; 'I' for Inactive)
REMARK    1  A    between atoms: O_1  and  C_2
REMARK    2  A    between atoms: C_2  and  C_3
REMARK    3  A    between atoms: C_2  and  C_19
REMARK    4  A    between atoms: C_3  and  O_4
REMARK    5  A    between atoms: O_4  and  C_5
REMARK    6  A    between atoms: C_9  and  C_10
REMARK    7  A    between atoms: C_11  and  C_12
REMARK    8  A    between atoms: C_19  and  C_20
REMARK                            x       y       z     vdW  Elec       q    Type
REMARK                         _______ _______ _______ _____ _____    ______ ____
ROOT
ATOM      1  C   UNL     1       4.739   3.719  16.913  0.00  0.00    +0.000 C 
ENDROOT
BRANCH   1   2
ATOM      2  C   UNL     1       3.648   3.285  17.907  0.00  0.00    +0.000 C 
BRANCH   2   3
ATOM      3  O   UNL     1       3.257   1.946  17.579  0.00  0.00    +0.000 OA
ATOM      4  H   UNL     1       4.036   1.387  17.747  0.00  0.00    +0.000 HD
ENDBRANCH   2   3
BRANCH   2   5
ATOM      5  C   UNL     1       2.455   4.244  17.771  0.00  0.00    +0.000 C 
BRANCH   5   6
ATOM      6  C   UNL     1       2.297   5.236  18.884  0.00  0.00    +0.000 A 
ATOM      7  C   UNL     1       2.182   4.916  20.225  0.00  0.00    +0.000 A 
ATOM      8  N   UNL     1       1.950   6.063  20.925  0.00  0.00    +0.000 N 
ATOM      9  C   UNL     1       1.881   7.136  20.070  0.00  0.00    +0.000 A 
ATOM     10  C   UNL     1       1.596   8.480  20.341  0.00  0.00    +0.000 A 
ATOM     11  C   UNL     1       1.596   9.371  19.266  0.00  0.00    +0.000 A 
ATOM     12  C   UNL     1       1.890   8.935  17.977  0.00  0.00    +0.000 A 
ATOM     13  C   UNL     1       2.165   7.584  17.722  0.00  0.00    +0.000 A 
ATOM     14  C   UNL     1       2.141   6.658  18.785  0.00  0.00    +0.000 A 
ATOM     15  H   UNL     1       1.817   6.116  21.926  0.00  0.00    +0.000 HD
ENDBRANCH   5   6
ENDBRANCH   2   5
ENDBRANCH   1   2
BRANCH   1  16
ATOM     16  O   UNL     1       4.883   5.151  16.898  0.00  0.00    +0.000 OA
BRANCH  16  17
ATOM     17  C   UNL     1       5.988   5.626  17.563  0.00  0.00    +0.000 A 
ATOM     18  C   UNL     1       6.737   4.922  18.505  0.00  0.00    +0.000 A 
ATOM     19  N   UNL     1       7.831   5.406  19.133  0.00  0.00    +0.000 NA
ATOM     20  C   UNL     1       8.199   6.662  18.805  0.00  0.00    +0.000 A 
ATOM     21  C   UNL     1       7.530   7.475  17.888  0.00  0.00    +0.000 A 
ATOM     22  C   UNL     1       6.405   6.928  17.254  0.00  0.00    +0.000 A 
BRANCH  21  23
ATOM     23  C   UNL     1       8.094   8.802  17.603  0.00  0.00    +0.000 C 
ATOM     24  C   UNL     1       8.691   9.616  18.490  0.00  0.00    +0.000 C 
BRANCH  24  25
ATOM     25  C   UNL     1       9.279  10.921  18.128  0.00  0.00    +0.000 A 
ATOM     26  C   UNL     1       8.506  12.059  17.886  0.00  0.00    +0.000 A 
ATOM     27  C   UNL     1       9.144  13.251  17.575  0.00  0.00    +0.000 A 
ATOM     28  N   UNL     1      10.483  13.386  17.497  0.00  0.00    +0.000 NA
ATOM     29  C   UNL     1      11.215  12.281  17.745  0.00  0.00    +0.000 A 
ATOM     30  C   UNL     1      10.669  11.046  18.063  0.00  0.00    +0.000 A 
ENDBRANCH  24  25
ENDBRANCH  21  23
ENDBRANCH  16  17
ENDBRANCH   1  16
TORSDOF 8
ENDMDL
MODEL 2
REMARK VINA RESULT:      -8.4      1.506      1.841
REMARK  Name = 
REMARK  8 active torsions:
REMARK  status: ('A' for Active; 'I' for Inactive)
REMARK    1  A    between atoms: O_1  and  C_2
REMARK    2  A    between atoms: C_2  and  C_3
REMARK    3  A    between atoms: C_2  and  C_19
REMARK    4  A    between atoms: C_3  and  O_4
REMARK    5  A    between atoms: O_4  and  C_5
REMARK    6  A    between atoms: C_9  and  C_10
REMARK    7  A    between atoms: C_11  and  C_12
REMARK    8  A    between atoms: C_19  and  C_20
REMARK                            x       y       z     vdW  Elec       q    Type
REMARK                         _______ _______ _______ _____ _____    ______ ____
ROOT
ATOM      1  C   UNL     1       4.494   3.358  18.886  0.00  0.00    +0.000 C 
ENDROOT
BRANCH   1   2
ATOM      2  C   UNL     1       3.277   4.030  19.545  0.00  0.00    +0.000 C 
BRANCH   2   3
ATOM      3  O   UNL     1       2.196   3.088  19.544  0.00  0.00    +0.000 OA
ATOM      4  H   UNL     1       2.457   2.375  20.154  0.00  0.00    +0.000 HD
ENDBRANCH   2   3
BRANCH   2   5
ATOM      5  C   UNL     1       2.907   5.277  18.729  0.00  0.00    +0.000 C 
BRANCH   5   6
ATOM      6  C   UNL     1       2.357   6.425  19.521  0.00  0.00    +0.000 A 
ATOM      7  C   UNL     1       1.911   6.349  20.828  0.00  0.00    +0.000 A 
ATOM      8  N   UNL     1       1.389   7.559  21.179  0.00  0.00    +0.000 N 
ATOM      9  C   UNL     1       1.456   8.430  20.120  0.00  0.00    +0.000 A 
ATOM     10  C   UNL     1       0.983   9.744  20.008  0.00  0.00    +0.000 A 
ATOM     11  C   UNL     1       1.192  10.407  18.798  0.00  0.00    +0.000 A 
ATOM     12  C   UNL     1       1.868   9.786  17.751  0.00  0.00    +0.000 A 
ATOM     13  C   UNL     1       2.328   8.468  17.876  0.00  0.00    +0.000 A 
ATOM     14  C   UNL     1       2.102   7.764  19.076  0.00  0.00    +0.000 A 
ATOM     15  H   UNL     1       0.983   7.778  22.078  0.00  0.00    +0.000 HD
ENDBRANCH   5   6
ENDBRANCH   2   5
ENDBRANCH   1   2
BRANCH   1  16
ATOM     16  O   UNL     1       5.721   3.974  19.318  0.00  0.00    +0.000 OA
BRANCH  16  17
ATOM     17  C   UNL     1       6.261   4.870  18.427  0.00  0.00    +0.000 A 
ATOM     18  C   UNL     1       6.052   4.874  17.049  0.00  0.00    +0.000 A 
ATOM     19  N   UNL     1       6.582   5.777  16.195  0.00  0.00    +0.000 NA
ATOM     20  C   UNL     1       7.364   6.728  16.744  0.00  0.00    +0.000 A 
ATOM     21  C   UNL     1       7.661   6.828  18.105  0.00  0.00    +0.000 A 
ATOM     22  C   UNL     1       7.084   5.875  18.954  0.00  0.00    +0.000 A 
BRANCH  21  23
ATOM     23  C   UNL     1       8.490   7.959  18.548  0.00  0.00    +0.000 C 
ATOM     24  C   UNL     1       8.331   9.244  18.191  0.00  0.00    +0.000 C 
BRANCH  24  25
ATOM     25  C   UNL     1       9.172  10.341  18.710  0.00  0.00    +0.000 A 
ATOM     26  C   UNL     1       9.859  11.229  17.877  0.00  0.00    +0.000 A 
ATOM     27  C   UNL     1      10.607  12.246  18.450  0.00  0.00    +0.000 A 
ATOM     28  N   UNL     1      10.710  12.443  19.780  0.00  0.00    +0.000 NA
ATOM     29  C   UNL     1      10.032  11.585  20.569  0.00  0.00    +0.000 A 
ATOM     30  C   UNL     1       9.259  10.538  20.091  0.00  0.00    +0.000 A 
ENDBRANCH  24  25
ENDBRANCH  21  23
ENDBRANCH  16  17
ENDBRANCH   1  16
TORSDOF 8
ENDMDL
MODEL 3
REMARK VINA RESULT:      -8.1      1.864      2.698
REMARK  Name = 
REMARK  8 active torsions:
REMARK  status: ('A' for Active; 'I' for Inactive)
REMARK    1  A    between atoms: O_1  and  C_2
REMARK    2  A    between atoms: C_2  and  C_3
REMARK    3  A    between atoms: C_2  and  C_19
REMARK    4  A    between atoms: C_3  and  O_4
REMARK    5  A    between atoms: O_4  and  C_5
REMARK    6  A    between atoms: C_9  and  C_10
REMARK    7  A    between atoms: C_11  and  C_12
REMARK    8  A    between atoms: C_19  and  C_20
REMARK                            x       y       z     vdW  Elec       q    Type
REMARK                         _______ _______ _______ _____ _____    ______ ____
ROOT
ATOM      1  C   UNL     1       5.874   4.362  15.279  0.00  0.00    +0.000 C 
ENDROOT
BRANCH   1   2
ATOM      2  C   UNL     1       5.196   4.082  16.632  0.00  0.00    +0.000 C 
BRANCH   2   3
ATOM      3  O   UNL     1       4.740   2.723  16.625  0.00  0.00    +0.000 OA
ATOM      4  H   UNL     1       4.968   2.356  17.498  0.00  0.00    +0.000 HD
ENDBRANCH   2   3
BRANCH   2   5
ATOM      5  C   UNL     1       4.012   5.047  16.794  0.00  0.00    +0.000 C 
BRANCH   5   6
ATOM      6  C   UNL     1       3.418   5.111  18.168  0.00  0.00    +0.000 A 
ATOM      7  C   UNL     1       3.831   5.965  19.176  0.00  0.00    +0.000 A 
ATOM      8  N   UNL     1       3.133   5.667  20.309  0.00  0.00    +0.000 N 
ATOM      9  C   UNL     1       2.284   4.613  20.080  0.00  0.00    +0.000 A 
ATOM     10  C   UNL     1       1.436   3.937  20.967  0.00  0.00    +0.000 A 
ATOM     11  C   UNL     1       0.670   2.887  20.457  0.00  0.00    +0.000 A 
ATOM     12  C   UNL     1       0.735   2.544  19.109  0.00  0.00    +0.000 A 
ATOM     13  C   UNL     1       1.595   3.226  18.237  0.00  0.00    +0.000 A 
ATOM     14  C   UNL     1       2.404   4.269  18.733  0.00  0.00    +0.000 A 
ATOM     15  H   UNL     1       3.244   6.133  21.199  0.00  0.00    +0.000 HD
ENDBRANCH   5   6
ENDBRANCH   2   5
ENDBRANCH   1   2
BRANCH   1  16
ATOM     16  O   UNL     1       7.237   4.786  15.464  0.00  0.00    +0.000 OA
BRANCH  16  17
ATOM     17  C   UNL     1       7.509   5.331  16.695  0.00  0.00    +0.000 A 
ATOM     18  C   UNL     1       7.720   4.616  17.873  0.00  0.00    +0.000 A 
ATOM     19  N   UNL     1       8.004   5.176  19.070  0.00  0.00    +0.000 NA
ATOM     20  C   UNL     1       8.080   6.522  19.095  0.00  0.00    +0.000 A 
ATOM     21  C   UNL     1       7.879   7.352  17.991  0.00  0.00    +0.000 A 
ATOM     22  C   UNL     1       7.596   6.728  16.768  0.00  0.00    +0.000 A 
BRANCH  21  23
ATOM     23  C   UNL     1       8.053   8.801  18.176  0.00  0.00    +0.000 C 
ATOM     24  C   UNL     1       9.074   9.401  18.810  0.00  0.00    +0.000 C 
BRANCH  24  25
ATOM     25  C   UNL     1       9.212  10.866  18.922  0.00  0.00    +0.000 A 
ATOM     26  C   UNL     1       9.255  11.711  17.809  0.00  0.00    +0.000 A 
ATOM     27  C   UNL     1       9.362  13.079  18.008  0.00  0.00    +0.000 A 
ATOM     28  N   UNL     1       9.420  13.658  19.224  0.00  0.00    +0.000 NA
ATOM     29  C   UNL     1       9.365  12.830  20.287  0.00  0.00    +0.000 A 
ATOM     30  C   UNL     1       9.259  11.450  20.190  0.00  0.00    +0.000 A 
ENDBRANCH  24  25
ENDBRANCH  21  23
ENDBRANCH  16  17
ENDBRANCH   1  16
TORSDOF 8
ENDMDL
MODEL 4
REMARK VINA RESULT:      -8.0      2.089      2.975
REMARK  Name = 
REMARK  8 active torsions:
REMARK  status: ('A' for Active; 'I' for Inactive)
REMARK    1  A    between atoms: O_1  and  C_2
REMARK    2  A    between atoms: C_2  and  C_3
REMARK    3  A    between atoms: C_2  and  C_19
REMARK    4  A    between atoms: C_3  and  O_4
REMARK    5  A    between atoms: O_4  and  C_5
REMARK    6  A    between atoms: C_9  and  C_10
REMARK    7  A    between atoms: C_11  and  C_12
REMARK    8  A    between atoms: C_19  and  C_20
REMARK                            x       y       z     vdW  Elec       q    Type
REMARK                         _______ _______ _______ _____ _____    ______ ____
ROOT
ATOM      1  C   UNL     1       5.483   5.298  15.462  0.00  0.00    +0.000 C 
ENDROOT
BRANCH   1   2
ATOM      2  C   UNL     1       5.367   4.052  16.358  0.00  0.00    +0.000 C 
BRANCH   2   3
ATOM      3  O   UNL     1       5.830   2.922  15.609  0.00  0.00    +0.000 OA
ATOM      4  H   UNL     1       5.144   2.738  14.943  0.00  0.00    +0.000 HD
ENDBRANCH   2   3
BRANCH   2   5
ATOM      5  C   UNL     1       3.893   3.871  16.752  0.00  0.00    +0.000 C 
BRANCH   5   6
ATOM      6  C   UNL     1       3.516   4.410  18.099  0.00  0.00    +0.000 A 
ATOM      7  C   UNL     1       3.966   5.603  18.634  0.00  0.00    +0.000 A 
ATOM      8  N   UNL     1       3.497   5.710  19.910  0.00  0.00    +0.000 N 
ATOM      9  C   UNL     1       2.766   4.597  20.242  0.00  0.00    +0.000 A 
ATOM     10  C   UNL     1       2.160   4.252  21.458  0.00  0.00    +0.000 A 
ATOM     11  C   UNL     1       1.466   3.042  21.514  0.00  0.00    +0.000 A 
ATOM     12  C   UNL     1       1.365   2.223  20.393  0.00  0.00    +0.000 A 
ATOM     13  C   UNL     1       1.984   2.579  19.187  0.00  0.00    +0.000 A 
ATOM     14  C   UNL     1       2.718   3.780  19.111  0.00  0.00    +0.000 A 
ATOM     15  H   UNL     1       3.684   6.482  20.535  0.00  0.00    +0.000 HD
ENDBRANCH   5   6
ENDBRANCH   2   5
ENDBRANCH   1   2
BRANCH   1  16
ATOM     16  O   UNL     1       6.830   5.805  15.456  0.00  0.00    +0.000 OA
BRANCH  16  17
ATOM     17  C   UNL     1       7.295   6.219  16.681  0.00  0.00    +0.000 A 
ATOM     18  C   UNL     1       7.504   5.403  17.792  0.00  0.00    +0.000 A 
ATOM     19  N   UNL     1       7.979   5.833  18.982  0.00  0.00    +0.000 NA
ATOM     20  C   UNL     1       8.259   7.149  19.070  0.00  0.00    +0.000 A 
ATOM     21  C   UNL     1       8.085   8.073  18.038  0.00  0.00    +0.000 A 
ATOM     22  C   UNL     1       7.598   7.581  16.819  0.00  0.00    +0.000 A 
BRANCH  21  23
ATOM     23  C   UNL     1       8.492   9.465  18.282  0.00  0.00    +0.000 C 
ATOM     24  C   UNL     1       9.265   9.898  19.291  0.00  0.00    +0.000 C 
BRANCH  24  25
ATOM     25  C   UNL     1       9.675  11.307  19.453  0.00  0.00    +0.000 A 
ATOM     26  C   UNL     1      10.100  11.837  20.675  0.00  0.00    +0.000 A 
ATOM     27  C   UNL     1      10.491  13.167  20.731  0.00  0.00    +0.000 A 
ATOM     28  N   UNL     1      10.494  13.992  19.666  0.00  0.00    +0.000 NA
ATOM     29  C   UNL     1      10.092  13.463  18.492  0.00  0.00    +0.000 A 
ATOM     30  C   UNL     1       9.683  12.146  18.336  0.00  0.00    +0.000 A 
ENDBRANCH  24  25
ENDBRANCH  21  23
ENDBRANCH  16  17
ENDBRANCH   1  16
TORSDOF 8
ENDMDL
MODEL 5
REMARK VINA RESULT:      -7.9      1.075      1.303
REMARK  Name = 
REMARK  8 active torsions:
REMARK  status: ('A' for Active; 'I' for Inactive)
REMARK    1  A    between atoms: O_1  and  C_2
REMARK    2  A    between atoms: C_2  and  C_3
REMARK    3  A    between atoms: C_2  and  C_19
REMARK    4  A    between atoms: C_3  and  O_4
REMARK    5  A    between atoms: O_4  and  C_5
REMARK    6  A    between atoms: C_9  and  C_10
REMARK    7  A    between atoms: C_11  and  C_12
REMARK    8  A    between atoms: C_19  and  C_20
REMARK                            x       y       z     vdW  Elec       q    Type
REMARK                         _______ _______ _______ _____ _____    ______ ____
ROOT
ATOM      1  C   UNL     1       5.285   4.161  15.783  0.00  0.00    +0.000 C 
ENDROOT
BRANCH   1   2
ATOM      2  C   UNL     1       4.770   4.242  17.231  0.00  0.00    +0.000 C 
BRANCH   2   3
ATOM      3  O   UNL     1       4.694   2.907  17.749  0.00  0.00    +0.000 OA
ATOM      4  H   UNL     1       5.144   2.926  18.613  0.00  0.00    +0.000 HD
ENDBRANCH   2   3
BRANCH   2   5
ATOM      5  C   UNL     1       3.381   4.896  17.218  0.00  0.00    +0.000 C 
BRANCH   5   6
ATOM      6  C   UNL     1       3.019   5.661  18.455  0.00  0.00    +0.000 A 
ATOM      7  C   UNL     1       3.070   5.162  19.744  0.00  0.00    +0.000 A 
ATOM      8  N   UNL     1       2.572   6.105  20.594  0.00  0.00    +0.000 N 
ATOM      9  C   UNL     1       2.166   7.212  19.890  0.00  0.00    +0.000 A 
ATOM     10  C   UNL     1       1.539   8.381  20.341  0.00  0.00    +0.000 A 
ATOM     11  C   UNL     1       1.236   9.360  19.393  0.00  0.00    +0.000 A 
ATOM     12  C   UNL     1       1.566   9.183  18.052  0.00  0.00    +0.000 A 
ATOM     13  C   UNL     1       2.186   8.003  17.616  0.00  0.00    +0.000 A 
ATOM     14  C   UNL     1       2.475   6.985  18.548  0.00  0.00    +0.000 A 
ATOM     15  H   UNL     1       2.486   5.997  21.595  0.00  0.00    +0.000 HD
ENDBRANCH   5   6
ENDBRANCH   2   5
ENDBRANCH   1   2
BRANCH   1  16
ATOM     16  O   UNL     1       6.454   4.982  15.605  0.00  0.00    +0.000 OA
BRANCH  16  17
ATOM     17  C   UNL     1       7.010   5.453  16.769  0.00  0.00    +0.000 A 
ATOM     18  C   UNL     1       7.471   4.670  17.827  0.00  0.00    +0.000 A 
ATOM     19  N   UNL     1       8.030   5.158  18.956  0.00  0.00    +0.000 NA
ATOM     20  C   UNL     1       8.135   6.500  19.037  0.00  0.00    +0.000 A 
ATOM     21  C   UNL     1       7.704   7.394  18.055  0.00  0.00    +0.000 A 
ATOM     22  C   UNL     1       7.137   6.843  16.897  0.00  0.00    +0.000 A 
BRANCH  21  23
ATOM     23  C   UNL     1       7.942   8.828  18.276  0.00  0.00    +0.000 C 
ATOM     24  C   UNL     1       9.109   9.392  18.627  0.00  0.00    +0.000 C 
BRANCH  24  25
ATOM     25  C   UNL     1       9.293  10.848  18.789  0.00  0.00    +0.000 A 
ATOM     26  C   UNL     1      10.014  11.408  19.847  0.00  0.00    +0.000 A 
ATOM     27  C   UNL     1      10.157  12.786  19.907  0.00  0.00    +0.000 A 
ATOM     28  N   UNL     1       9.643  13.634  18.993  0.00  0.00    +0.000 NA
ATOM     29  C   UNL     1       8.960  13.076  17.972  0.00  0.00    +0.000 A 
ATOM     30  C   UNL     1       8.764  11.711  17.826  0.00  0.00    +0.000 A 
ENDBRANCH  24  25
ENDBRANCH  21  23
ENDBRANCH  16  17
ENDBRANCH   1  16
TORSDOF 8
ENDMDL
MODEL 6
REMARK VINA RESULT:      -7.7      1.918      2.527
REMARK  Name = 
REMARK  8 active torsions:
REMARK  status: ('A' for Active; 'I' for Inactive)
REMARK    1  A    between atoms: O_1  and  C_2
REMARK    2  A    between atoms: C_2  and  C_3
REMARK    3  A    between atoms: C_2  and  C_19
REMARK    4  A    between atoms: C_3  and  O_4
REMARK    5  A    between atoms: O_4  and  C_5
REMARK    6  A    between atoms: C_9  and  C_10
REMARK    7  A    between atoms: C_11  and  C_12
REMARK    8  A    between atoms: C_19  and  C_20
REMARK                            x       y       z     vdW  Elec       q    Type
REMARK                         _______ _______ _______ _____ _____    ______ ____
ROOT
ATOM      1  C   UNL     1       5.264   5.328  15.943  0.00  0.00    +0.000 C 
ENDROOT
BRANCH   1   2
ATOM      2  C   UNL     1       5.164   3.871  16.427  0.00  0.00    +0.000 C 
BRANCH   2   3
ATOM      3  O   UNL     1       6.045   3.076  15.623  0.00  0.00    +0.000 OA
ATOM      4  H   UNL     1       6.493   3.695  15.019  0.00  0.00    +0.000 HD
ENDBRANCH   2   3
BRANCH   2   5
ATOM      5  C   UNL     1       3.711   3.401  16.260  0.00  0.00    +0.000 C 
BRANCH   5   6
ATOM      6  C   UNL     1       2.985   3.092  17.535  0.00  0.00    +0.000 A 
ATOM      7  C   UNL     1       2.474   1.854  17.881  0.00  0.00    +0.000 A 
ATOM      8  N   UNL     1       1.795   1.979  19.057  0.00  0.00    +0.000 N 
ATOM      9  C   UNL     1       1.822   3.284  19.485  0.00  0.00    +0.000 A 
ATOM     10  C   UNL     1       1.205   3.876  20.594  0.00  0.00    +0.000 A 
ATOM     11  C   UNL     1       1.407   5.243  20.794  0.00  0.00    +0.000 A 
ATOM     12  C   UNL     1       2.211   5.980  19.929  0.00  0.00    +0.000 A 
ATOM     13  C   UNL     1       2.814   5.374  18.818  0.00  0.00    +0.000 A 
ATOM     14  C   UNL     1       2.601   4.001  18.575  0.00  0.00    +0.000 A 
ATOM     15  H   UNL     1       1.314   1.228  19.533  0.00  0.00    +0.000 HD
ENDBRANCH   5   6
ENDBRANCH   2   5
ENDBRANCH   1   2
BRANCH   1  16
ATOM     16  O   UNL     1       6.638   5.732  15.804  0.00  0.00    +0.000 OA
BRANCH  16  17
ATOM     17  C   UNL     1       7.211   6.232  16.949  0.00  0.00    +0.000 A 
ATOM     18  C   UNL     1       7.514   5.499  18.095  0.00  0.00    +0.000 A 
ATOM     19  N   UNL     1       8.094   6.011  19.203  0.00  0.00    +0.000 NA
ATOM     20  C   UNL     1       8.385   7.328  19.168  0.00  0.00    +0.000 A 
ATOM     21  C   UNL     1       8.123   8.174  18.089  0.00  0.00    +0.000 A 
ATOM     22  C   UNL     1       7.529   7.598  16.958  0.00  0.00    +0.000 A 
BRANCH  21  23
ATOM     23  C   UNL     1       8.554   9.576  18.191  0.00  0.00    +0.000 C 
ATOM     24  C   UNL     1       9.529  10.048  18.985  0.00  0.00    +0.000 C 
BRANCH  24  25
ATOM     25  C   UNL     1       9.945  11.465  19.007  0.00  0.00    +0.000 A 
ATOM     26  C   UNL     1       9.064  12.508  19.304  0.00  0.00    +0.000 A 
ATOM     27  C   UNL     1       9.546  13.809  19.325  0.00  0.00    +0.000 A 
ATOM     28  N   UNL     1      10.830  14.136  19.082  0.00  0.00    +0.000 NA
ATOM     29  C   UNL     1      11.670  13.116  18.808  0.00  0.00    +0.000 A 
ATOM     30  C   UNL     1      11.282  11.785  18.763  0.00  0.00    +0.000 A 
ENDBRANCH  24  25
ENDBRANCH  21  23
ENDBRANCH  16  17
ENDBRANCH   1  16
TORSDOF 8
ENDMDL
MODEL 7
REMARK VINA RESULT:      -7.6      1.617      3.314
REMARK  Name = 
REMARK  8 active torsions:
REMARK  status: ('A' for Active; 'I' for Inactive)
REMARK    1  A    between atoms: O_1  and  C_2
REMARK    2  A    between atoms: C_2  and  C_3
REMARK    3  A    between atoms: C_2  and  C_19
REMARK    4  A    between atoms: C_3  and  O_4
REMARK    5  A    between atoms: O_4  and  C_5
REMARK    6  A    between atoms: C_9  and  C_10
REMARK    7  A    between atoms: C_11  and  C_12
REMARK    8  A    between atoms: C_19  and  C_20
REMARK                            x       y       z     vdW  Elec       q    Type
REMARK                         _______ _______ _______ _____ _____    ______ ____
ROOT
ATOM      1  C   UNL     1       3.641   7.943  17.254  0.00  0.00    +0.000 C 
ENDROOT
BRANCH   1   2
ATOM      2  C   UNL     1       2.313   7.492  17.887  0.00  0.00    +0.000 C 
BRANCH   2   3
ATOM      3  O   UNL     1       1.405   8.600  17.850  0.00  0.00    +0.000 OA
ATOM      4  H   UNL     1       1.526   9.021  16.980  0.00  0.00    +0.000 HD
ENDBRANCH   2   3
BRANCH   2   5
ATOM      5  C   UNL     1       2.585   7.065  19.338  0.00  0.00    +0.000 C 
BRANCH   5   6
ATOM      6  C   UNL     1       2.123   5.685  19.699  0.00  0.00    +0.000 A 
ATOM      7  C   UNL     1       1.572   5.323  20.915  0.00  0.00    +0.000 A 
ATOM      8  N   UNL     1       1.372   3.974  20.915  0.00  0.00    +0.000 N 
ATOM      9  C   UNL     1       1.805   3.430  19.731  0.00  0.00    +0.000 A 
ATOM     10  C   UNL     1       1.855   2.089  19.327  0.00  0.00    +0.000 A 
ATOM     11  C   UNL     1       2.347   1.817  18.048  0.00  0.00    +0.000 A 
ATOM     12  C   UNL     1       2.752   2.848  17.204  0.00  0.00    +0.000 A 
ATOM     13  C   UNL     1       2.704   4.183  17.629  0.00  0.00    +0.000 A 
ATOM     14  C   UNL     1       2.240   4.484  18.926  0.00  0.00    +0.000 A 
ATOM     15  H   UNL     1       0.988   3.444  21.685  0.00  0.00    +0.000 HD
ENDBRANCH   5   6
ENDBRANCH   2   5
ENDBRANCH   1   2
BRANCH   1  16
ATOM     16  O   UNL     1       4.444   6.810  16.876  0.00  0.00    +0.000 OA
BRANCH  16  17
ATOM     17  C   UNL     1       5.687   6.765  17.458  0.00  0.00    +0.000 A 
ATOM     18  C   UNL     1       6.275   5.642  18.038  0.00  0.00    +0.000 A 
ATOM     19  N   UNL     1       7.508   5.620  18.590  0.00  0.00    +0.000 NA
ATOM     20  C   UNL     1       8.194   6.781  18.563  0.00  0.00    +0.000 A 
ATOM     21  C   UNL     1       7.716   7.977  18.024  0.00  0.00    +0.000 A 
ATOM     22  C   UNL     1       6.435   7.951  17.455  0.00  0.00    +0.000 A 
BRANCH  21  23
ATOM     23  C   UNL     1       8.613   9.141  18.026  0.00  0.00    +0.000 C 
ATOM     24  C   UNL     1       9.024   9.822  19.108  0.00  0.00    +0.000 C 
BRANCH  24  25
ATOM     25  C   UNL     1       9.965  10.958  19.045  0.00  0.00    +0.000 A 
ATOM     26  C   UNL     1      10.450  11.604  20.185  0.00  0.00    +0.000 A 
ATOM     27  C   UNL     1      11.351  12.648  20.033  0.00  0.00    +0.000 A 
ATOM     28  N   UNL     1      11.801  13.082  18.840  0.00  0.00    +0.000 NA
ATOM     29  C   UNL     1      11.332  12.441  17.750  0.00  0.00    +0.000 A 
ATOM     30  C   UNL     1      10.430  11.388  17.800  0.00  0.00    +0.000 A 
ENDBRANCH  24  25
ENDBRANCH  21  23
ENDBRANCH  16  17
ENDBRANCH   1  16
TORSDOF 8
ENDMDL
MODEL 8
REMARK VINA RESULT:      -7.5      2.139      2.931
REMARK  Name = 
REMARK  8 active torsions:
REMARK  status: ('A' for Active; 'I' for Inactive)
REMARK    1  A    between atoms: O_1  and  C_2
REMARK    2  A    between atoms: C_2  and  C_3
REMARK    3  A    between atoms: C_2  and  C_19
REMARK    4  A    between atoms: C_3  and  O_4
REMARK    5  A    between atoms: O_4  and  C_5
REMARK    6  A    between atoms: C_9  and  C_10
REMARK    7  A    between atoms: C_11  and  C_12
REMARK    8  A    between atoms: C_19  and  C_20
REMARK                            x       y       z     vdW  Elec       q    Type
REMARK                         _______ _______ _______ _____ _____    ______ ____
ROOT
ATOM      1  C   UNL     1       6.857   4.534  15.789  0.00  0.00    +0.000 C 
ENDROOT
BRANCH   1   2
ATOM      2  C   UNL     1       5.512   3.835  15.530  0.00  0.00    +0.000 C 
BRANCH   2   3
ATOM      3  O   UNL     1       5.200   3.976  14.138  0.00  0.00    +0.000 OA
ATOM      4  H   UNL     1       4.881   4.889  14.023  0.00  0.00    +0.000 HD
ENDBRANCH   2   3
BRANCH   2   5
ATOM      5  C   UNL     1       4.437   4.510  16.395  0.00  0.00    +0.000 C 
BRANCH   5   6
ATOM      6  C   UNL     1       3.724   3.607  17.356  0.00  0.00    +0.000 A 
ATOM      7  C   UNL     1       3.606   2.235  17.222  0.00  0.00    +0.000 A 
ATOM      8  N   UNL     1       2.808   1.768  18.224  0.00  0.00    +0.000 N 
ATOM      9  C   UNL     1       2.370   2.809  19.006  0.00  0.00    +0.000 A 
ATOM     10  C   UNL     1       1.487   2.803  20.094  0.00  0.00    +0.000 A 
ATOM     11  C   UNL     1       1.217   4.025  20.715  0.00  0.00    +0.000 A 
ATOM     12  C   UNL     1       1.824   5.198  20.277  0.00  0.00    +0.000 A 
ATOM     13  C   UNL     1       2.699   5.188  19.181  0.00  0.00    +0.000 A 
ATOM     14  C   UNL     1       2.965   3.973  18.516  0.00  0.00    +0.000 A 
ATOM     15  H   UNL     1       2.548   0.801  18.358  0.00  0.00    +0.000 HD
ENDBRANCH   5   6
ENDBRANCH   2   5
ENDBRANCH   1   2
BRANCH   1  16
ATOM     16  O   UNL     1       6.678   5.952  15.960  0.00  0.00    +0.000 OA
BRANCH  16  17
ATOM     17  C   UNL     1       7.278   6.477  17.078  0.00  0.00    +0.000 A 
ATOM     18  C   UNL     1       7.676   5.757  18.204  0.00  0.00    +0.000 A 
ATOM     19  N   UNL     1       8.281   6.296  19.286  0.00  0.00    +0.000 NA
ATOM     20  C   UNL     1       8.500   7.626  19.244  0.00  0.00    +0.000 A 
ATOM     21  C   UNL     1       8.140   8.461  18.184  0.00  0.00    +0.000 A 
ATOM     22  C   UNL     1       7.523   7.858  17.080  0.00  0.00    +0.000 A 
BRANCH  21  23
ATOM     23  C   UNL     1       8.501   9.884  18.274  0.00  0.00    +0.000 C 
ATOM     24  C   UNL     1       9.638  10.442  17.827  0.00  0.00    +0.000 C 
BRANCH  24  25
ATOM     25  C   UNL     1       9.919  11.889  17.908  0.00  0.00    +0.000 A 
ATOM     26  C   UNL     1       8.964  12.825  18.315  0.00  0.00    +0.000 A 
ATOM     27  C   UNL     1       9.322  14.163  18.385  0.00  0.00    +0.000 A 
ATOM     28  N   UNL     1      10.552  14.627  18.089  0.00  0.00    +0.000 NA
ATOM     29  C   UNL     1      11.465  13.709  17.709  0.00  0.00    +0.000 A 
ATOM     30  C   UNL     1      11.203  12.351  17.608  0.00  0.00    +0.000 A 
ENDBRANCH  24  25
ENDBRANCH  21  23
ENDBRANCH  16  17
ENDBRANCH   1  16
TORSDOF 8
ENDMDL
MODEL 9
REMARK VINA RESULT:      -7.5      1.589      2.426
REMARK  Name = 
REMARK  8 active torsions:
REMARK  status: ('A' for Active; 'I' for Inactive)
REMARK    1  A    between atoms: O_1  and  C_2
REMARK    2  A    between atoms: C_2  and  C_3
REMARK    3  A    between atoms: C_2  and  C_19
REMARK    4  A    between atoms: C_3  and  O_4
REMARK    5  A    between atoms: O_4  and  C_5
REMARK    6  A    between atoms: C_9  and  C_10
REMARK    7  A    between atoms: C_11  and  C_12
REMARK    8  A    between atoms: C_19  and  C_20
REMARK                            x       y       z     vdW  Elec       q    Type
REMARK                         _______ _______ _______ _____ _____    ______ ____
ROOT
ATOM      1  C   UNL     1       3.751   5.031  17.441  0.00  0.00    +0.000 C 
ENDROOT
BRANCH   1   2
ATOM      2  C   UNL     1       2.805   5.875  18.313  0.00  0.00    +0.000 C 
BRANCH   2   3
ATOM      3  O   UNL     1       1.460   5.598  17.903  0.00  0.00    +0.000 OA
ATOM      4  H   UNL     1       1.009   5.230  18.683  0.00  0.00    +0.000 HD
ENDBRANCH   2   3
BRANCH   2   5
ATOM      5  C   UNL     1       3.139   7.359  18.100  0.00  0.00    +0.000 C 
BRANCH   5   6
ATOM      6  C   UNL     1       2.021   8.317  18.384  0.00  0.00    +0.000 A 
ATOM      7  C   UNL     1       1.413   9.132  17.446  0.00  0.00    +0.000 A 
ATOM      8  N   UNL     1       0.516   9.935  18.086  0.00  0.00    +0.000 N 
ATOM      9  C   UNL     1       0.537   9.688  19.436  0.00  0.00    +0.000 A 
ATOM     10  C   UNL     1      -0.162  10.319  20.474  0.00  0.00    +0.000 A 
ATOM     11  C   UNL     1       0.051   9.855  21.774  0.00  0.00    +0.000 A 
ATOM     12  C   UNL     1       0.913   8.790  22.020  0.00  0.00    +0.000 A 
ATOM     13  C   UNL     1       1.611   8.175  20.971  0.00  0.00    +0.000 A 
ATOM     14  C   UNL     1       1.438   8.644  19.652  0.00  0.00    +0.000 A 
ATOM     15  H   UNL     1      -0.061  10.634  17.638  0.00  0.00    +0.000 HD
ENDBRANCH   5   6
ENDBRANCH   2   5
ENDBRANCH   1   2
BRANCH   1  16
ATOM     16  O   UNL     1       4.708   5.865  16.763  0.00  0.00    +0.000 OA
BRANCH  16  17
ATOM     17  C   UNL     1       5.879   6.075  17.450  0.00  0.00    +0.000 A 
ATOM     18  C   UNL     1       6.524   5.144  18.263  0.00  0.00    +0.000 A 
ATOM     19  N   UNL     1       7.686   5.370  18.916  0.00  0.00    +0.000 NA
ATOM     20  C   UNL     1       8.235   6.590  18.750  0.00  0.00    +0.000 A 
ATOM     21  C   UNL     1       7.685   7.613  17.974  0.00  0.00    +0.000 A 
ATOM     22  C   UNL     1       6.484   7.332  17.309  0.00  0.00    +0.000 A 
BRANCH  21  23
ATOM     23  C   UNL     1       8.440   8.869  17.855  0.00  0.00    +0.000 C 
ATOM     24  C   UNL     1       8.682   9.745  18.844  0.00  0.00    +0.000 C 
BRANCH  24  25
ATOM     25  C   UNL     1       9.488  10.969  18.667  0.00  0.00    +0.000 A 
ATOM     26  C   UNL     1       9.125  11.995  17.791  0.00  0.00    +0.000 A 
ATOM     27  C   UNL     1       9.930  13.122  17.706  0.00  0.00    +0.000 A 
ATOM     28  N   UNL     1      11.053  13.297  18.430  0.00  0.00    +0.000 NA
ATOM     29  C   UNL     1      11.383  12.302  19.279  0.00  0.00    +0.000 A 
ATOM     30  C   UNL     1      10.644  11.139  19.434  0.00  0.00    +0.000 A 
ENDBRANCH  24  25
ENDBRANCH  21  23
ENDBRANCH  16  17
ENDBRANCH   1  16
TORSDOF 8
ENDMDL
