MODEL 1
REMARK VINA RESULT:      -7.2      0.000      0.000
REMARK  Name = 
REMARK  2 active torsions:
REMARK  status: ('A' for Active; 'I' for Inactive)
REMARK    1  A    between atoms: C_4  and  C_5
REMARK    2  A    between atoms: C_14  and  O_15
REMARK                            x       y       z     vdW  Elec       q    Type
REMARK                         _______ _______ _______ _____ _____    ______ ____
ROOT
ATOM      1  O   UNL     1       2.883   4.988  20.536  0.00  0.00    +0.000 OA
ATOM      2  C   UNL     1       2.900   5.877  19.705  0.00  0.00    +0.000 C 
ATOM      3  C   UNL     1       3.677   5.907  18.436  0.00  0.00    +0.000 C 
ATOM      4  C   UNL     1       4.464   4.876  18.103  0.00  0.00    +0.000 C 
ATOM      5  C   UNL     1       3.372   7.202  17.721  0.00  0.00    +0.000 C 
ATOM      6  C   UNL     1       2.410   7.901  18.640  0.00  0.00    +0.000 A 
ATOM      7  C   UNL     1       1.792   9.132  18.521  0.00  0.00    +0.000 A 
ATOM      8  C   UNL     1       0.928   9.567  19.532  0.00  0.00    +0.000 A 
ATOM      9  C   UNL     1       0.683   8.772  20.664  0.00  0.00    +0.000 A 
ATOM     10  C   UNL     1       1.300   7.531  20.794  0.00  0.00    +0.000 A 
ATOM     11  C   UNL     1       2.149   7.128  19.776  0.00  0.00    +0.000 A 
ENDROOT
BRANCH   4  12
ATOM     12  C   UNL     1       5.259   4.827  16.881  0.00  0.00    +0.000 A 
ATOM     13  C   UNL     1       4.731   4.238  15.727  0.00  0.00    +0.000 A 
ATOM     14  C   UNL     1       5.460   4.252  14.535  0.00  0.00    +0.000 A 
ATOM     15  C   UNL     1       6.725   4.835  14.507  0.00  0.00    +0.000 A 
ATOM     16 BR   UNL     1       7.695   4.894  12.886  0.00  0.00    +0.000 Br
ATOM     17  C   UNL     1       7.279   5.381  15.664  0.00  0.00    +0.000 A 
ATOM     18  C   UNL     1       6.544   5.378  16.852  0.00  0.00    +0.000 A 
ENDBRANCH   4  12
BRANCH   7  19
ATOM     19  O   UNL     1       1.976   9.965  17.462  0.00  0.00    +0.000 OA
ATOM     20  H   UNL     1       2.914  10.196  17.381  0.00  0.00    +0.000 HD
ENDBRANCH   7  19
TORSDOF 2
ENDMDL
MODEL 2
REMARK VINA RESULT:      -7.2      4.008      7.031
REMARK  Name = 
REMARK  2 active torsions:
REMARK  status: ('A' for Active; 'I' for Inactive)
REMARK    1  A    between atoms: C_4  and  C_5
REMARK    2  A    between atoms: C_14  and  O_15
REMARK                            x       y       z     vdW  Elec       q    Type
REMARK                         _______ _______ _______ _____ _____    ______ ____
ROOT
ATOM      1  O   UNL     1       4.486   5.967  16.908  0.00  0.00    +0.000 OA
ATOM      2  C   UNL     1       3.572   5.606  17.626  0.00  0.00    +0.000 C 
ATOM      3  C   UNL     1       2.569   6.471  18.307  0.00  0.00    +0.000 C 
ATOM      4  C   UNL     1       2.614   7.801  18.158  0.00  0.00    +0.000 C 
ATOM      5  C   UNL     1       1.620   5.583  19.076  0.00  0.00    +0.000 C 
ATOM      6  C   UNL     1       2.133   4.196  18.815  0.00  0.00    +0.000 A 
ATOM      7  C   UNL     1       1.676   2.971  19.265  0.00  0.00    +0.000 A 
ATOM      8  C   UNL     1       2.342   1.805  18.877  0.00  0.00    +0.000 A 
ATOM      9  C   UNL     1       3.467   1.861  18.038  0.00  0.00    +0.000 A 
ATOM     10  C   UNL     1       3.937   3.088  17.579  0.00  0.00    +0.000 A 
ATOM     11  C   UNL     1       3.255   4.225  17.981  0.00  0.00    +0.000 A 
ENDROOT
BRANCH   4  12
ATOM     12  C   UNL     1       1.671   8.718  18.790  0.00  0.00    +0.000 A 
ATOM     13  C   UNL     1       1.506   8.703  20.179  0.00  0.00    +0.000 A 
ATOM     14  C   UNL     1       0.658   9.627  20.795  0.00  0.00    +0.000 A 
ATOM     15  C   UNL     1      -0.040  10.549  20.017  0.00  0.00    +0.000 A 
ATOM     16 BR   UNL     1      -1.153  11.828  20.852  0.00  0.00    +0.000 Br
ATOM     17  C   UNL     1       0.082  10.540  18.629  0.00  0.00    +0.000 A 
ATOM     18  C   UNL     1       0.940   9.624  18.015  0.00  0.00    +0.000 A 
ENDBRANCH   4  12
BRANCH   7  19
ATOM     19  O   UNL     1       0.597   2.828  20.081  0.00  0.00    +0.000 OA
ATOM     20  H   UNL     1       0.817   2.242  20.822  0.00  0.00    +0.000 HD
ENDBRANCH   7  19
TORSDOF 2
ENDMDL
MODEL 3
REMARK VINA RESULT:      -7.2      3.999      6.940
REMARK  Name = 
REMARK  2 active torsions:
REMARK  status: ('A' for Active; 'I' for Inactive)
REMARK    1  A    between atoms: C_4  and  C_5
REMARK    2  A    between atoms: C_14  and  O_15
REMARK                            x       y       z     vdW  Elec       q    Type
REMARK                         _______ _______ _______ _____ _____    ______ ____
ROOT
ATOM      1  O   UNL     1       4.496   5.821  16.872  0.00  0.00    +0.000 OA
ATOM      2  C   UNL     1       3.577   5.509  17.607  0.00  0.00    +0.000 C 
ATOM      3  C   UNL     1       2.616   6.425  18.281  0.00  0.00    +0.000 C 
ATOM      4  C   UNL     1       2.711   7.748  18.107  0.00  0.00    +0.000 C 
ATOM      5  C   UNL     1       1.642   5.588  19.078  0.00  0.00    +0.000 C 
ATOM      6  C   UNL     1       2.099   4.178  18.837  0.00  0.00    +0.000 A 
ATOM      7  C   UNL     1       1.600   2.980  19.315  0.00  0.00    +0.000 A 
ATOM      8  C   UNL     1       2.216   1.781  18.941  0.00  0.00    +0.000 A 
ATOM      9  C   UNL     1       3.333   1.778  18.090  0.00  0.00    +0.000 A 
ATOM     10  C   UNL     1       3.845   2.978  17.603  0.00  0.00    +0.000 A 
ATOM     11  C   UNL     1       3.212   4.148  17.990  0.00  0.00    +0.000 A 
ENDROOT
BRANCH   4  12
ATOM     12  C   UNL     1       1.812   8.713  18.732  0.00  0.00    +0.000 A 
ATOM     13  C   UNL     1       1.123   9.640  17.944  0.00  0.00    +0.000 A 
ATOM     14  C   UNL     1       0.208  10.518  18.531  0.00  0.00    +0.000 A 
ATOM     15  C   UNL     1       0.002  10.481  19.908  0.00  0.00    +0.000 A 
ATOM     16 BR   UNL     1      -1.267  11.637  20.698  0.00  0.00    +0.000 Br
ATOM     17  C   UNL     1       0.720   9.593  20.708  0.00  0.00    +0.000 A 
ATOM     18  C   UNL     1       1.625   8.707  20.119  0.00  0.00    +0.000 A 
ENDBRANCH   4  12
BRANCH   7  19
ATOM     19  O   UNL     1       0.525   2.893  20.145  0.00  0.00    +0.000 OA
ATOM     20  H   UNL     1       0.820   2.708  21.050  0.00  0.00    +0.000 HD
ENDBRANCH   7  19
TORSDOF 2
ENDMDL
MODEL 4
REMARK VINA RESULT:      -7.1      3.373      4.448
REMARK  Name = 
REMARK  2 active torsions:
REMARK  status: ('A' for Active; 'I' for Inactive)
REMARK    1  A    between atoms: C_4  and  C_5
REMARK    2  A    between atoms: C_14  and  O_15
REMARK                            x       y       z     vdW  Elec       q    Type
REMARK                         _______ _______ _______ _____ _____    ______ ____
ROOT
ATOM      1  O   UNL     1       4.444   2.404  17.376  0.00  0.00    +0.000 OA
ATOM      2  C   UNL     1       4.103   3.337  18.079  0.00  0.00    +0.000 C 
ATOM      3  C   UNL     1       4.846   4.607  18.309  0.00  0.00    +0.000 C 
ATOM      4  C   UNL     1       6.024   4.817  17.709  0.00  0.00    +0.000 C 
ATOM      5  C   UNL     1       4.031   5.472  19.241  0.00  0.00    +0.000 C 
ATOM      6  C   UNL     1       2.816   4.638  19.535  0.00  0.00    +0.000 A 
ATOM      7  C   UNL     1       1.721   4.902  20.338  0.00  0.00    +0.000 A 
ATOM      8  C   UNL     1       0.707   3.945  20.452  0.00  0.00    +0.000 A 
ATOM      9  C   UNL     1       0.787   2.722  19.764  0.00  0.00    +0.000 A 
ATOM     10  C   UNL     1       1.885   2.446  18.954  0.00  0.00    +0.000 A 
ATOM     11  C   UNL     1       2.872   3.414  18.862  0.00  0.00    +0.000 A 
ENDROOT
BRANCH   4  12
ATOM     12  C   UNL     1       6.815   6.030  17.883  0.00  0.00    +0.000 A 
ATOM     13  C   UNL     1       6.591   7.135  17.054  0.00  0.00    +0.000 A 
ATOM     14  C   UNL     1       7.297   8.323  17.263  0.00  0.00    +0.000 A 
ATOM     15  C   UNL     1       8.240   8.395  18.285  0.00  0.00    +0.000 A 
ATOM     16 BR   UNL     1       9.164  10.014  18.597  0.00  0.00    +0.000 Br
ATOM     17  C   UNL     1       8.504   7.284  19.085  0.00  0.00    +0.000 A 
ATOM     18  C   UNL     1       7.789   6.101  18.884  0.00  0.00    +0.000 A 
ENDBRANCH   4  12
BRANCH   7  19
ATOM     19  O   UNL     1       1.566   6.057  21.040  0.00  0.00    +0.000 OA
ATOM     20  H   UNL     1       0.853   6.587  20.652  0.00  0.00    +0.000 HD
ENDBRANCH   7  19
TORSDOF 2
ENDMDL
MODEL 5
REMARK VINA RESULT:      -7.1      4.239      7.448
REMARK  Name = 
REMARK  2 active torsions:
REMARK  status: ('A' for Active; 'I' for Inactive)
REMARK    1  A    between atoms: C_4  and  C_5
REMARK    2  A    between atoms: C_14  and  O_15
REMARK                            x       y       z     vdW  Elec       q    Type
REMARK                         _______ _______ _______ _____ _____    ______ ____
ROOT
ATOM      1  O   UNL     1       3.943   6.420  17.400  0.00  0.00    +0.000 OA
ATOM      2  C   UNL     1       3.180   5.913  18.202  0.00  0.00    +0.000 C 
ATOM      3  C   UNL     1       2.262   6.619  19.137  0.00  0.00    +0.000 C 
ATOM      4  C   UNL     1       2.214   7.957  19.154  0.00  0.00    +0.000 C 
ATOM      5  C   UNL     1       1.499   5.582  19.928  0.00  0.00    +0.000 C 
ATOM      6  C   UNL     1       2.032   4.275  19.413  0.00  0.00    +0.000 A 
ATOM      7  C   UNL     1       1.718   2.976  19.770  0.00  0.00    +0.000 A 
ATOM      8  C   UNL     1       2.368   1.913  19.135  0.00  0.00    +0.000 A 
ATOM      9  C   UNL     1       3.335   2.147  18.143  0.00  0.00    +0.000 A 
ATOM     10  C   UNL     1       3.660   3.450  17.776  0.00  0.00    +0.000 A 
ATOM     11  C   UNL     1       2.997   4.481  18.423  0.00  0.00    +0.000 A 
ENDROOT
BRANCH   4  12
ATOM     12  C   UNL     1       1.345   8.724  20.040  0.00  0.00    +0.000 A 
ATOM     13  C   UNL     1       1.346   8.469  21.415  0.00  0.00    +0.000 A 
ATOM     14  C   UNL     1       0.568   9.249  22.274  0.00  0.00    +0.000 A 
ATOM     15  C   UNL     1      -0.226  10.268  21.753  0.00  0.00    +0.000 A 
ATOM     16 BR   UNL     1      -1.246  11.352  22.918  0.00  0.00    +0.000 Br
ATOM     17  C   UNL     1      -0.271  10.498  20.379  0.00  0.00    +0.000 A 
ATOM     18  C   UNL     1       0.517   9.726  19.521  0.00  0.00    +0.000 A 
ENDBRANCH   4  12
BRANCH   7  19
ATOM     19  O   UNL     1       0.798   2.662  20.722  0.00  0.00    +0.000 OA
ATOM     20  H   UNL     1      -0.097   2.805  20.377  0.00  0.00    +0.000 HD
ENDBRANCH   7  19
TORSDOF 2
ENDMDL
MODEL 6
REMARK VINA RESULT:      -7.1      4.307      7.421
REMARK  Name = 
REMARK  2 active torsions:
REMARK  status: ('A' for Active; 'I' for Inactive)
REMARK    1  A    between atoms: C_4  and  C_5
REMARK    2  A    between atoms: C_14  and  O_15
REMARK                            x       y       z     vdW  Elec       q    Type
REMARK                         _______ _______ _______ _____ _____    ______ ____
ROOT
ATOM      1  O   UNL     1       3.817   6.350  17.392  0.00  0.00    +0.000 OA
ATOM      2  C   UNL     1       3.071   5.881  18.230  0.00  0.00    +0.000 C 
ATOM      3  C   UNL     1       2.216   6.631  19.192  0.00  0.00    +0.000 C 
ATOM      4  C   UNL     1       2.216   7.969  19.192  0.00  0.00    +0.000 C 
ATOM      5  C   UNL     1       1.451   5.631  20.027  0.00  0.00    +0.000 C 
ATOM      6  C   UNL     1       1.917   4.300  19.510  0.00  0.00    +0.000 A 
ATOM      7  C   UNL     1       1.573   3.017  19.898  0.00  0.00    +0.000 A 
ATOM      8  C   UNL     1       2.160   1.924  19.253  0.00  0.00    +0.000 A 
ATOM      9  C   UNL     1       3.092   2.111  18.219  0.00  0.00    +0.000 A 
ATOM     10  C   UNL     1       3.447   3.397  17.821  0.00  0.00    +0.000 A 
ATOM     11  C   UNL     1       2.847   4.459  18.479  0.00  0.00    +0.000 A 
ENDROOT
BRANCH   4  12
ATOM     12  C   UNL     1       1.410   8.778  20.101  0.00  0.00    +0.000 A 
ATOM     13  C   UNL     1       0.533   9.741  19.590  0.00  0.00    +0.000 A 
ATOM     14  C   UNL     1      -0.291  10.467  20.453  0.00  0.00    +0.000 A 
ATOM     15  C   UNL     1      -0.220  10.245  21.827  0.00  0.00    +0.000 A 
ATOM     16 BR   UNL     1      -1.364  11.195  22.992  0.00  0.00    +0.000 Br
ATOM     17  C   UNL     1       0.686   9.322  22.348  0.00  0.00    +0.000 A 
ATOM     18  C   UNL     1       1.501   8.586  21.483  0.00  0.00    +0.000 A 
ENDBRANCH   4  12
BRANCH   7  19
ATOM     19  O   UNL     1       0.682   2.748  20.891  0.00  0.00    +0.000 OA
ATOM     20  H   UNL     1       1.006   3.103  21.732  0.00  0.00    +0.000 HD
ENDBRANCH   7  19
TORSDOF 2
ENDMDL
MODEL 7
REMARK VINA RESULT:      -7.0      0.198      1.125
REMARK  Name = 
REMARK  2 active torsions:
REMARK  status: ('A' for Active; 'I' for Inactive)
REMARK    1  A    between atoms: C_4  and  C_5
REMARK    2  A    between atoms: C_14  and  O_15
REMARK                            x       y       z     vdW  Elec       q    Type
REMARK                         _______ _______ _______ _____ _____    ______ ____
ROOT
ATOM      1  O   UNL     1       2.977   5.170  20.493  0.00  0.00    +0.000 OA
ATOM      2  C   UNL     1       2.938   6.052  19.654  0.00  0.00    +0.000 C 
ATOM      3  C   UNL     1       3.664   6.088  18.355  0.00  0.00    +0.000 C 
ATOM      4  C   UNL     1       4.465   5.076  18.002  0.00  0.00    +0.000 C 
ATOM      5  C   UNL     1       3.296   7.368  17.641  0.00  0.00    +0.000 C 
ATOM      6  C   UNL     1       2.353   8.050  18.590  0.00  0.00    +0.000 A 
ATOM      7  C   UNL     1       1.697   9.264  18.485  0.00  0.00    +0.000 A 
ATOM      8  C   UNL     1       0.862   9.685  19.524  0.00  0.00    +0.000 A 
ATOM      9  C   UNL     1       0.682   8.895  20.672  0.00  0.00    +0.000 A 
ATOM     10  C   UNL     1       1.337   7.673  20.789  0.00  0.00    +0.000 A 
ATOM     11  C   UNL     1       2.157   7.283  19.742  0.00  0.00    +0.000 A 
ENDROOT
BRANCH   4  12
ATOM     12  C   UNL     1       5.213   5.035  16.749  0.00  0.00    +0.000 A 
ATOM     13  C   UNL     1       6.453   5.674  16.654  0.00  0.00    +0.000 A 
ATOM     14  C   UNL     1       7.204   5.577  15.480  0.00  0.00    +0.000 A 
ATOM     15  C   UNL     1       6.702   4.861  14.396  0.00  0.00    +0.000 A 
ATOM     16 BR   UNL     1       7.734   4.692  12.822  0.00  0.00    +0.000 Br
ATOM     17  C   UNL     1       5.445   4.262  14.465  0.00  0.00    +0.000 A 
ATOM     18  C   UNL     1       4.700   4.348  15.644  0.00  0.00    +0.000 A 
ENDBRANCH   4  12
BRANCH   7  19
ATOM     19  O   UNL     1       1.817  10.090  17.411  0.00  0.00    +0.000 OA
ATOM     20  H   UNL     1       2.684  10.525  17.423  0.00  0.00    +0.000 HD
ENDBRANCH   7  19
TORSDOF 2
ENDMDL
MODEL 8
REMARK VINA RESULT:      -6.8      4.061      7.314
REMARK  Name = 
REMARK  2 active torsions:
REMARK  status: ('A' for Active; 'I' for Inactive)
REMARK    1  A    between atoms: C_4  and  C_5
REMARK    2  A    between atoms: C_14  and  O_15
REMARK                            x       y       z     vdW  Elec       q    Type
REMARK                         _______ _______ _______ _____ _____    ______ ____
ROOT
ATOM      1  O   UNL     1       7.824   6.382  16.094  0.00  0.00    +0.000 OA
ATOM      2  C   UNL     1       7.040   5.585  15.612  0.00  0.00    +0.000 C 
ATOM      3  C   UNL     1       5.887   4.935  16.295  0.00  0.00    +0.000 C 
ATOM      4  C   UNL     1       5.622   5.209  17.578  0.00  0.00    +0.000 C 
ATOM      5  C   UNL     1       5.191   4.037  15.301  0.00  0.00    +0.000 C 
ATOM      6  C   UNL     1       6.000   4.196  14.045  0.00  0.00    +0.000 A 
ATOM      7  C   UNL     1       5.849   3.609  12.801  0.00  0.00    +0.000 A 
ATOM      8  C   UNL     1       6.752   3.923  11.781  0.00  0.00    +0.000 A 
ATOM      9  C   UNL     1       7.808   4.822  12.002  0.00  0.00    +0.000 A 
ATOM     10  C   UNL     1       7.970   5.418  13.249  0.00  0.00    +0.000 A 
ATOM     11  C   UNL     1       7.059   5.088  14.239  0.00  0.00    +0.000 A 
ENDROOT
BRANCH   4  12
ATOM     12  C   UNL     1       4.515   4.615  18.320  0.00  0.00    +0.000 A 
ATOM     13  C   UNL     1       4.740   3.508  19.146  0.00  0.00    +0.000 A 
ATOM     14  C   UNL     1       3.698   2.981  19.912  0.00  0.00    +0.000 A 
ATOM     15  C   UNL     1       2.428   3.548  19.834  0.00  0.00    +0.000 A 
ATOM     16 BR   UNL     1       1.027   2.863  20.902  0.00  0.00    +0.000 Br
ATOM     17  C   UNL     1       2.183   4.620  18.977  0.00  0.00    +0.000 A 
ATOM     18  C   UNL     1       3.229   5.155  18.221  0.00  0.00    +0.000 A 
ENDBRANCH   4  12
BRANCH   7  19
ATOM     19  O   UNL     1       4.857   2.727  12.504  0.00  0.00    +0.000 OA
ATOM     20  H   UNL     1       4.604   2.815  11.572  0.00  0.00    +0.000 HD
ENDBRANCH   7  19
TORSDOF 2
ENDMDL
MODEL 9
REMARK VINA RESULT:      -6.7      3.393      4.624
REMARK  Name = 
REMARK  2 active torsions:
REMARK  status: ('A' for Active; 'I' for Inactive)
REMARK    1  A    between atoms: C_4  and  C_5
REMARK    2  A    between atoms: C_14  and  O_15
REMARK                            x       y       z     vdW  Elec       q    Type
REMARK                         _______ _______ _______ _____ _____    ______ ____
ROOT
ATOM      1  O   UNL     1       1.890  10.570  18.091  0.00  0.00    +0.000 OA
ATOM      2  C   UNL     1       1.510   9.915  19.043  0.00  0.00    +0.000 C 
ATOM      3  C   UNL     1       1.709   8.456  19.268  0.00  0.00    +0.000 C 
ATOM      4  C   UNL     1       2.370   7.720  18.367  0.00  0.00    +0.000 C 
ATOM      5  C   UNL     1       1.079   8.089  20.591  0.00  0.00    +0.000 C 
ATOM      6  C   UNL     1       0.510   9.386  21.090  0.00  0.00    +0.000 A 
ATOM      7  C   UNL     1      -0.194   9.670  22.247  0.00  0.00    +0.000 A 
ATOM      8  C   UNL     1      -0.626  10.979  22.484  0.00  0.00    +0.000 A 
ATOM      9  C   UNL     1      -0.357  12.006  21.564  0.00  0.00    +0.000 A 
ATOM     10  C   UNL     1       0.349  11.732  20.396  0.00  0.00    +0.000 A 
ATOM     11  C   UNL     1       0.764  10.426  20.191  0.00  0.00    +0.000 A 
ENDROOT
BRANCH   4  12
ATOM     12  C   UNL     1       2.607   6.287  18.510  0.00  0.00    +0.000 A 
ATOM     13  C   UNL     1       1.747   5.371  17.894  0.00  0.00    +0.000 A 
ATOM     14  C   UNL     1       2.011   4.001  17.970  0.00  0.00    +0.000 A 
ATOM     15  C   UNL     1       3.121   3.550  18.681  0.00  0.00    +0.000 A 
ATOM     16 BR   UNL     1       3.503   1.700  18.747  0.00  0.00    +0.000 Br
ATOM     17  C   UNL     1       3.955   4.452  19.339  0.00  0.00    +0.000 A 
ATOM     18  C   UNL     1       3.698   5.823  19.251  0.00  0.00    +0.000 A 
ENDBRANCH   4  12
BRANCH   7  19
ATOM     19  O   UNL     1      -0.499   8.736  23.188  0.00  0.00    +0.000 OA
ATOM     20  H   UNL     1      -1.456   8.587  23.208  0.00  0.00    +0.000 HD
ENDBRANCH   7  19
TORSDOF 2
ENDMDL
