MODEL 1
REMARK VINA RESULT:      -8.6      0.000      0.000
REMARK  Name = 
REMARK  6 active torsions:
REMARK  status: ('A' for Active; 'I' for Inactive)
REMARK    1  A    between atoms: C_2  and  C_15
REMARK    2  A    between atoms: N_3  and  N_4
REMARK    3  A    between atoms: C_12  and  O_13
REMARK    4  A    between atoms: C_18  and  S_19
REMARK    5  A    between atoms: S_19  and  N_22
REMARK    6  A    between atoms: N_22  and  C_23
REMARK                            x       y       z     vdW  Elec       q    Type
REMARK                         _______ _______ _______ _____ _____    ______ ____
ROOT
ATOM      1  C   UNL     1       2.697   8.061  18.381  0.00  0.00    +0.000 A 
ATOM      2  C   UNL     1       3.519   7.902  17.261  0.00  0.00    +0.000 A 
ATOM      3  C   UNL     1       4.379   6.804  17.182  0.00  0.00    +0.000 A 
ATOM      4  C   UNL     1       4.429   5.876  18.227  0.00  0.00    +0.000 A 
ATOM      5  C   UNL     1       3.603   6.017  19.344  0.00  0.00    +0.000 A 
ATOM      6  C   UNL     1       2.735   7.109  19.415  0.00  0.00    +0.000 A 
ENDROOT
BRANCH   1   8
ATOM      7  O   UNL     1       1.599   9.928  17.525  0.00  0.00    +0.000 OA
ATOM      8  C   UNL     1       1.713   9.168  18.485  0.00  0.00    +0.000 C 
ATOM      9  N   UNL     1       0.982   9.245  19.666  0.00  0.00    +0.000 N 
ATOM     10  H   UNL     1       1.037   8.539  20.387  0.00  0.00    +0.000 HD
BRANCH   9  11
ATOM     11  N   UNL     1       0.082  10.250  19.772  0.00  0.00    +0.000 NA
ATOM     12  C   UNL     1      -0.455  10.561  20.903  0.00  0.00    +0.000 C 
ATOM     13  C   UNL     1      -0.222   9.944  22.261  0.00  0.00    +0.000 C 
ATOM     14  C   UNL     1      -1.090  10.771  23.230  0.00  0.00    +0.000 C 
ATOM     15  C   UNL     1      -1.779  11.772  22.358  0.00  0.00    +0.000 A 
ATOM     16  C   UNL     1      -2.677  12.756  22.745  0.00  0.00    +0.000 A 
ATOM     17  C   UNL     1      -3.211  13.602  21.766  0.00  0.00    +0.000 A 
ATOM     18  C   UNL     1      -2.849  13.462  20.417  0.00  0.00    +0.000 A 
ATOM     19  C   UNL     1      -1.948  12.472  20.037  0.00  0.00    +0.000 A 
ATOM     20  C   UNL     1      -1.424  11.645  21.019  0.00  0.00    +0.000 A 
BRANCH  19  21
ATOM     21  O   UNL     1      -1.594  12.321  18.736  0.00  0.00    +0.000 OA
ATOM     22  H   UNL     1      -1.086  11.509  18.606  0.00  0.00    +0.000 HD
ENDBRANCH  19  21
ENDBRANCH   9  11
ENDBRANCH   1   8
BRANCH   4  23
ATOM     23  S   UNL     1       5.499   4.464  18.103  0.00  0.00    +0.000 S 
ATOM     24  O   UNL     1       5.638   4.156  16.699  0.00  0.00    +0.000 OA
ATOM     25  O   UNL     1       6.652   4.677  18.952  0.00  0.00    +0.000 OA
BRANCH  23  26
ATOM     26  N   UNL     1       4.580   3.206  18.764  0.00  0.00    +0.000 NA
ATOM     27  H   UNL     1       4.119   3.556  19.607  0.00  0.00    +0.000 HD
BRANCH  26  28
ATOM     28  C   UNL     1       3.744   2.371  17.870  0.00  0.00    +0.000 C 
ATOM     29  C   UNL     1       3.013   1.260  18.633  0.00  0.00    +0.000 C 
ATOM     30  C   UNL     1       1.887   1.783  19.520  0.00  0.00    +0.000 C 
ATOM     31  C   UNL     1       0.889   2.596  18.705  0.00  0.00    +0.000 C 
ATOM     32  C   UNL     1       1.583   3.755  17.998  0.00  0.00    +0.000 C 
ATOM     33  C   UNL     1       2.742   3.272  17.124  0.00  0.00    +0.000 C 
ENDBRANCH  26  28
ENDBRANCH  23  26
ENDBRANCH   4  23
TORSDOF 6
ENDMDL
MODEL 2
REMARK VINA RESULT:      -8.6      0.653      1.100
REMARK  Name = 
REMARK  6 active torsions:
REMARK  status: ('A' for Active; 'I' for Inactive)
REMARK    1  A    between atoms: C_2  and  C_15
REMARK    2  A    between atoms: N_3  and  N_4
REMARK    3  A    between atoms: C_12  and  O_13
REMARK    4  A    between atoms: C_18  and  S_19
REMARK    5  A    between atoms: S_19  and  N_22
REMARK    6  A    between atoms: N_22  and  C_23
REMARK                            x       y       z     vdW  Elec       q    Type
REMARK                         _______ _______ _______ _____ _____    ______ ____
ROOT
ATOM      1  C   UNL     1       2.102   8.191  18.744  0.00  0.00    +0.000 A 
ATOM      2  C   UNL     1       2.201   7.257  19.780  0.00  0.00    +0.000 A 
ATOM      3  C   UNL     1       3.173   6.254  19.720  0.00  0.00    +0.000 A 
ATOM      4  C   UNL     1       4.032   6.177  18.619  0.00  0.00    +0.000 A 
ATOM      5  C   UNL     1       3.952   7.113  17.586  0.00  0.00    +0.000 A 
ATOM      6  C   UNL     1       2.987   8.121  17.655  0.00  0.00    +0.000 A 
ENDROOT
BRANCH   1   8
ATOM      7  O   UNL     1       0.612   9.670  17.737  0.00  0.00    +0.000 OA
ATOM      8  C   UNL     1       1.137   9.319  18.791  0.00  0.00    +0.000 C 
ATOM      9  N   UNL     1       0.893   9.880  20.040  0.00  0.00    +0.000 N 
ATOM     10  H   UNL     1       1.270   9.494  20.894  0.00  0.00    +0.000 HD
BRANCH   9  11
ATOM     11  N   UNL     1       0.016  10.909  20.095  0.00  0.00    +0.000 NA
ATOM     12  C   UNL     1      -0.673  11.155  21.158  0.00  0.00    +0.000 C 
ATOM     13  C   UNL     1      -0.659  10.429  22.481  0.00  0.00    +0.000 C 
ATOM     14  C   UNL     1      -1.637  11.214  23.378  0.00  0.00    +0.000 C 
ATOM     15  C   UNL     1      -2.162  12.304  22.499  0.00  0.00    +0.000 A 
ATOM     16  C   UNL     1      -3.080  13.291  22.829  0.00  0.00    +0.000 A 
ATOM     17  C   UNL     1      -3.440  14.229  21.855  0.00  0.00    +0.000 A 
ATOM     18  C   UNL     1      -2.887  14.176  20.566  0.00  0.00    +0.000 A 
ATOM     19  C   UNL     1      -1.968  13.183  20.241  0.00  0.00    +0.000 A 
ATOM     20  C   UNL     1      -1.618  12.265  21.219  0.00  0.00    +0.000 A 
BRANCH  19  21
ATOM     21  O   UNL     1      -1.431  13.117  18.997  0.00  0.00    +0.000 OA
ATOM     22  H   UNL     1      -1.252  12.201  18.744  0.00  0.00    +0.000 HD
ENDBRANCH  19  21
ENDBRANCH   9  11
ENDBRANCH   1   8
BRANCH   4  23
ATOM     23  S   UNL     1       5.288   4.922  18.567  0.00  0.00    +0.000 S 
ATOM     24  O   UNL     1       5.652   4.740  17.182  0.00  0.00    +0.000 OA
ATOM     25  O   UNL     1       6.279   5.214  19.581  0.00  0.00    +0.000 OA
BRANCH  23  26
ATOM     26  N   UNL     1       4.466   3.514  19.020  0.00  0.00    +0.000 NA
ATOM     27  H   UNL     1       3.906   3.724  19.849  0.00  0.00    +0.000 HD
BRANCH  26  28
ATOM     28  C   UNL     1       3.801   2.696  17.979  0.00  0.00    +0.000 C 
ATOM     29  C   UNL     1       3.190   1.414  18.554  0.00  0.00    +0.000 C 
ATOM     30  C   UNL     1       1.958   1.671  19.418  0.00  0.00    +0.000 C 
ATOM     31  C   UNL     1       0.902   2.443  18.637  0.00  0.00    +0.000 C 
ATOM     32  C   UNL     1       1.467   3.761  18.120  0.00  0.00    +0.000 C 
ATOM     33  C   UNL     1       2.724   3.546  17.277  0.00  0.00    +0.000 C 
ENDBRANCH  26  28
ENDBRANCH  23  26
ENDBRANCH   4  23
TORSDOF 6
ENDMDL
MODEL 3
REMARK VINA RESULT:      -8.6      3.382      4.823
REMARK  Name = 
REMARK  6 active torsions:
REMARK  status: ('A' for Active; 'I' for Inactive)
REMARK    1  A    between atoms: C_2  and  C_15
REMARK    2  A    between atoms: N_3  and  N_4
REMARK    3  A    between atoms: C_12  and  O_13
REMARK    4  A    between atoms: C_18  and  S_19
REMARK    5  A    between atoms: S_19  and  N_22
REMARK    6  A    between atoms: N_22  and  C_23
REMARK                            x       y       z     vdW  Elec       q    Type
REMARK                         _______ _______ _______ _____ _____    ______ ____
ROOT
ATOM      1  C   UNL     1       1.402   9.052  19.410  0.00  0.00    +0.000 A 
ATOM      2  C   UNL     1       1.435   8.178  20.501  0.00  0.00    +0.000 A 
ATOM      3  C   UNL     1       2.006   6.910  20.356  0.00  0.00    +0.000 A 
ATOM      4  C   UNL     1       2.528   6.513  19.120  0.00  0.00    +0.000 A 
ATOM      5  C   UNL     1       2.514   7.385  18.029  0.00  0.00    +0.000 A 
ATOM      6  C   UNL     1       1.953   8.655  18.180  0.00  0.00    +0.000 A 
ENDROOT
BRANCH   1   8
ATOM      7  O   UNL     1       0.115  10.684  20.460  0.00  0.00    +0.000 OA
ATOM      8  C   UNL     1       0.874  10.436  19.526  0.00  0.00    +0.000 C 
ATOM      9  N   UNL     1       1.299  11.349  18.567  0.00  0.00    +0.000 N 
ATOM     10  H   UNL     1       2.003  11.126  17.877  0.00  0.00    +0.000 HD
BRANCH   9  11
ATOM     11  N   UNL     1       0.824  12.612  18.662  0.00  0.00    +0.000 NA
ATOM     12  C   UNL     1       1.598  13.637  18.537  0.00  0.00    +0.000 C 
ATOM     13  C   UNL     1       3.082  13.672  18.265  0.00  0.00    +0.000 C 
ATOM     14  C   UNL     1       3.434  15.169  18.158  0.00  0.00    +0.000 C 
ATOM     15  C   UNL     1       2.141  15.878  18.409  0.00  0.00    +0.000 A 
ATOM     16  C   UNL     1       1.914  17.247  18.424  0.00  0.00    +0.000 A 
ATOM     17  C   UNL     1       0.618  17.713  18.676  0.00  0.00    +0.000 A 
ATOM     18  C   UNL     1      -0.436  16.816  18.910  0.00  0.00    +0.000 A 
ATOM     19  C   UNL     1      -0.201  15.445  18.894  0.00  0.00    +0.000 A 
ATOM     20  C   UNL     1       1.087  15.000  18.638  0.00  0.00    +0.000 A 
BRANCH  19  21
ATOM     21  O   UNL     1      -1.210  14.567  19.125  0.00  0.00    +0.000 OA
ATOM     22  H   UNL     1      -1.085  13.753  18.619  0.00  0.00    +0.000 HD
ENDBRANCH  19  21
ENDBRANCH   9  11
ENDBRANCH   1   8
BRANCH   4  23
ATOM     23  S   UNL     1       3.285   4.915  18.955  0.00  0.00    +0.000 S 
ATOM     24  O   UNL     1       2.951   4.160  20.140  0.00  0.00    +0.000 OA
ATOM     25  O   UNL     1       3.011   4.407  17.628  0.00  0.00    +0.000 OA
BRANCH  23  26
ATOM     26  N   UNL     1       4.941   5.243  19.065  0.00  0.00    +0.000 NA
ATOM     27  H   UNL     1       5.284   4.863  19.951  0.00  0.00    +0.000 HD
BRANCH  26  28
ATOM     28  C   UNL     1       5.807   5.015  17.884  0.00  0.00    +0.000 C 
ATOM     29  C   UNL     1       5.618   6.094  16.812  0.00  0.00    +0.000 C 
ATOM     30  C   UNL     1       6.192   7.449  17.216  0.00  0.00    +0.000 C 
ATOM     31  C   UNL     1       7.668   7.326  17.574  0.00  0.00    +0.000 C 
ATOM     32  C   UNL     1       7.871   6.312  18.694  0.00  0.00    +0.000 C 
ATOM     33  C   UNL     1       7.277   4.949  18.338  0.00  0.00    +0.000 C 
ENDBRANCH  26  28
ENDBRANCH  23  26
ENDBRANCH   4  23
TORSDOF 6
ENDMDL
MODEL 4
REMARK VINA RESULT:      -8.6      1.831      2.498
REMARK  Name = 
REMARK  6 active torsions:
REMARK  status: ('A' for Active; 'I' for Inactive)
REMARK    1  A    between atoms: C_2  and  C_15
REMARK    2  A    between atoms: N_3  and  N_4
REMARK    3  A    between atoms: C_12  and  O_13
REMARK    4  A    between atoms: C_18  and  S_19
REMARK    5  A    between atoms: S_19  and  N_22
REMARK    6  A    between atoms: N_22  and  C_23
REMARK                            x       y       z     vdW  Elec       q    Type
REMARK                         _______ _______ _______ _____ _____    ______ ____
ROOT
ATOM      1  C   UNL     1       1.819   8.338  19.158  0.00  0.00    +0.000 A 
ATOM      2  C   UNL     1       2.422   8.533  17.912  0.00  0.00    +0.000 A 
ATOM      3  C   UNL     1       3.396   7.637  17.464  0.00  0.00    +0.000 A 
ATOM      4  C   UNL     1       3.778   6.557  18.268  0.00  0.00    +0.000 A 
ATOM      5  C   UNL     1       3.171   6.344  19.508  0.00  0.00    +0.000 A 
ATOM      6  C   UNL     1       2.190   7.235  19.947  0.00  0.00    +0.000 A 
ENDROOT
BRANCH   1   8
ATOM      7  O   UNL     1       0.411   9.129  20.836  0.00  0.00    +0.000 OA
ATOM      8  C   UNL     1       0.728   9.216  19.651  0.00  0.00    +0.000 C 
ATOM      9  N   UNL     1       0.159  10.084  18.725  0.00  0.00    +0.000 N 
ATOM     10  H   UNL     1       0.519  10.193  17.788  0.00  0.00    +0.000 HD
BRANCH   9  11
ATOM     11  N   UNL     1      -0.837  10.890  19.163  0.00  0.00    +0.000 NA
ATOM     12  C   UNL     1      -1.991  10.914  18.587  0.00  0.00    +0.000 C 
ATOM     13  C   UNL     1      -2.471  10.114  17.401  0.00  0.00    +0.000 C 
ATOM     14  C   UNL     1      -3.945  10.523  17.213  0.00  0.00    +0.000 C 
ATOM     15  C   UNL     1      -4.190  11.546  18.277  0.00  0.00    +0.000 A 
ATOM     16  C   UNL     1      -5.368  12.231  18.537  0.00  0.00    +0.000 A 
ATOM     17  C   UNL     1      -5.392  13.153  19.590  0.00  0.00    +0.000 A 
ATOM     18  C   UNL     1      -4.249  13.384  20.371  0.00  0.00    +0.000 A 
ATOM     19  C   UNL     1      -3.071  12.694  20.103  0.00  0.00    +0.000 A 
ATOM     20  C   UNL     1      -3.065  11.780  19.060  0.00  0.00    +0.000 A 
BRANCH  19  21
ATOM     21  O   UNL     1      -1.956  12.912  20.845  0.00  0.00    +0.000 OA
ATOM     22  H   UNL     1      -1.724  12.129  21.362  0.00  0.00    +0.000 HD
ENDBRANCH  19  21
ENDBRANCH   9  11
ENDBRANCH   1   8
BRANCH   4  23
ATOM     23  S   UNL     1       4.990   5.403  17.677  0.00  0.00    +0.000 S 
ATOM     24  O   UNL     1       4.802   5.279  16.250  0.00  0.00    +0.000 OA
ATOM     25  O   UNL     1       6.276   5.745  18.246  0.00  0.00    +0.000 OA
BRANCH  23  26
ATOM     26  N   UNL     1       4.493   3.927  18.339  0.00  0.00    +0.000 NA
ATOM     27  H   UNL     1       4.115   4.106  19.272  0.00  0.00    +0.000 HD
BRANCH  26  28
ATOM     28  C   UNL     1       3.724   2.978  17.500  0.00  0.00    +0.000 C 
ATOM     29  C   UNL     1       3.461   1.651  18.221  0.00  0.00    +0.000 C 
ATOM     30  C   UNL     1       2.448   1.775  19.356  0.00  0.00    +0.000 C 
ATOM     31  C   UNL     1       1.136   2.358  18.848  0.00  0.00    +0.000 C 
ATOM     32  C   UNL     1       1.362   3.717  18.195  0.00  0.00    +0.000 C 
ATOM     33  C   UNL     1       2.399   3.638  17.073  0.00  0.00    +0.000 C 
ENDBRANCH  26  28
ENDBRANCH  23  26
ENDBRANCH   4  23
TORSDOF 6
ENDMDL
MODEL 5
REMARK VINA RESULT:      -8.4      1.611      1.989
REMARK  Name = 
REMARK  6 active torsions:
REMARK  status: ('A' for Active; 'I' for Inactive)
REMARK    1  A    between atoms: C_2  and  C_15
REMARK    2  A    between atoms: N_3  and  N_4
REMARK    3  A    between atoms: C_12  and  O_13
REMARK    4  A    between atoms: C_18  and  S_19
REMARK    5  A    between atoms: S_19  and  N_22
REMARK    6  A    between atoms: N_22  and  C_23
REMARK                            x       y       z     vdW  Elec       q    Type
REMARK                         _______ _______ _______ _____ _____    ______ ____
ROOT
ATOM      1  C   UNL     1       1.353   9.235  18.908  0.00  0.00    +0.000 A 
ATOM      2  C   UNL     1       2.058   9.134  17.705  0.00  0.00    +0.000 A 
ATOM      3  C   UNL     1       2.935   8.065  17.502  0.00  0.00    +0.000 A 
ATOM      4  C   UNL     1       3.118   7.109  18.507  0.00  0.00    +0.000 A 
ATOM      5  C   UNL     1       2.408   7.192  19.706  0.00  0.00    +0.000 A 
ATOM      6  C   UNL     1       1.523   8.255  19.901  0.00  0.00    +0.000 A 
ENDROOT
BRANCH   1   8
ATOM      7  O   UNL     1      -0.706  10.256  18.529  0.00  0.00    +0.000 OA
ATOM      8  C   UNL     1       0.355  10.308  19.148  0.00  0.00    +0.000 C 
ATOM      9  N   UNL     1       0.701  11.286  20.075  0.00  0.00    +0.000 N 
ATOM     10  H   UNL     1       1.540  11.234  20.635  0.00  0.00    +0.000 HD
BRANCH   9  11
ATOM     11  N   UNL     1      -0.201  12.270  20.302  0.00  0.00    +0.000 NA
ATOM     12  C   UNL     1      -1.000  12.234  21.314  0.00  0.00    +0.000 C 
ATOM     13  C   UNL     1      -1.105  11.190  22.399  0.00  0.00    +0.000 C 
ATOM     14  C   UNL     1      -2.187  11.719  23.361  0.00  0.00    +0.000 C 
ATOM     15  C   UNL     1      -2.644  13.003  22.743  0.00  0.00    +0.000 A 
ATOM     16  C   UNL     1      -3.612  13.875  23.220  0.00  0.00    +0.000 A 
ATOM     17  C   UNL     1      -3.892  15.035  22.489  0.00  0.00    +0.000 A 
ATOM     18  C   UNL     1      -3.210  15.316  21.296  0.00  0.00    +0.000 A 
ATOM     19  C   UNL     1      -2.240  14.437  20.823  0.00  0.00    +0.000 A 
ATOM     20  C   UNL     1      -1.971  13.295  21.562  0.00  0.00    +0.000 A 
BRANCH  19  21
ATOM     21  O   UNL     1      -1.577  14.694  19.667  0.00  0.00    +0.000 OA
ATOM     22  H   UNL     1      -2.144  15.156  19.036  0.00  0.00    +0.000 HD
ENDBRANCH  19  21
ENDBRANCH   9  11
ENDBRANCH   1   8
BRANCH   4  23
ATOM     23  S   UNL     1       4.207   5.734  18.228  0.00  0.00    +0.000 S 
ATOM     24  O   UNL     1       3.763   5.077  17.020  0.00  0.00    +0.000 OA
ATOM     25  O   UNL     1       5.573   6.182  18.391  0.00  0.00    +0.000 OA
BRANCH  23  26
ATOM     26  N   UNL     1       3.842   4.672  19.494  0.00  0.00    +0.000 NA
ATOM     27  H   UNL     1       3.445   5.216  20.263  0.00  0.00    +0.000 HD
BRANCH  26  28
ATOM     28  C   UNL     1       3.166   3.388  19.192  0.00  0.00    +0.000 C 
ATOM     29  C   UNL     1       3.404   2.338  20.284  0.00  0.00    +0.000 C 
ATOM     30  C   UNL     1       2.668   2.647  21.584  0.00  0.00    +0.000 C 
ATOM     31  C   UNL     1       1.173   2.805  21.334  0.00  0.00    +0.000 C 
ATOM     32  C   UNL     1       0.908   3.900  20.307  0.00  0.00    +0.000 C 
ATOM     33  C   UNL     1       1.659   3.642  19.000  0.00  0.00    +0.000 C 
ENDBRANCH  26  28
ENDBRANCH  23  26
ENDBRANCH   4  23
TORSDOF 6
ENDMDL
MODEL 6
REMARK VINA RESULT:      -8.2      3.300     10.326
REMARK  Name = 
REMARK  6 active torsions:
REMARK  status: ('A' for Active; 'I' for Inactive)
REMARK    1  A    between atoms: C_2  and  C_15
REMARK    2  A    between atoms: N_3  and  N_4
REMARK    3  A    between atoms: C_12  and  O_13
REMARK    4  A    between atoms: C_18  and  S_19
REMARK    5  A    between atoms: S_19  and  N_22
REMARK    6  A    between atoms: N_22  and  C_23
REMARK                            x       y       z     vdW  Elec       q    Type
REMARK                         _______ _______ _______ _____ _____    ______ ____
ROOT
ATOM      1  C   UNL     1       0.385   9.640  20.849  0.00  0.00    +0.000 A 
ATOM      2  C   UNL     1       0.106   9.413  22.200  0.00  0.00    +0.000 A 
ATOM      3  C   UNL     1      -0.725  10.297  22.894  0.00  0.00    +0.000 A 
ATOM      4  C   UNL     1      -1.261  11.413  22.243  0.00  0.00    +0.000 A 
ATOM      5  C   UNL     1      -1.000  11.641  20.890  0.00  0.00    +0.000 A 
ATOM      6  C   UNL     1      -0.179  10.749  20.196  0.00  0.00    +0.000 A 
ENDROOT
BRANCH   1   8
ATOM      7  O   UNL     1       1.438   8.991  18.875  0.00  0.00    +0.000 OA
ATOM      8  C   UNL     1       1.201   8.694  20.044  0.00  0.00    +0.000 C 
ATOM      9  N   UNL     1       1.646   7.547  20.693  0.00  0.00    +0.000 N 
ATOM     10  H   UNL     1       1.512   7.394  21.682  0.00  0.00    +0.000 HD
BRANCH   9  11
ATOM     11  N   UNL     1       2.391   6.678  19.970  0.00  0.00    +0.000 NA
ATOM     12  C   UNL     1       2.082   5.428  19.887  0.00  0.00    +0.000 C 
ATOM     13  C   UNL     1       0.915   4.701  20.508  0.00  0.00    +0.000 C 
ATOM     14  C   UNL     1       1.036   3.249  20.006  0.00  0.00    +0.000 C 
ATOM     15  C   UNL     1       2.274   3.242  19.166  0.00  0.00    +0.000 A 
ATOM     16  C   UNL     1       2.827   2.170  18.481  0.00  0.00    +0.000 A 
ATOM     17  C   UNL     1       3.998   2.375  17.743  0.00  0.00    +0.000 A 
ATOM     18  C   UNL     1       4.606   3.640  17.693  0.00  0.00    +0.000 A 
ATOM     19  C   UNL     1       4.046   4.710  18.383  0.00  0.00    +0.000 A 
ATOM     20  C   UNL     1       2.883   4.491  19.106  0.00  0.00    +0.000 A 
BRANCH  19  21
ATOM     21  O   UNL     1       4.626   5.936  18.349  0.00  0.00    +0.000 OA
ATOM     22  H   UNL     1       5.161   6.089  19.139  0.00  0.00    +0.000 HD
ENDBRANCH  19  21
ENDBRANCH   9  11
ENDBRANCH   1   8
BRANCH   4  23
ATOM     23  S   UNL     1      -2.344  12.512  23.122  0.00  0.00    +0.000 S 
ATOM     24  O   UNL     1      -3.216  11.694  23.932  0.00  0.00    +0.000 OA
ATOM     25  O   UNL     1      -1.556  13.581  23.697  0.00  0.00    +0.000 OA
BRANCH  23  26
ATOM     26  N   UNL     1      -3.321  13.168  21.906  0.00  0.00    +0.000 NA
ATOM     27  H   UNL     1      -3.018  12.781  21.010  0.00  0.00    +0.000 HD
BRANCH  26  28
ATOM     28  C   UNL     1      -4.786  13.246  22.116  0.00  0.00    +0.000 C 
ATOM     29  C   UNL     1      -5.289  14.694  22.145  0.00  0.00    +0.000 C 
ATOM     30  C   UNL     1      -5.251  15.370  20.778  0.00  0.00    +0.000 C 
ATOM     31  C   UNL     1      -6.043  14.566  19.755  0.00  0.00    +0.000 C 
ATOM     32  C   UNL     1      -5.509  13.142  19.653  0.00  0.00    +0.000 C 
ATOM     33  C   UNL     1      -5.500  12.443  21.013  0.00  0.00    +0.000 C 
ENDBRANCH  26  28
ENDBRANCH  23  26
ENDBRANCH   4  23
TORSDOF 6
ENDMDL
MODEL 7
REMARK VINA RESULT:      -8.2      3.472      4.670
REMARK  Name = 
REMARK  6 active torsions:
REMARK  status: ('A' for Active; 'I' for Inactive)
REMARK    1  A    between atoms: C_2  and  C_15
REMARK    2  A    between atoms: N_3  and  N_4
REMARK    3  A    between atoms: C_12  and  O_13
REMARK    4  A    between atoms: C_18  and  S_19
REMARK    5  A    between atoms: S_19  and  N_22
REMARK    6  A    between atoms: N_22  and  C_23
REMARK                            x       y       z     vdW  Elec       q    Type
REMARK                         _______ _______ _______ _____ _____    ______ ____
ROOT
ATOM      1  C   UNL     1       1.337   9.464  19.511  0.00  0.00    +0.000 A 
ATOM      2  C   UNL     1       1.337   8.529  20.550  0.00  0.00    +0.000 A 
ATOM      3  C   UNL     1       1.811   7.235  20.319  0.00  0.00    +0.000 A 
ATOM      4  C   UNL     1       2.268   6.873  19.048  0.00  0.00    +0.000 A 
ATOM      5  C   UNL     1       2.286   7.803  18.006  0.00  0.00    +0.000 A 
ATOM      6  C   UNL     1       1.823   9.099  18.244  0.00  0.00    +0.000 A 
ENDROOT
BRANCH   1   8
ATOM      7  O   UNL     1       0.756  11.261  20.874  0.00  0.00    +0.000 OA
ATOM      8  C   UNL     1       0.913  10.873  19.719  0.00  0.00    +0.000 C 
ATOM      9  N   UNL     1       0.741  11.648  18.576  0.00  0.00    +0.000 N 
ATOM     10  H   UNL     1       0.979  11.316  17.652  0.00  0.00    +0.000 HD
BRANCH   9  11
ATOM     11  N   UNL     1       0.355  12.933  18.754  0.00  0.00    +0.000 NA
ATOM     12  C   UNL     1       1.175  13.915  18.587  0.00  0.00    +0.000 C 
ATOM     13  C   UNL     1       2.627  13.873  18.179  0.00  0.00    +0.000 C 
ATOM     14  C   UNL     1       3.058  15.350  18.084  0.00  0.00    +0.000 C 
ATOM     15  C   UNL     1       1.839  16.124  18.475  0.00  0.00    +0.000 A 
ATOM     16  C   UNL     1       1.699  17.502  18.553  0.00  0.00    +0.000 A 
ATOM     17  C   UNL     1       0.462  18.033  18.938  0.00  0.00    +0.000 A 
ATOM     18  C   UNL     1      -0.619  17.191  19.243  0.00  0.00    +0.000 A 
ATOM     19  C   UNL     1      -0.471  15.810  19.164  0.00  0.00    +0.000 A 
ATOM     20  C   UNL     1       0.759  15.301  18.776  0.00  0.00    +0.000 A 
BRANCH  19  21
ATOM     21  O   UNL     1      -1.506  14.985  19.462  0.00  0.00    +0.000 OA
ATOM     22  H   UNL     1      -1.945  14.674  18.659  0.00  0.00    +0.000 HD
ENDBRANCH  19  21
ENDBRANCH   9  11
ENDBRANCH   1   8
BRANCH   4  23
ATOM     23  S   UNL     1       2.903   5.237  18.771  0.00  0.00    +0.000 S 
ATOM     24  O   UNL     1       3.260   4.695  20.061  0.00  0.00    +0.000 OA
ATOM     25  O   UNL     1       2.009   4.537  17.874  0.00  0.00    +0.000 OA
BRANCH  23  26
ATOM     26  N   UNL     1       4.364   5.507  17.961  0.00  0.00    +0.000 NA
ATOM     27  H   UNL     1       4.804   6.338  18.363  0.00  0.00    +0.000 HD
BRANCH  26  28
ATOM     28  C   UNL     1       5.266   4.363  17.692  0.00  0.00    +0.000 C 
ATOM     29  C   UNL     1       5.030   3.755  16.304  0.00  0.00    +0.000 C 
ATOM     30  C   UNL     1       5.508   4.654  15.167  0.00  0.00    +0.000 C 
ATOM     31  C   UNL     1       6.982   5.003  15.337  0.00  0.00    +0.000 C 
ATOM     32  C   UNL     1       7.227   5.680  16.680  0.00  0.00    +0.000 C 
ATOM     33  C   UNL     1       6.728   4.823  17.844  0.00  0.00    +0.000 C 
ENDBRANCH  26  28
ENDBRANCH  23  26
ENDBRANCH   4  23
TORSDOF 6
ENDMDL
MODEL 8
REMARK VINA RESULT:      -8.1      2.425      3.526
REMARK  Name = 
REMARK  6 active torsions:
REMARK  status: ('A' for Active; 'I' for Inactive)
REMARK    1  A    between atoms: C_2  and  C_15
REMARK    2  A    between atoms: N_3  and  N_4
REMARK    3  A    between atoms: C_12  and  O_13
REMARK    4  A    between atoms: C_18  and  S_19
REMARK    5  A    between atoms: S_19  and  N_22
REMARK    6  A    between atoms: N_22  and  C_23
REMARK                            x       y       z     vdW  Elec       q    Type
REMARK                         _______ _______ _______ _____ _____    ______ ____
ROOT
ATOM      1  C   UNL     1       1.512   8.901  19.485  0.00  0.00    +0.000 A 
ATOM      2  C   UNL     1       1.970   8.535  18.216  0.00  0.00    +0.000 A 
ATOM      3  C   UNL     1       2.503   7.259  18.012  0.00  0.00    +0.000 A 
ATOM      4  C   UNL     1       2.591   6.358  19.079  0.00  0.00    +0.000 A 
ATOM      5  C   UNL     1       2.123   6.708  20.347  0.00  0.00    +0.000 A 
ATOM      6  C   UNL     1       1.580   7.980  20.545  0.00  0.00    +0.000 A 
ENDROOT
BRANCH   1   8
ATOM      7  O   UNL     1       0.114  10.664  18.883  0.00  0.00    +0.000 OA
ATOM      8  C   UNL     1       0.871  10.216  19.742  0.00  0.00    +0.000 C 
ATOM      9  N   UNL     1       1.173  10.832  20.953  0.00  0.00    +0.000 N 
ATOM     10  H   UNL     1       1.720  10.380  21.671  0.00  0.00    +0.000 HD
BRANCH   9  11
ATOM     11  N   UNL     1       0.594  12.031  21.197  0.00  0.00    +0.000 NA
ATOM     12  C   UNL     1      -0.447  12.138  21.951  0.00  0.00    +0.000 C 
ATOM     13  C   UNL     1      -1.197  11.054  22.686  0.00  0.00    +0.000 C 
ATOM     14  C   UNL     1      -2.304  11.791  23.465  0.00  0.00    +0.000 C 
ATOM     15  C   UNL     1      -2.129  13.230  23.096  0.00  0.00    +0.000 A 
ATOM     16  C   UNL     1      -2.879  14.313  23.532  0.00  0.00    +0.000 A 
ATOM     17  C   UNL     1      -2.549  15.592  23.068  0.00  0.00    +0.000 A 
ATOM     18  C   UNL     1      -1.480  15.780  22.177  0.00  0.00    +0.000 A 
ATOM     19  C   UNL     1      -0.733  14.689  21.744  0.00  0.00    +0.000 A 
ATOM     20  C   UNL     1      -1.070  13.430  22.217  0.00  0.00    +0.000 A 
BRANCH  19  21
ATOM     21  O   UNL     1       0.298  14.856  20.878  0.00  0.00    +0.000 OA
ATOM     22  H   UNL     1       0.770  14.025  20.736  0.00  0.00    +0.000 HD
ENDBRANCH  19  21
ENDBRANCH   9  11
ENDBRANCH   1   8
BRANCH   4  23
ATOM     23  S   UNL     1       3.236   4.726  18.804  0.00  0.00    +0.000 S 
ATOM     24  O   UNL     1       2.836   3.914  19.929  0.00  0.00    +0.000 OA
ATOM     25  O   UNL     1       2.943   4.334  17.442  0.00  0.00    +0.000 OA
BRANCH  23  26
ATOM     26  N   UNL     1       4.910   4.927  18.949  0.00  0.00    +0.000 NA
ATOM     27  H   UNL     1       5.221   4.421  19.780  0.00  0.00    +0.000 HD
BRANCH  26  28
ATOM     28  C   UNL     1       5.764   4.787  17.746  0.00  0.00    +0.000 C 
ATOM     29  C   UNL     1       5.547   5.928  16.746  0.00  0.00    +0.000 C 
ATOM     30  C   UNL     1       6.107   7.263  17.230  0.00  0.00    +0.000 C 
ATOM     31  C   UNL     1       7.589   7.140  17.562  0.00  0.00    +0.000 C 
ATOM     32  C   UNL     1       7.820   6.061  18.614  0.00  0.00    +0.000 C 
ATOM     33  C   UNL     1       7.241   4.714  18.179  0.00  0.00    +0.000 C 
ENDBRANCH  26  28
ENDBRANCH  23  26
ENDBRANCH   4  23
TORSDOF 6
ENDMDL
MODEL 9
REMARK VINA RESULT:      -8.1      2.643      3.742
REMARK  Name = 
REMARK  6 active torsions:
REMARK  status: ('A' for Active; 'I' for Inactive)
REMARK    1  A    between atoms: C_2  and  C_15
REMARK    2  A    between atoms: N_3  and  N_4
REMARK    3  A    between atoms: C_12  and  O_13
REMARK    4  A    between atoms: C_18  and  S_19
REMARK    5  A    between atoms: S_19  and  N_22
REMARK    6  A    between atoms: N_22  and  C_23
REMARK                            x       y       z     vdW  Elec       q    Type
REMARK                         _______ _______ _______ _____ _____    ______ ____
ROOT
ATOM      1  C   UNL     1       1.643   7.453  20.384  0.00  0.00    +0.000 A 
ATOM      2  C   UNL     1       2.219   7.636  19.123  0.00  0.00    +0.000 A 
ATOM      3  C   UNL     1       2.608   6.524  18.370  0.00  0.00    +0.000 A 
ATOM      4  C   UNL     1       2.436   5.234  18.885  0.00  0.00    +0.000 A 
ATOM      5  C   UNL     1       1.848   5.040  20.137  0.00  0.00    +0.000 A 
ATOM      6  C   UNL     1       1.449   6.153  20.881  0.00  0.00    +0.000 A 
ENDROOT
BRANCH   1   8
ATOM      7  O   UNL     1       1.647   8.773  22.302  0.00  0.00    +0.000 OA
ATOM      8  C   UNL     1       1.145   8.594  21.195  0.00  0.00    +0.000 C 
ATOM      9  N   UNL     1       0.153   9.381  20.620  0.00  0.00    +0.000 N 
ATOM     10  H   UNL     1      -0.157   9.257  19.667  0.00  0.00    +0.000 HD
BRANCH   9  11
ATOM     11  N   UNL     1      -0.308  10.424  21.350  0.00  0.00    +0.000 NA
ATOM     12  C   UNL     1       0.185  11.609  21.223  0.00  0.00    +0.000 C 
ATOM     13  C   UNL     1       1.286  12.081  20.305  0.00  0.00    +0.000 C 
ATOM     14  C   UNL     1       1.392  13.598  20.553  0.00  0.00    +0.000 C 
ATOM     15  C   UNL     1       0.374  13.878  21.613  0.00  0.00    +0.000 A 
ATOM     16  C   UNL     1       0.070  15.101  22.194  0.00  0.00    +0.000 A 
ATOM     17  C   UNL     1      -0.928  15.151  23.174  0.00  0.00    +0.000 A 
ATOM     18  C   UNL     1      -1.611  13.989  23.566  0.00  0.00    +0.000 A 
ATOM     19  C   UNL     1      -1.300  12.766  22.980  0.00  0.00    +0.000 A 
ATOM     20  C   UNL     1      -0.313  12.735  22.007  0.00  0.00    +0.000 A 
BRANCH  19  21
ATOM     21  O   UNL     1      -1.948  11.634  23.354  0.00  0.00    +0.000 OA
ATOM     22  H   UNL     1      -2.735  11.488  22.812  0.00  0.00    +0.000 HD
ENDBRANCH  19  21
ENDBRANCH   9  11
ENDBRANCH   1   8
BRANCH   4  23
ATOM     23  S   UNL     1       2.899   3.826  17.907  0.00  0.00    +0.000 S 
ATOM     24  O   UNL     1       3.472   2.852  18.807  0.00  0.00    +0.000 OA
ATOM     25  O   UNL     1       1.802   3.492  17.024  0.00  0.00    +0.000 OA
BRANCH  23  26
ATOM     26  N   UNL     1       4.183   4.398  16.965  0.00  0.00    +0.000 NA
ATOM     27  H   UNL     1       4.018   5.387  16.768  0.00  0.00    +0.000 HD
BRANCH  26  28
ATOM     28  C   UNL     1       5.571   4.033  17.333  0.00  0.00    +0.000 C 
ATOM     29  C   UNL     1       6.544   4.207  16.161  0.00  0.00    +0.000 C 
ATOM     30  C   UNL     1       6.811   5.669  15.814  0.00  0.00    +0.000 C 
ATOM     31  C   UNL     1       7.324   6.428  17.031  0.00  0.00    +0.000 C 
ATOM     32  C   UNL     1       6.334   6.334  18.186  0.00  0.00    +0.000 C 
ATOM     33  C   UNL     1       6.015   4.881  18.540  0.00  0.00    +0.000 C 
ENDBRANCH  26  28
ENDBRANCH  23  26
ENDBRANCH   4  23
TORSDOF 6
ENDMDL
