MODEL 1
REMARK VINA RESULT:      -7.3      0.000      0.000
REMARK  Name = 
REMARK  19 active torsions:
REMARK  status: ('A' for Active; 'I' for Inactive)
REMARK    1  A    between atoms: C_1  and  C_2
REMARK    2  A    between atoms: C_2  and  C_3
REMARK    3  A    between atoms: C_2  and  C_4
REMARK    4  A    between atoms: C_4  and  C_5
REMARK    5  A    between atoms: C_4  and  C_27
REMARK    6  A    between atoms: C_5  and  C_6
REMARK    7  A    between atoms: C_6  and  O_7
REMARK    8  A    between atoms: C_6  and  C_8
REMARK    9  A    between atoms: C_8  and  N_9
REMARK   10  A    between atoms: C_8  and  C_10
REMARK   11  A    between atoms: C_10  and  N_11
REMARK   12  A    between atoms: N_15  and  C_16
REMARK   13  A    between atoms: C_24  and  C_25
REMARK   14  A    between atoms: C_24  and  C_26
REMARK   15  A    between atoms: N_29  and  C_30
REMARK   16  A    between atoms: C_30  and  C_31
REMARK   17  A    between atoms: C_31  and  C_32
REMARK   18  A    between atoms: C_31  and  C_33
REMARK   19  A    between atoms: C_31  and  C_34
REMARK                            x       y       z     vdW  Elec       q    Type
REMARK                         _______ _______ _______ _____ _____    ______ ____
ROOT
ATOM      1  C   UNL     1       1.125   8.437  21.252  0.00  0.00    +0.000 C 
ENDROOT
BRANCH   1   2
ATOM      2  N   UNL     1       1.909   8.798  22.452  0.00  0.00    +0.000 NA
ATOM      3  H   UNL     1       2.899   8.813  22.240  0.00  0.00    +0.000 HD
ATOM      4  H   UNL     1       1.729   8.169  23.230  0.00  0.00    +0.000 HD
ENDBRANCH   1   2
BRANCH   1   5
ATOM      5  C   UNL     1      -0.343   8.977  21.325  0.00  0.00    +0.000 C 
BRANCH   5   6
ATOM      6  O   UNL     1      -0.762   9.098  22.688  0.00  0.00    +0.000 OA
ATOM      7  H   UNL     1      -1.183   9.971  22.775  0.00  0.00    +0.000 HD
ENDBRANCH   5   6
BRANCH   5   8
ATOM      8  C   UNL     1      -0.509  10.351  20.628  0.00  0.00    +0.000 C 
BRANCH   8   9
ATOM      9  C   UNL     1      -0.319  10.306  19.091  0.00  0.00    +0.000 C 
BRANCH   9  10
ATOM     10  C   UNL     1       1.014  10.955  18.707  0.00  0.00    +0.000 C 
ATOM     11  O   UNL     1       1.920  10.343  18.160  0.00  0.00    +0.000 OA
ATOM     12  N   UNL     1       1.090  12.289  19.037  0.00  0.00    +0.000 N 
ATOM     13  H   UNL     1       0.298  12.714  19.503  0.00  0.00    +0.000 HD
BRANCH  12  14
ATOM     14  C   UNL     1       2.223  13.135  18.707  0.00  0.00    +0.000 C 
BRANCH  14  15
ATOM     15  C   UNL     1       2.346  14.350  19.659  0.00  0.00    +0.000 C 
ATOM     16  C   UNL     1       1.629  15.584  19.087  0.00  0.00    +0.000 C 
ATOM     17  C   UNL     1       1.692  13.989  21.004  0.00  0.00    +0.000 C 
ATOM     18  C   UNL     1       3.829  14.687  19.903  0.00  0.00    +0.000 C 
ENDBRANCH  14  15
ENDBRANCH  12  14
ENDBRANCH   9  10
BRANCH   9  20
ATOM     19  C   UNL     1      -2.409  11.817  19.235  0.00  0.00    +0.000 C 
ATOM     20  C   UNL     1      -1.533  10.934  18.340  0.00  0.00    +0.000 C 
ATOM     21  C   UNL     1      -2.420   9.914  17.619  0.00  0.00    +0.000 C 
ENDBRANCH   9  20
ENDBRANCH   8   9
ENDBRANCH   5   8
ENDBRANCH   1   5
BRANCH   1  22
ATOM     22  C   UNL     1       1.151   6.880  21.031  0.00  0.00    +0.000 C 
BRANCH  22  23
ATOM     23  N   UNL     1       2.346   6.378  20.296  0.00  0.00    +0.000 NA
ATOM     24  C   UNL     1       2.595   7.216  19.094  0.00  0.00    +0.000 C 
ATOM     25  C   UNL     1       3.638   6.709  18.092  0.00  0.00    +0.000 C 
ATOM     26  O   UNL     1       3.921   7.418  17.120  0.00  0.00    +0.000 OA
ATOM     27  N   UNL     1       4.113   5.411  18.241  0.00  0.00    +0.000 N 
ATOM     28  C   UNL     1       3.815   4.644  19.443  0.00  0.00    +0.000 C 
ATOM     29  C   UNL     1       2.399   4.925  20.016  0.00  0.00    +0.000 C 
ATOM     30  C   UNL     1       2.293   4.085  21.310  0.00  0.00    +0.000 C 
ATOM     31  C   UNL     1       1.329   4.421  19.024  0.00  0.00    +0.000 C 
BRANCH  27  32
ATOM     32  C   UNL     1       5.143   4.916  17.394  0.00  0.00    +0.000 A 
ATOM     33  C   UNL     1       4.755   4.251  16.219  0.00  0.00    +0.000 A 
ATOM     34  C   UNL     1       5.712   3.794  15.312  0.00  0.00    +0.000 A 
ATOM     35  C   UNL     1       7.066   3.982  15.573  0.00  0.00    +0.000 A 
ATOM     36  C   UNL     1       7.468   4.614  16.751  0.00  0.00    +0.000 A 
ATOM     37  C   UNL     1       6.514   5.079  17.664  0.00  0.00    +0.000 A 
ATOM     38 CL   UNL     1       7.101   5.711  19.165  0.00  0.00    +0.000 Cl
ENDBRANCH  27  32
ENDBRANCH  22  23
ENDBRANCH   1  22
TORSDOF 12
ENDMDL
MODEL 2
REMARK VINA RESULT:      -7.1      3.061      9.345
REMARK  Name = 
REMARK  19 active torsions:
REMARK  status: ('A' for Active; 'I' for Inactive)
REMARK    1  A    between atoms: C_1  and  C_2
REMARK    2  A    between atoms: C_2  and  C_3
REMARK    3  A    between atoms: C_2  and  C_4
REMARK    4  A    between atoms: C_4  and  C_5
REMARK    5  A    between atoms: C_4  and  C_27
REMARK    6  A    between atoms: C_5  and  C_6
REMARK    7  A    between atoms: C_6  and  O_7
REMARK    8  A    between atoms: C_6  and  C_8
REMARK    9  A    between atoms: C_8  and  N_9
REMARK   10  A    between atoms: C_8  and  C_10
REMARK   11  A    between atoms: C_10  and  N_11
REMARK   12  A    between atoms: N_15  and  C_16
REMARK   13  A    between atoms: C_24  and  C_25
REMARK   14  A    between atoms: C_24  and  C_26
REMARK   15  A    between atoms: N_29  and  C_30
REMARK   16  A    between atoms: C_30  and  C_31
REMARK   17  A    between atoms: C_31  and  C_32
REMARK   18  A    between atoms: C_31  and  C_33
REMARK   19  A    between atoms: C_31  and  C_34
REMARK                            x       y       z     vdW  Elec       q    Type
REMARK                         _______ _______ _______ _____ _____    ______ ____
ROOT
ATOM      1  C   UNL     1       2.031   8.534  19.159  0.00  0.00    +0.000 C 
ENDROOT
BRANCH   1   2
ATOM      2  N   UNL     1       1.777   8.265  17.728  0.00  0.00    +0.000 NA
ATOM      3  H   UNL     1       2.020   7.310  17.495  0.00  0.00    +0.000 HD
ATOM      4  H   UNL     1       2.279   8.909  17.122  0.00  0.00    +0.000 HD
ENDBRANCH   1   2
BRANCH   1   5
ATOM      5  C   UNL     1       2.372   7.227  19.951  0.00  0.00    +0.000 C 
BRANCH   5   6
ATOM      6  O   UNL     1       1.533   7.112  21.105  0.00  0.00    +0.000 OA
ATOM      7  H   UNL     1       0.854   7.804  21.028  0.00  0.00    +0.000 HD
ENDBRANCH   5   6
BRANCH   5   8
ATOM      8  C   UNL     1       2.214   5.949  19.090  0.00  0.00    +0.000 C 
BRANCH   8   9
ATOM      9  C   UNL     1       2.596   4.641  19.827  0.00  0.00    +0.000 C 
BRANCH   9  10
ATOM     10  C   UNL     1       3.654   3.875  19.026  0.00  0.00    +0.000 C 
ATOM     11  O   UNL     1       4.300   2.949  19.491  0.00  0.00    +0.000 OA
ATOM     12  N   UNL     1       3.803   4.333  17.737  0.00  0.00    +0.000 N 
ATOM     13  H   UNL     1       3.237   5.118  17.437  0.00  0.00    +0.000 HD
BRANCH  12  14
ATOM     14  C   UNL     1       4.690   3.720  16.765  0.00  0.00    +0.000 C 
BRANCH  14  15
ATOM     15  C   UNL     1       5.595   4.759  16.058  0.00  0.00    +0.000 C 
ATOM     16  C   UNL     1       5.091   6.193  16.294  0.00  0.00    +0.000 C 
ATOM     17  C   UNL     1       7.016   4.645  16.633  0.00  0.00    +0.000 C 
ATOM     18  C   UNL     1       5.648   4.478  14.545  0.00  0.00    +0.000 C 
ENDBRANCH  14  15
ENDBRANCH  12  14
ENDBRANCH   9  10
BRANCH   9  20
ATOM     19  C   UNL     1       1.500   2.928  21.420  0.00  0.00    +0.000 C 
ATOM     20  C   UNL     1       1.341   3.772  20.151  0.00  0.00    +0.000 C 
ATOM     21  C   UNL     1       0.890   2.867  19.001  0.00  0.00    +0.000 C 
ENDBRANCH   9  20
ENDBRANCH   8   9
ENDBRANCH   5   8
ENDBRANCH   1   5
BRANCH   1  22
ATOM     22  C   UNL     1       0.807   9.288  19.798  0.00  0.00    +0.000 C 
BRANCH  22  23
ATOM     23  N   UNL     1       0.737  10.740  19.476  0.00  0.00    +0.000 NA
ATOM     24  C   UNL     1       1.335  11.537  20.579  0.00  0.00    +0.000 C 
ATOM     25  C   UNL     1       1.140  13.056  20.530  0.00  0.00    +0.000 C 
ATOM     26  O   UNL     1       1.687  13.753  21.392  0.00  0.00    +0.000 OA
ATOM     27  N   UNL     1       0.238  13.572  19.607  0.00  0.00    +0.000 N 
ATOM     28  C   UNL     1      -0.319  12.725  18.560  0.00  0.00    +0.000 C 
ATOM     29  C   UNL     1      -0.572  11.264  19.021  0.00  0.00    +0.000 C 
ATOM     30  C   UNL     1      -1.091  10.511  17.774  0.00  0.00    +0.000 C 
ATOM     31  C   UNL     1      -1.681  11.244  20.095  0.00  0.00    +0.000 C 
BRANCH  27  32
ATOM     32  C   UNL     1       0.080  14.978  19.457  0.00  0.00    +0.000 A 
ATOM     33  C   UNL     1       1.077  15.672  18.752  0.00  0.00    +0.000 A 
ATOM     34  C   UNL     1       0.956  17.041  18.515  0.00  0.00    +0.000 A 
ATOM     35  C   UNL     1      -0.152  17.737  18.989  0.00  0.00    +0.000 A 
ATOM     36  C   UNL     1      -1.136  17.066  19.718  0.00  0.00    +0.000 A 
ATOM     37  C   UNL     1      -1.025  15.692  19.957  0.00  0.00    +0.000 A 
ATOM     38 CL   UNL     1      -2.208  14.972  20.995  0.00  0.00    +0.000 Cl
ENDBRANCH  27  32
ENDBRANCH  22  23
ENDBRANCH   1  22
TORSDOF 12
ENDMDL
MODEL 3
REMARK VINA RESULT:      -7.1      0.958      1.327
REMARK  Name = 
REMARK  19 active torsions:
REMARK  status: ('A' for Active; 'I' for Inactive)
REMARK    1  A    between atoms: C_1  and  C_2
REMARK    2  A    between atoms: C_2  and  C_3
REMARK    3  A    between atoms: C_2  and  C_4
REMARK    4  A    between atoms: C_4  and  C_5
REMARK    5  A    between atoms: C_4  and  C_27
REMARK    6  A    between atoms: C_5  and  C_6
REMARK    7  A    between atoms: C_6  and  O_7
REMARK    8  A    between atoms: C_6  and  C_8
REMARK    9  A    between atoms: C_8  and  N_9
REMARK   10  A    between atoms: C_8  and  C_10
REMARK   11  A    between atoms: C_10  and  N_11
REMARK   12  A    between atoms: N_15  and  C_16
REMARK   13  A    between atoms: C_24  and  C_25
REMARK   14  A    between atoms: C_24  and  C_26
REMARK   15  A    between atoms: N_29  and  C_30
REMARK   16  A    between atoms: C_30  and  C_31
REMARK   17  A    between atoms: C_31  and  C_32
REMARK   18  A    between atoms: C_31  and  C_33
REMARK   19  A    between atoms: C_31  and  C_34
REMARK                            x       y       z     vdW  Elec       q    Type
REMARK                         _______ _______ _______ _____ _____    ______ ____
ROOT
ATOM      1  C   UNL     1       1.003   8.398  21.389  0.00  0.00    +0.000 C 
ENDROOT
BRANCH   1   2
ATOM      2  N   UNL     1       2.001   8.788  22.406  0.00  0.00    +0.000 NA
ATOM      3  H   UNL     1       2.669   9.444  22.019  0.00  0.00    +0.000 HD
ATOM      4  H   UNL     1       2.488   7.984  22.793  0.00  0.00    +0.000 HD
ENDBRANCH   1   2
BRANCH   1   5
ATOM      5  C   UNL     1      -0.442   8.863  21.776  0.00  0.00    +0.000 C 
BRANCH   5   6
ATOM      6  O   UNL     1      -0.509   9.173  23.171  0.00  0.00    +0.000 OA
ATOM      7  H   UNL     1      -1.375   9.588  23.325  0.00  0.00    +0.000 HD
ENDBRANCH   5   6
BRANCH   5   8
ATOM      8  C   UNL     1      -0.908  10.099  20.967  0.00  0.00    +0.000 C 
BRANCH   8   9
ATOM      9  C   UNL     1       0.215  10.771  20.138  0.00  0.00    +0.000 C 
BRANCH   9  10
ATOM     10  C   UNL     1       0.463  12.195  20.646  0.00  0.00    +0.000 C 
ATOM     11  O   UNL     1       0.360  12.510  21.822  0.00  0.00    +0.000 OA
ATOM     12  N   UNL     1       0.812  13.078  19.650  0.00  0.00    +0.000 N 
ATOM     13  H   UNL     1       0.860  12.735  18.698  0.00  0.00    +0.000 HD
BRANCH  12  14
ATOM     14  C   UNL     1       1.168  14.465  19.895  0.00  0.00    +0.000 C 
BRANCH  14  15
ATOM     15  C   UNL     1       2.657  14.753  19.588  0.00  0.00    +0.000 C 
ATOM     16  C   UNL     1       2.923  16.264  19.468  0.00  0.00    +0.000 C 
ATOM     17  C   UNL     1       3.513  14.201  20.740  0.00  0.00    +0.000 C 
ATOM     18  C   UNL     1       3.076  14.055  18.280  0.00  0.00    +0.000 C 
ENDBRANCH  14  15
ENDBRANCH  12  14
ENDBRANCH   9  10
BRANCH   9  20
ATOM     19  C   UNL     1      -1.564  10.481  18.289  0.00  0.00    +0.000 C 
ATOM     20  C   UNL     1      -0.085  10.720  18.608  0.00  0.00    +0.000 C 
ATOM     21  C   UNL     1       0.765   9.707  17.836  0.00  0.00    +0.000 C 
ENDBRANCH   9  20
ENDBRANCH   8   9
ENDBRANCH   5   8
ENDBRANCH   1   5
BRANCH   1  22
ATOM     22  C   UNL     1       1.057   6.846  21.138  0.00  0.00    +0.000 C 
BRANCH  22  23
ATOM     23  N   UNL     1       2.269   6.378  20.409  0.00  0.00    +0.000 NA
ATOM     24  C   UNL     1       2.487   7.207  19.195  0.00  0.00    +0.000 C 
ATOM     25  C   UNL     1       3.546   6.725  18.199  0.00  0.00    +0.000 C 
ATOM     26  O   UNL     1       3.802   7.430  17.217  0.00  0.00    +0.000 OA
ATOM     27  N   UNL     1       4.068   5.447  18.365  0.00  0.00    +0.000 N 
ATOM     28  C   UNL     1       3.800   4.688  19.579  0.00  0.00    +0.000 C 
ATOM     29  C   UNL     1       2.375   4.924  20.150  0.00  0.00    +0.000 C 
ATOM     30  C   UNL     1       2.301   4.100  21.456  0.00  0.00    +0.000 C 
ATOM     31  C   UNL     1       1.324   4.368  19.166  0.00  0.00    +0.000 C 
BRANCH  27  32
ATOM     32  C   UNL     1       5.116   4.979  17.524  0.00  0.00    +0.000 A 
ATOM     33  C   UNL     1       4.751   4.352  16.321  0.00  0.00    +0.000 A 
ATOM     34  C   UNL     1       5.726   3.924  15.419  0.00  0.00    +0.000 A 
ATOM     35  C   UNL     1       7.075   4.101  15.713  0.00  0.00    +0.000 A 
ATOM     36  C   UNL     1       7.452   4.695  16.920  0.00  0.00    +0.000 A 
ATOM     37  C   UNL     1       6.481   5.131  17.827  0.00  0.00    +0.000 A 
ATOM     38 CL   UNL     1       7.037   5.714  19.359  0.00  0.00    +0.000 Cl
ENDBRANCH  27  32
ENDBRANCH  22  23
ENDBRANCH   1  22
TORSDOF 12
ENDMDL
MODEL 4
REMARK VINA RESULT:      -7.1      2.018      3.715
REMARK  Name = 
REMARK  19 active torsions:
REMARK  status: ('A' for Active; 'I' for Inactive)
REMARK    1  A    between atoms: C_1  and  C_2
REMARK    2  A    between atoms: C_2  and  C_3
REMARK    3  A    between atoms: C_2  and  C_4
REMARK    4  A    between atoms: C_4  and  C_5
REMARK    5  A    between atoms: C_4  and  C_27
REMARK    6  A    between atoms: C_5  and  C_6
REMARK    7  A    between atoms: C_6  and  O_7
REMARK    8  A    between atoms: C_6  and  C_8
REMARK    9  A    between atoms: C_8  and  N_9
REMARK   10  A    between atoms: C_8  and  C_10
REMARK   11  A    between atoms: C_10  and  N_11
REMARK   12  A    between atoms: N_15  and  C_16
REMARK   13  A    between atoms: C_24  and  C_25
REMARK   14  A    between atoms: C_24  and  C_26
REMARK   15  A    between atoms: N_29  and  C_30
REMARK   16  A    between atoms: C_30  and  C_31
REMARK   17  A    between atoms: C_31  and  C_32
REMARK   18  A    between atoms: C_31  and  C_33
REMARK   19  A    between atoms: C_31  and  C_34
REMARK                            x       y       z     vdW  Elec       q    Type
REMARK                         _______ _______ _______ _____ _____    ______ ____
ROOT
ATOM      1  C   UNL     1       1.171   8.752  21.176  0.00  0.00    +0.000 C 
ENDROOT
BRANCH   1   2
ATOM      2  N   UNL     1       1.678   9.050  22.532  0.00  0.00    +0.000 NA
ATOM      3  H   UNL     1       2.184   9.927  22.540  0.00  0.00    +0.000 HD
ATOM      4  H   UNL     1       2.267   8.305  22.893  0.00  0.00    +0.000 HD
ENDBRANCH   1   2
BRANCH   1   5
ATOM      5  C   UNL     1      -0.235   9.394  20.920  0.00  0.00    +0.000 C 
BRANCH   5   6
ATOM      6  O   UNL     1      -0.575  10.289  21.985  0.00  0.00    +0.000 OA
ATOM      7  H   UNL     1      -0.806  11.139  21.572  0.00  0.00    +0.000 HD
ENDBRANCH   5   6
BRANCH   5   8
ATOM      8  C   UNL     1      -0.303  10.165  19.579  0.00  0.00    +0.000 C 
BRANCH   8   9
ATOM      9  C   UNL     1      -1.355  11.303  19.558  0.00  0.00    +0.000 C 
BRANCH   9  10
ATOM     10  C   UNL     1      -2.267  11.153  18.337  0.00  0.00    +0.000 C 
ATOM     11  O   UNL     1      -1.935  10.553  17.327  0.00  0.00    +0.000 OA
ATOM     12  N   UNL     1      -3.493  11.759  18.492  0.00  0.00    +0.000 N 
ATOM     13  H   UNL     1      -3.681  12.250  19.358  0.00  0.00    +0.000 HD
BRANCH  12  14
ATOM     14  C   UNL     1      -4.554  11.690  17.502  0.00  0.00    +0.000 C 
BRANCH  14  15
ATOM     15  C   UNL     1      -5.913  12.174  18.063  0.00  0.00    +0.000 C 
ATOM     16  C   UNL     1      -6.661  13.050  17.043  0.00  0.00    +0.000 C 
ATOM     17  C   UNL     1      -6.783  10.943  18.374  0.00  0.00    +0.000 C 
ATOM     18  C   UNL     1      -5.700  12.971  19.363  0.00  0.00    +0.000 C 
ENDBRANCH  14  15
ENDBRANCH  12  14
ENDBRANCH   9  10
BRANCH   9  20
ATOM     19  C   UNL     1      -1.473  13.705  20.502  0.00  0.00    +0.000 C 
ATOM     20  C   UNL     1      -0.686  12.710  19.641  0.00  0.00    +0.000 C 
ATOM     21  C   UNL     1      -0.395  13.348  18.280  0.00  0.00    +0.000 C 
ENDBRANCH   9  20
ENDBRANCH   8   9
ENDBRANCH   5   8
ENDBRANCH   1   5
BRANCH   1  22
ATOM     22  C   UNL     1       1.144   7.199  20.933  0.00  0.00    +0.000 C 
BRANCH  22  23
ATOM     23  N   UNL     1       2.340   6.661  20.227  0.00  0.00    +0.000 NA
ATOM     24  C   UNL     1       2.587   7.432  18.981  0.00  0.00    +0.000 C 
ATOM     25  C   UNL     1       3.631   6.874  18.008  0.00  0.00    +0.000 C 
ATOM     26  O   UNL     1       3.913   7.529  16.999  0.00  0.00    +0.000 OA
ATOM     27  N   UNL     1       4.110   5.587  18.228  0.00  0.00    +0.000 N 
ATOM     28  C   UNL     1       3.815   4.887  19.471  0.00  0.00    +0.000 C 
ATOM     29  C   UNL     1       2.397   5.195  20.027  0.00  0.00    +0.000 C 
ATOM     30  C   UNL     1       2.293   4.427  21.366  0.00  0.00    +0.000 C 
ATOM     31  C   UNL     1       1.329   4.634  19.064  0.00  0.00    +0.000 C 
BRANCH  27  32
ATOM     32  C   UNL     1       5.142   5.049  17.410  0.00  0.00    +0.000 A 
ATOM     33  C   UNL     1       4.763   4.444  16.200  0.00  0.00    +0.000 A 
ATOM     34  C   UNL     1       5.726   3.951  15.320  0.00  0.00    +0.000 A 
ATOM     35  C   UNL     1       7.078   4.042  15.642  0.00  0.00    +0.000 A 
ATOM     36  C   UNL     1       7.468   4.613  16.855  0.00  0.00    +0.000 A 
ATOM     37  C   UNL     1       6.508   5.114  17.741  0.00  0.00    +0.000 A 
ATOM     38 CL   UNL     1       7.068   5.664  19.284  0.00  0.00    +0.000 Cl
ENDBRANCH  27  32
ENDBRANCH  22  23
ENDBRANCH   1  22
TORSDOF 12
ENDMDL
MODEL 5
REMARK VINA RESULT:      -7.1      2.785      9.182
REMARK  Name = 
REMARK  19 active torsions:
REMARK  status: ('A' for Active; 'I' for Inactive)
REMARK    1  A    between atoms: C_1  and  C_2
REMARK    2  A    between atoms: C_2  and  C_3
REMARK    3  A    between atoms: C_2  and  C_4
REMARK    4  A    between atoms: C_4  and  C_5
REMARK    5  A    between atoms: C_4  and  C_27
REMARK    6  A    between atoms: C_5  and  C_6
REMARK    7  A    between atoms: C_6  and  O_7
REMARK    8  A    between atoms: C_6  and  C_8
REMARK    9  A    between atoms: C_8  and  N_9
REMARK   10  A    between atoms: C_8  and  C_10
REMARK   11  A    between atoms: C_10  and  N_11
REMARK   12  A    between atoms: N_15  and  C_16
REMARK   13  A    between atoms: C_24  and  C_25
REMARK   14  A    between atoms: C_24  and  C_26
REMARK   15  A    between atoms: N_29  and  C_30
REMARK   16  A    between atoms: C_30  and  C_31
REMARK   17  A    between atoms: C_31  and  C_32
REMARK   18  A    between atoms: C_31  and  C_33
REMARK   19  A    between atoms: C_31  and  C_34
REMARK                            x       y       z     vdW  Elec       q    Type
REMARK                         _______ _______ _______ _____ _____    ______ ____
ROOT
ATOM      1  C   UNL     1       2.350   8.647  18.301  0.00  0.00    +0.000 C 
ENDROOT
BRANCH   1   2
ATOM      2  N   UNL     1       3.044   8.323  17.036  0.00  0.00    +0.000 NA
ATOM      3  H   UNL     1       3.626   9.098  16.740  0.00  0.00    +0.000 HD
ATOM      4  H   UNL     1       2.394   8.073  16.296  0.00  0.00    +0.000 HD
ENDBRANCH   1   2
BRANCH   1   5
ATOM      5  C   UNL     1       2.465   7.487  19.347  0.00  0.00    +0.000 C 
BRANCH   5   6
ATOM      6  O   UNL     1       1.501   7.661  20.391  0.00  0.00    +0.000 OA
ATOM      7  H   UNL     1       1.238   6.771  20.680  0.00  0.00    +0.000 HD
ENDBRANCH   5   6
BRANCH   5   8
ATOM      8  C   UNL     1       2.265   6.088  18.712  0.00  0.00    +0.000 C 
BRANCH   8   9
ATOM      9  C   UNL     1       2.724   4.914  19.612  0.00  0.00    +0.000 C 
BRANCH   9  10
ATOM     10  C   UNL     1       3.785   4.080  18.888  0.00  0.00    +0.000 C 
ATOM     11  O   UNL     1       4.472   3.242  19.452  0.00  0.00    +0.000 OA
ATOM     12  N   UNL     1       3.885   4.366  17.546  0.00  0.00    +0.000 N 
ATOM     13  H   UNL     1       3.287   5.087  17.162  0.00  0.00    +0.000 HD
BRANCH  12  14
ATOM     14  C   UNL     1       4.766   3.654  16.637  0.00  0.00    +0.000 C 
BRANCH  14  15
ATOM     15  C   UNL     1       5.848   4.577  16.024  0.00  0.00    +0.000 C 
ATOM     16  C   UNL     1       7.116   4.607  16.895  0.00  0.00    +0.000 C 
ATOM     17  C   UNL     1       6.226   4.036  14.635  0.00  0.00    +0.000 C 
ATOM     18  C   UNL     1       5.301   6.008  15.867  0.00  0.00    +0.000 C 
ENDBRANCH  14  15
ENDBRANCH  12  14
ENDBRANCH   9  10
BRANCH   9  20
ATOM     19  C   UNL     1       1.757   3.405  21.473  0.00  0.00    +0.000 C 
ATOM     20  C   UNL     1       1.518   4.058  20.107  0.00  0.00    +0.000 C 
ATOM     21  C   UNL     1       1.060   2.987  19.113  0.00  0.00    +0.000 C 
ENDBRANCH   9  20
ENDBRANCH   8   9
ENDBRANCH   5   8
ENDBRANCH   1   5
BRANCH   1  22
ATOM     22  C   UNL     1       0.848   9.018  18.020  0.00  0.00    +0.000 C 
BRANCH  22  23
ATOM     23  N   UNL     1       0.526  10.463  18.180  0.00  0.00    +0.000 NA
ATOM     24  C   UNL     1       1.707  11.194  18.709  0.00  0.00    +0.000 C 
ATOM     25  C   UNL     1       1.491  12.642  19.159  0.00  0.00    +0.000 C 
ATOM     26  O   UNL     1       2.467  13.300  19.533  0.00  0.00    +0.000 OA
ATOM     27  N   UNL     1       0.184  13.107  19.264  0.00  0.00    +0.000 N 
ATOM     28  C   UNL     1      -0.926  12.328  18.734  0.00  0.00    +0.000 C 
ATOM     29  C   UNL     1      -0.731  10.795  18.890  0.00  0.00    +0.000 C 
ATOM     30  C   UNL     1      -1.961  10.142  18.218  0.00  0.00    +0.000 C 
ATOM     31  C   UNL     1      -0.742  10.421  20.388  0.00  0.00    +0.000 C 
BRANCH  27  32
ATOM     32  C   UNL     1      -0.075  14.467  19.593  0.00  0.00    +0.000 A 
ATOM     33  C   UNL     1      -0.131  15.391  18.536  0.00  0.00    +0.000 A 
ATOM     34  C   UNL     1      -0.441  16.729  18.779  0.00  0.00    +0.000 A 
ATOM     35  C   UNL     1      -0.686  17.165  20.079  0.00  0.00    +0.000 A 
ATOM     36  C   UNL     1      -0.604  16.263  21.142  0.00  0.00    +0.000 A 
ATOM     37  C   UNL     1      -0.297  14.919  20.907  0.00  0.00    +0.000 A 
ATOM     38 CL   UNL     1      -0.066  13.907  22.292  0.00  0.00    +0.000 Cl
ENDBRANCH  27  32
ENDBRANCH  22  23
ENDBRANCH   1  22
TORSDOF 12
ENDMDL
MODEL 6
REMARK VINA RESULT:      -7.0      2.670      9.115
REMARK  Name = 
REMARK  19 active torsions:
REMARK  status: ('A' for Active; 'I' for Inactive)
REMARK    1  A    between atoms: C_1  and  C_2
REMARK    2  A    between atoms: C_2  and  C_3
REMARK    3  A    between atoms: C_2  and  C_4
REMARK    4  A    between atoms: C_4  and  C_5
REMARK    5  A    between atoms: C_4  and  C_27
REMARK    6  A    between atoms: C_5  and  C_6
REMARK    7  A    between atoms: C_6  and  O_7
REMARK    8  A    between atoms: C_6  and  C_8
REMARK    9  A    between atoms: C_8  and  N_9
REMARK   10  A    between atoms: C_8  and  C_10
REMARK   11  A    between atoms: C_10  and  N_11
REMARK   12  A    between atoms: N_15  and  C_16
REMARK   13  A    between atoms: C_24  and  C_25
REMARK   14  A    between atoms: C_24  and  C_26
REMARK   15  A    between atoms: N_29  and  C_30
REMARK   16  A    between atoms: C_30  and  C_31
REMARK   17  A    between atoms: C_31  and  C_32
REMARK   18  A    between atoms: C_31  and  C_33
REMARK   19  A    between atoms: C_31  and  C_34
REMARK                            x       y       z     vdW  Elec       q    Type
REMARK                         _______ _______ _______ _____ _____    ______ ____
ROOT
ATOM      1  C   UNL     1       2.078   8.337  19.177  0.00  0.00    +0.000 C 
ENDROOT
BRANCH   1   2
ATOM      2  N   UNL     1       1.780   8.055  17.757  0.00  0.00    +0.000 NA
ATOM      3  H   UNL     1       0.932   8.528  17.469  0.00  0.00    +0.000 HD
ATOM      4  H   UNL     1       1.703   7.059  17.573  0.00  0.00    +0.000 HD
ENDBRANCH   1   2
BRANCH   1   5
ATOM      5  C   UNL     1       2.402   7.032  19.980  0.00  0.00    +0.000 C 
BRANCH   5   6
ATOM      6  O   UNL     1       1.445   6.841  21.028  0.00  0.00    +0.000 OA
ATOM      7  H   UNL     1       0.703   6.346  20.642  0.00  0.00    +0.000 HD
ENDBRANCH   5   6
BRANCH   5   8
ATOM      8  C   UNL     1       2.418   5.768  19.084  0.00  0.00    +0.000 C 
BRANCH   8   9
ATOM      9  C   UNL     1       3.122   4.547  19.727  0.00  0.00    +0.000 C 
BRANCH   9  10
ATOM     10  C   UNL     1       4.348   4.150  18.898  0.00  0.00    +0.000 C 
ATOM     11  O   UNL     1       5.372   3.706  19.395  0.00  0.00    +0.000 OA
ATOM     12  N   UNL     1       4.180   4.343  17.546  0.00  0.00    +0.000 N 
ATOM     13  H   UNL     1       3.303   4.731  17.220  0.00  0.00    +0.000 HD
BRANCH  12  14
ATOM     14  C   UNL     1       5.173   3.972  16.553  0.00  0.00    +0.000 C 
BRANCH  14  15
ATOM     15  C   UNL     1       5.923   5.200  15.984  0.00  0.00    +0.000 C 
ATOM     16  C   UNL     1       5.046   6.464  16.032  0.00  0.00    +0.000 C 
ATOM     17  C   UNL     1       7.177   5.450  16.839  0.00  0.00    +0.000 C 
ATOM     18  C   UNL     1       6.358   4.934  14.531  0.00  0.00    +0.000 C 
ENDBRANCH  14  15
ENDBRANCH  12  14
ENDBRANCH   9  10
BRANCH   9  20
ATOM     19  C   UNL     1       0.996   3.319  18.923  0.00  0.00    +0.000 C 
ATOM     20  C   UNL     1       2.135   3.360  19.949  0.00  0.00    +0.000 C 
ATOM     21  C   UNL     1       1.541   3.293  21.359  0.00  0.00    +0.000 C 
ENDBRANCH   9  20
ENDBRANCH   8   9
ENDBRANCH   5   8
ENDBRANCH   1   5
BRANCH   1  22
ATOM     22  C   UNL     1       0.892   9.134  19.835  0.00  0.00    +0.000 C 
BRANCH  22  23
ATOM     23  N   UNL     1       0.857  10.584  19.497  0.00  0.00    +0.000 NA
ATOM     24  C   UNL     1       1.455  11.380  20.600  0.00  0.00    +0.000 C 
ATOM     25  C   UNL     1       1.292  12.902  20.533  0.00  0.00    +0.000 C 
ATOM     26  O   UNL     1       1.840  13.597  21.395  0.00  0.00    +0.000 OA
ATOM     27  N   UNL     1       0.414  13.426  19.590  0.00  0.00    +0.000 N 
ATOM     28  C   UNL     1      -0.144  12.580  18.544  0.00  0.00    +0.000 C 
ATOM     29  C   UNL     1      -0.434  11.129  19.017  0.00  0.00    +0.000 C 
ATOM     30  C   UNL     1      -0.949  10.373  17.770  0.00  0.00    +0.000 C 
ATOM     31  C   UNL     1      -1.559  11.143  20.074  0.00  0.00    +0.000 C 
BRANCH  27  32
ATOM     32  C   UNL     1       0.287  14.833  19.423  0.00  0.00    +0.000 A 
ATOM     33  C   UNL     1      -0.879  15.443  19.913  0.00  0.00    +0.000 A 
ATOM     34  C   UNL     1      -1.043  16.826  19.838  0.00  0.00    +0.000 A 
ATOM     35  C   UNL     1      -0.053  17.616  19.262  0.00  0.00    +0.000 A 
ATOM     36  C   UNL     1       1.099  17.021  18.743  0.00  0.00    +0.000 A 
ATOM     37  C   UNL     1       1.273  15.635  18.817  0.00  0.00    +0.000 A 
ATOM     38 CL   UNL     1       2.654  14.968  18.015  0.00  0.00    +0.000 Cl
ENDBRANCH  27  32
ENDBRANCH  22  23
ENDBRANCH   1  22
TORSDOF 12
ENDMDL
MODEL 7
REMARK VINA RESULT:      -7.0      1.069      1.514
REMARK  Name = 
REMARK  19 active torsions:
REMARK  status: ('A' for Active; 'I' for Inactive)
REMARK    1  A    between atoms: C_1  and  C_2
REMARK    2  A    between atoms: C_2  and  C_3
REMARK    3  A    between atoms: C_2  and  C_4
REMARK    4  A    between atoms: C_4  and  C_5
REMARK    5  A    between atoms: C_4  and  C_27
REMARK    6  A    between atoms: C_5  and  C_6
REMARK    7  A    between atoms: C_6  and  O_7
REMARK    8  A    between atoms: C_6  and  C_8
REMARK    9  A    between atoms: C_8  and  N_9
REMARK   10  A    between atoms: C_8  and  C_10
REMARK   11  A    between atoms: C_10  and  N_11
REMARK   12  A    between atoms: N_15  and  C_16
REMARK   13  A    between atoms: C_24  and  C_25
REMARK   14  A    between atoms: C_24  and  C_26
REMARK   15  A    between atoms: N_29  and  C_30
REMARK   16  A    between atoms: C_30  and  C_31
REMARK   17  A    between atoms: C_31  and  C_32
REMARK   18  A    between atoms: C_31  and  C_33
REMARK   19  A    between atoms: C_31  and  C_34
REMARK                            x       y       z     vdW  Elec       q    Type
REMARK                         _______ _______ _______ _____ _____    ______ ____
ROOT
ATOM      1  C   UNL     1       0.996   8.439  21.272  0.00  0.00    +0.000 C 
ENDROOT
BRANCH   1   2
ATOM      2  N   UNL     1       1.948   8.840  22.328  0.00  0.00    +0.000 NA
ATOM      3  H   UNL     1       2.691   8.157  22.418  0.00  0.00    +0.000 HD
ATOM      4  H   UNL     1       1.490   8.976  23.225  0.00  0.00    +0.000 HD
ENDBRANCH   1   2
BRANCH   1   5
ATOM      5  C   UNL     1      -0.463   8.917  21.582  0.00  0.00    +0.000 C 
BRANCH   5   6
ATOM      6  O   UNL     1      -0.915   8.363  22.822  0.00  0.00    +0.000 OA
ATOM      7  H   UNL     1      -0.552   7.462  22.875  0.00  0.00    +0.000 HD
ENDBRANCH   5   6
BRANCH   5   8
ATOM      8  C   UNL     1      -0.584  10.460  21.652  0.00  0.00    +0.000 C 
BRANCH   8   9
ATOM      9  C   UNL     1       0.086  11.199  20.466  0.00  0.00    +0.000 C 
BRANCH   9  10
ATOM     10  C   UNL     1       0.765  12.479  20.961  0.00  0.00    +0.000 C 
ATOM     11  O   UNL     1       0.318  13.162  21.871  0.00  0.00    +0.000 OA
ATOM     12  N   UNL     1       1.923  12.783  20.283  0.00  0.00    +0.000 N 
ATOM     13  H   UNL     1       2.214  12.170  19.531  0.00  0.00    +0.000 HD
BRANCH  12  14
ATOM     14  C   UNL     1       2.781  13.905  20.620  0.00  0.00    +0.000 C 
BRANCH  14  15
ATOM     15  C   UNL     1       3.208  14.714  19.371  0.00  0.00    +0.000 C 
ATOM     16  C   UNL     1       3.022  13.894  18.082  0.00  0.00    +0.000 C 
ATOM     17  C   UNL     1       2.328  15.972  19.275  0.00  0.00    +0.000 C 
ATOM     18  C   UNL     1       4.680  15.147  19.494  0.00  0.00    +0.000 C 
ENDBRANCH  14  15
ENDBRANCH  12  14
ENDBRANCH   9  10
BRANCH   9  20
ATOM     19  C   UNL     1      -0.934  10.352  18.249  0.00  0.00    +0.000 C 
ATOM     20  C   UNL     1      -0.923  11.462  19.305  0.00  0.00    +0.000 C 
ATOM     21  C   UNL     1      -0.739  12.814  18.609  0.00  0.00    +0.000 C 
ENDBRANCH   9  20
ENDBRANCH   8   9
ENDBRANCH   5   8
ENDBRANCH   1   5
BRANCH   1  22
ATOM     22  C   UNL     1       1.053   6.883  21.047  0.00  0.00    +0.000 C 
BRANCH  22  23
ATOM     23  N   UNL     1       2.265   6.405  20.326  0.00  0.00    +0.000 NA
ATOM     24  C   UNL     1       2.502   7.237  19.118  0.00  0.00    +0.000 C 
ATOM     25  C   UNL     1       3.564   6.747  18.128  0.00  0.00    +0.000 C 
ATOM     26  O   UNL     1       3.836   7.454  17.151  0.00  0.00    +0.000 OA
ATOM     27  N   UNL     1       4.070   5.463  18.292  0.00  0.00    +0.000 N 
ATOM     28  C   UNL     1       3.783   4.701  19.500  0.00  0.00    +0.000 C 
ATOM     29  C   UNL     1       2.357   4.951  20.060  0.00  0.00    +0.000 C 
ATOM     30  C   UNL     1       2.263   4.121  21.362  0.00  0.00    +0.000 C 
ATOM     31  C   UNL     1       1.307   4.411  19.065  0.00  0.00    +0.000 C 
BRANCH  27  32
ATOM     32  C   UNL     1       5.118   4.986  17.457  0.00  0.00    +0.000 A 
ATOM     33  C   UNL     1       4.757   4.383  16.241  0.00  0.00    +0.000 A 
ATOM     34  C   UNL     1       5.734   3.949  15.346  0.00  0.00    +0.000 A 
ATOM     35  C   UNL     1       7.083   4.097  15.658  0.00  0.00    +0.000 A 
ATOM     36  C   UNL     1       7.457   4.667  16.877  0.00  0.00    +0.000 A 
ATOM     37  C   UNL     1       6.483   5.109  17.778  0.00  0.00    +0.000 A 
ATOM     38 CL   UNL     1       7.031   5.660  19.325  0.00  0.00    +0.000 Cl
ENDBRANCH  27  32
ENDBRANCH  22  23
ENDBRANCH   1  22
TORSDOF 12
ENDMDL
MODEL 8
REMARK VINA RESULT:      -6.9      2.751      8.985
REMARK  Name = 
REMARK  19 active torsions:
REMARK  status: ('A' for Active; 'I' for Inactive)
REMARK    1  A    between atoms: C_1  and  C_2
REMARK    2  A    between atoms: C_2  and  C_3
REMARK    3  A    between atoms: C_2  and  C_4
REMARK    4  A    between atoms: C_4  and  C_5
REMARK    5  A    between atoms: C_4  and  C_27
REMARK    6  A    between atoms: C_5  and  C_6
REMARK    7  A    between atoms: C_6  and  O_7
REMARK    8  A    between atoms: C_6  and  C_8
REMARK    9  A    between atoms: C_8  and  N_9
REMARK   10  A    between atoms: C_8  and  C_10
REMARK   11  A    between atoms: C_10  and  N_11
REMARK   12  A    between atoms: N_15  and  C_16
REMARK   13  A    between atoms: C_24  and  C_25
REMARK   14  A    between atoms: C_24  and  C_26
REMARK   15  A    between atoms: N_29  and  C_30
REMARK   16  A    between atoms: C_30  and  C_31
REMARK   17  A    between atoms: C_31  and  C_32
REMARK   18  A    between atoms: C_31  and  C_33
REMARK   19  A    between atoms: C_31  and  C_34
REMARK                            x       y       z     vdW  Elec       q    Type
REMARK                         _______ _______ _______ _____ _____    ______ ____
ROOT
ATOM      1  C   UNL     1       2.039   8.455  19.234  0.00  0.00    +0.000 C 
ENDROOT
BRANCH   1   2
ATOM      2  N   UNL     1       1.730   8.161  17.819  0.00  0.00    +0.000 NA
ATOM      3  H   UNL     1       0.792   8.467  17.587  0.00  0.00    +0.000 HD
ATOM      4  H   UNL     1       1.838   7.174  17.601  0.00  0.00    +0.000 HD
ENDBRANCH   1   2
BRANCH   1   5
ATOM      5  C   UNL     1       2.363   7.157  20.047  0.00  0.00    +0.000 C 
BRANCH   5   6
ATOM      6  O   UNL     1       1.351   6.920  21.031  0.00  0.00    +0.000 OA
ATOM      7  H   UNL     1       1.807   6.826  21.885  0.00  0.00    +0.000 HD
ENDBRANCH   5   6
BRANCH   5   8
ATOM      8  C   UNL     1       2.486   5.903  19.146  0.00  0.00    +0.000 C 
BRANCH   8   9
ATOM      9  C   UNL     1       2.989   4.639  19.888  0.00  0.00    +0.000 C 
BRANCH   9  10
ATOM     10  C   UNL     1       4.445   4.351  19.510  0.00  0.00    +0.000 C 
ATOM     11  O   UNL     1       4.961   3.252  19.639  0.00  0.00    +0.000 OA
ATOM     12  N   UNL     1       5.109   5.449  19.012  0.00  0.00    +0.000 N 
ATOM     13  H   UNL     1       4.609   6.327  18.953  0.00  0.00    +0.000 HD
BRANCH  12  14
ATOM     14  C   UNL     1       6.474   5.406  18.518  0.00  0.00    +0.000 C 
BRANCH  14  15
ATOM     15  C   UNL     1       6.659   6.243  17.229  0.00  0.00    +0.000 C 
ATOM     16  C   UNL     1       7.215   5.385  16.079  0.00  0.00    +0.000 C 
ATOM     17  C   UNL     1       5.289   6.796  16.801  0.00  0.00    +0.000 C 
ATOM     18  C   UNL     1       7.611   7.424  17.493  0.00  0.00    +0.000 C 
ENDBRANCH  14  15
ENDBRANCH  12  14
ENDBRANCH   9  10
BRANCH   9  20
ATOM     19  C   UNL     1       1.335   3.458  18.292  0.00  0.00    +0.000 C 
ATOM     20  C   UNL     1       2.051   3.416  19.647  0.00  0.00    +0.000 C 
ATOM     21  C   UNL     1       1.015   3.192  20.753  0.00  0.00    +0.000 C 
ENDBRANCH   9  20
ENDBRANCH   8   9
ENDBRANCH   5   8
ENDBRANCH   1   5
BRANCH   1  22
ATOM     22  C   UNL     1       0.862   9.265  19.893  0.00  0.00    +0.000 C 
BRANCH  22  23
ATOM     23  N   UNL     1       0.834  10.712  19.545  0.00  0.00    +0.000 NA
ATOM     24  C   UNL     1       1.423  11.514  20.649  0.00  0.00    +0.000 C 
ATOM     25  C   UNL     1       1.265  13.036  20.570  0.00  0.00    +0.000 C 
ATOM     26  O   UNL     1       1.806  13.735  21.434  0.00  0.00    +0.000 OA
ATOM     27  N   UNL     1       0.399  13.556  19.615  0.00  0.00    +0.000 N 
ATOM     28  C   UNL     1      -0.150  12.705  18.569  0.00  0.00    +0.000 C 
ATOM     29  C   UNL     1      -0.449  11.258  19.048  0.00  0.00    +0.000 C 
ATOM     30  C   UNL     1      -0.954  10.496  17.800  0.00  0.00    +0.000 C 
ATOM     31  C   UNL     1      -1.586  11.282  20.092  0.00  0.00    +0.000 C 
BRANCH  27  32
ATOM     32  C   UNL     1       0.278  14.963  19.438  0.00  0.00    +0.000 A 
ATOM     33  C   UNL     1      -0.886  15.580  19.925  0.00  0.00    +0.000 A 
ATOM     34  C   UNL     1      -1.044  16.964  19.840  0.00  0.00    +0.000 A 
ATOM     35  C   UNL     1      -0.052  17.746  19.256  0.00  0.00    +0.000 A 
ATOM     36  C   UNL     1       1.097  17.142  18.741  0.00  0.00    +0.000 A 
ATOM     37  C   UNL     1       1.265  15.756  18.825  0.00  0.00    +0.000 A 
ATOM     38 CL   UNL     1       2.643  15.077  18.026  0.00  0.00    +0.000 Cl
ENDBRANCH  27  32
ENDBRANCH  22  23
ENDBRANCH   1  22
TORSDOF 12
ENDMDL
MODEL 9
REMARK VINA RESULT:      -6.9      1.154      1.409
REMARK  Name = 
REMARK  19 active torsions:
REMARK  status: ('A' for Active; 'I' for Inactive)
REMARK    1  A    between atoms: C_1  and  C_2
REMARK    2  A    between atoms: C_2  and  C_3
REMARK    3  A    between atoms: C_2  and  C_4
REMARK    4  A    between atoms: C_4  and  C_5
REMARK    5  A    between atoms: C_4  and  C_27
REMARK    6  A    between atoms: C_5  and  C_6
REMARK    7  A    between atoms: C_6  and  O_7
REMARK    8  A    between atoms: C_6  and  C_8
REMARK    9  A    between atoms: C_8  and  N_9
REMARK   10  A    between atoms: C_8  and  C_10
REMARK   11  A    between atoms: C_10  and  N_11
REMARK   12  A    between atoms: N_15  and  C_16
REMARK   13  A    between atoms: C_24  and  C_25
REMARK   14  A    between atoms: C_24  and  C_26
REMARK   15  A    between atoms: N_29  and  C_30
REMARK   16  A    between atoms: C_30  and  C_31
REMARK   17  A    between atoms: C_31  and  C_32
REMARK   18  A    between atoms: C_31  and  C_33
REMARK   19  A    between atoms: C_31  and  C_34
REMARK                            x       y       z     vdW  Elec       q    Type
REMARK                         _______ _______ _______ _____ _____    ______ ____
ROOT
ATOM      1  C   UNL     1       1.045   8.782  21.496  0.00  0.00    +0.000 C 
ENDROOT
BRANCH   1   2
ATOM      2  N   UNL     1       1.844   9.092  22.700  0.00  0.00    +0.000 NA
ATOM      3  H   UNL     1       2.808   8.807  22.573  0.00  0.00    +0.000 HD
ATOM      4  H   UNL     1       1.461   8.660  23.536  0.00  0.00    +0.000 HD
ENDBRANCH   1   2
BRANCH   1   5
ATOM      5  C   UNL     1      -0.426   9.306  21.615  0.00  0.00    +0.000 C 
BRANCH   5   6
ATOM      6  O   UNL     1      -0.785   9.472  22.991  0.00  0.00    +0.000 OA
ATOM      7  H   UNL     1      -1.722   9.733  23.006  0.00  0.00    +0.000 HD
ENDBRANCH   5   6
BRANCH   5   8
ATOM      8  C   UNL     1      -0.642  10.650  20.877  0.00  0.00    +0.000 C 
BRANCH   8   9
ATOM      9  C   UNL     1      -0.276  10.611  19.373  0.00  0.00    +0.000 C 
BRANCH   9  10
ATOM     10  C   UNL     1       1.030  11.373  19.128  0.00  0.00    +0.000 C 
ATOM     11  O   UNL     1       1.845  11.042  18.280  0.00  0.00    +0.000 OA
ATOM     12  N   UNL     1       1.192  12.461  19.954  0.00  0.00    +0.000 N 
ATOM     13  H   UNL     1       0.473  12.655  20.641  0.00  0.00    +0.000 HD
BRANCH  12  14
ATOM     14  C   UNL     1       2.312  13.380  19.861  0.00  0.00    +0.000 C 
BRANCH  14  15
ATOM     15  C   UNL     1       1.884  14.781  19.359  0.00  0.00    +0.000 C 
ATOM     16  C   UNL     1       0.403  14.798  18.945  0.00  0.00    +0.000 C 
ATOM     17  C   UNL     1       2.080  15.793  20.501  0.00  0.00    +0.000 C 
ATOM     18  C   UNL     1       2.755  15.207  18.163  0.00  0.00    +0.000 C 
ENDBRANCH  14  15
ENDBRANCH  12  14
ENDBRANCH   9  10
BRANCH   9  20
ATOM     19  C   UNL     1      -2.440  12.015  19.232  0.00  0.00    +0.000 C 
ATOM     20  C   UNL     1      -1.448  11.121  18.479  0.00  0.00    +0.000 C 
ATOM     21  C   UNL     1      -2.220  10.010  17.762  0.00  0.00    +0.000 C 
ENDBRANCH   9  20
ENDBRANCH   8   9
ENDBRANCH   5   8
ENDBRANCH   1   5
BRANCH   1  22
ATOM     22  C   UNL     1       1.080   7.237  21.201  0.00  0.00    +0.000 C 
BRANCH  22  23
ATOM     23  N   UNL     1       2.244   6.787  20.388  0.00  0.00    +0.000 NA
ATOM     24  C   UNL     1       2.321   7.574  19.129  0.00  0.00    +0.000 C 
ATOM     25  C   UNL     1       3.311   7.093  18.063  0.00  0.00    +0.000 C 
ATOM     26  O   UNL     1       3.452   7.766  17.036  0.00  0.00    +0.000 OA
ATOM     27  N   UNL     1       3.899   5.844  18.231  0.00  0.00    +0.000 N 
ATOM     28  C   UNL     1       3.769   5.125  19.491  0.00  0.00    +0.000 C 
ATOM     29  C   UNL     1       2.390   5.329  20.175  0.00  0.00    +0.000 C 
ATOM     30  C   UNL     1       2.463   4.557  21.512  0.00  0.00    +0.000 C 
ATOM     31  C   UNL     1       1.282   4.692  19.308  0.00  0.00    +0.000 C 
BRANCH  27  32
ATOM     32  C   UNL     1       4.890   5.383  17.320  0.00  0.00    +0.000 A 
ATOM     33  C   UNL     1       6.044   6.168  17.163  0.00  0.00    +0.000 A 
ATOM     34  C   UNL     1       7.083   5.746  16.333  0.00  0.00    +0.000 A 
ATOM     35  C   UNL     1       6.978   4.544  15.638  0.00  0.00    +0.000 A 
ATOM     36  C   UNL     1       5.823   3.769  15.761  0.00  0.00    +0.000 A 
ATOM     37  C   UNL     1       4.778   4.182  16.594  0.00  0.00    +0.000 A 
ATOM     38 CL   UNL     1       3.326   3.240  16.568  0.00  0.00    +0.000 Cl
ENDBRANCH  27  32
ENDBRANCH  22  23
ENDBRANCH   1  22
TORSDOF 12
ENDMDL
