MODEL 1
REMARK VINA RESULT:      -7.1      0.000      0.000
REMARK  Name = 
REMARK  9 active torsions:
REMARK  status: ('A' for Active; 'I' for Inactive)
REMARK    1  A    between atoms: C_1  and  N_2
REMARK    2  A    between atoms: N_2  and  C_3
REMARK    3  A    between atoms: C_3  and  C_4
REMARK    4  A    between atoms: C_4  and  O_5
REMARK    5  A    between atoms: C_4  and  C_6
REMARK    6  A    between atoms: C_6  and  N_7
REMARK    7  A    between atoms: C_15  and  O_16
REMARK    8  A    between atoms: O_16  and  C_17
REMARK    9  A    between atoms: C_17  and  C_18
REMARK                            x       y       z     vdW  Elec       q    Type
REMARK                         _______ _______ _______ _____ _____    ______ ____
ROOT
ATOM      1  N   UNL     1       6.398   6.354  16.800  0.00  0.00    +0.000 NA
ATOM      2  C   UNL     1       6.450   6.013  18.238  0.00  0.00    +0.000 C 
ATOM      3  C   UNL     1       5.170   5.367  18.809  0.00  0.00    +0.000 C 
ATOM      4  C   UNL     1       4.022   6.325  18.604  0.00  0.00    +0.000 A 
ATOM      5  C   UNL     1       4.031   7.038  17.385  0.00  0.00    +0.000 A 
ATOM      6  C   UNL     1       3.036   7.980  17.113  0.00  0.00    +0.000 A 
ATOM      7  C   UNL     1       2.056   8.247  18.058  0.00  0.00    +0.000 A 
ATOM      8  C   UNL     1       2.037   7.533  19.257  0.00  0.00    +0.000 A 
ATOM      9  C   UNL     1       2.979   6.528  19.518  0.00  0.00    +0.000 A 
ATOM     10  C   UNL     1       5.039   6.665  16.319  0.00  0.00    +0.000 C 
ENDROOT
BRANCH   1  11
ATOM     11  C   UNL     1       7.048   5.311  15.985  0.00  0.00    +0.000 C 
BRANCH  11  12
ATOM     12  C   UNL     1       6.149   4.426  15.082  0.00  0.00    +0.000 C 
BRANCH  12  13
ATOM     13  O   UNL     1       6.086   3.105  15.657  0.00  0.00    +0.000 OA
ATOM     14  H   UNL     1       6.295   2.467  14.953  0.00  0.00    +0.000 HD
ENDBRANCH  12  13
BRANCH  12  15
ATOM     15  C   UNL     1       6.646   4.329  13.625  0.00  0.00    +0.000 C 
BRANCH  15  17
ATOM     16  C   UNL     1       5.162   3.307  12.003  0.00  0.00    +0.000 C 
ATOM     17  N   UNL     1       6.169   3.073  13.023  0.00  0.00    +0.000 NA
ATOM     18  H   UNL     1       6.972   2.575  12.634  0.00  0.00    +0.000 HD
ENDBRANCH  15  17
ENDBRANCH  12  15
ENDBRANCH  11  12
ENDBRANCH   1  11
BRANCH   9  19
ATOM     19  O   UNL     1       2.914   5.711  20.627  0.00  0.00    +0.000 OA
BRANCH  19  20
ATOM     20  C   UNL     1       1.942   4.658  20.514  0.00  0.00    +0.000 C 
BRANCH  20  21
ATOM     21  C   UNL     1       2.419   3.463  19.732  0.00  0.00    +0.000 A 
ATOM     22  C   UNL     1       3.385   2.575  20.214  0.00  0.00    +0.000 A 
ATOM     23  C   UNL     1       3.881   1.561  19.391  0.00  0.00    +0.000 A 
ATOM     24  C   UNL     1       3.429   1.430  18.075  0.00  0.00    +0.000 A 
ATOM     25  C   UNL     1       2.468   2.308  17.585  0.00  0.00    +0.000 A 
ATOM     26  C   UNL     1       1.976   3.314  18.411  0.00  0.00    +0.000 A 
ATOM     27  F   UNL     1       1.079   4.175  17.910  0.00  0.00    +0.000 F 
ENDBRANCH  20  21
ENDBRANCH  19  20
ENDBRANCH   9  19
TORSDOF 8
ENDMDL
MODEL 2
REMARK VINA RESULT:      -6.9      3.044      5.751
REMARK  Name = 
REMARK  9 active torsions:
REMARK  status: ('A' for Active; 'I' for Inactive)
REMARK    1  A    between atoms: C_1  and  N_2
REMARK    2  A    between atoms: N_2  and  C_3
REMARK    3  A    between atoms: C_3  and  C_4
REMARK    4  A    between atoms: C_4  and  O_5
REMARK    5  A    between atoms: C_4  and  C_6
REMARK    6  A    between atoms: C_6  and  N_7
REMARK    7  A    between atoms: C_15  and  O_16
REMARK    8  A    between atoms: O_16  and  C_17
REMARK    9  A    between atoms: C_17  and  C_18
REMARK                            x       y       z     vdW  Elec       q    Type
REMARK                         _______ _______ _______ _____ _____    ______ ____
ROOT
ATOM      1  N   UNL     1       2.310   7.532  18.019  0.00  0.00    +0.000 NA
ATOM      2  C   UNL     1       2.153   6.354  18.901  0.00  0.00    +0.000 C 
ATOM      3  C   UNL     1       3.459   5.818  19.523  0.00  0.00    +0.000 C 
ATOM      4  C   UNL     1       4.396   5.433  18.405  0.00  0.00    +0.000 A 
ATOM      5  C   UNL     1       4.388   6.287  17.280  0.00  0.00    +0.000 A 
ATOM      6  C   UNL     1       5.188   5.998  16.172  0.00  0.00    +0.000 A 
ATOM      7  C   UNL     1       5.964   4.849  16.157  0.00  0.00    +0.000 A 
ATOM      8  C   UNL     1       5.984   4.012  17.272  0.00  0.00    +0.000 A 
ATOM      9  C   UNL     1       5.251   4.322  18.426  0.00  0.00    +0.000 A 
ATOM     10  C   UNL     1       3.622   7.590  17.348  0.00  0.00    +0.000 C 
ENDROOT
BRANCH   1  11
ATOM     11  C   UNL     1       2.002   8.779  18.741  0.00  0.00    +0.000 C 
BRANCH  11  12
ATOM     12  C   UNL     1       1.232   9.890  17.980  0.00  0.00    +0.000 C 
BRANCH  12  13
ATOM     13  O   UNL     1       2.131  10.995  17.753  0.00  0.00    +0.000 OA
ATOM     14  H   UNL     1       3.037  10.642  17.754  0.00  0.00    +0.000 HD
ENDBRANCH  12  13
BRANCH  12  15
ATOM     15  C   UNL     1      -0.021  10.393  18.726  0.00  0.00    +0.000 C 
BRANCH  15  17
ATOM     16  C   UNL     1      -1.826  11.861  18.043  0.00  0.00    +0.000 C 
ATOM     17  N   UNL     1      -0.391  11.728  18.226  0.00  0.00    +0.000 NA
ATOM     18  H   UNL     1      -0.042  12.428  18.883  0.00  0.00    +0.000 HD
ENDBRANCH  15  17
ENDBRANCH  12  15
ENDBRANCH  11  12
ENDBRANCH   1  11
BRANCH   9  19
ATOM     19  O   UNL     1       5.347   3.595  19.594  0.00  0.00    +0.000 OA
BRANCH  19  20
ATOM     20  C   UNL     1       4.678   2.323  19.541  0.00  0.00    +0.000 C 
BRANCH  20  21
ATOM     21  C   UNL     1       3.176   2.420  19.501  0.00  0.00    +0.000 A 
ATOM     22  C   UNL     1       2.447   2.425  18.308  0.00  0.00    +0.000 A 
ATOM     23  C   UNL     1       1.068   2.648  18.328  0.00  0.00    +0.000 A 
ATOM     24  C   UNL     1       0.405   2.882  19.536  0.00  0.00    +0.000 A 
ATOM     25  C   UNL     1       1.121   2.879  20.729  0.00  0.00    +0.000 A 
ATOM     26  C   UNL     1       2.493   2.654  20.701  0.00  0.00    +0.000 A 
ATOM     27  F   UNL     1       3.174   2.693  21.856  0.00  0.00    +0.000 F 
ENDBRANCH  20  21
ENDBRANCH  19  20
ENDBRANCH   9  19
TORSDOF 8
ENDMDL
MODEL 3
REMARK VINA RESULT:      -6.8      1.599      2.314
REMARK  Name = 
REMARK  9 active torsions:
REMARK  status: ('A' for Active; 'I' for Inactive)
REMARK    1  A    between atoms: C_1  and  N_2
REMARK    2  A    between atoms: N_2  and  C_3
REMARK    3  A    between atoms: C_3  and  C_4
REMARK    4  A    between atoms: C_4  and  O_5
REMARK    5  A    between atoms: C_4  and  C_6
REMARK    6  A    between atoms: C_6  and  N_7
REMARK    7  A    between atoms: C_15  and  O_16
REMARK    8  A    between atoms: O_16  and  C_17
REMARK    9  A    between atoms: C_17  and  C_18
REMARK                            x       y       z     vdW  Elec       q    Type
REMARK                         _______ _______ _______ _____ _____    ______ ____
ROOT
ATOM      1  N   UNL     1       6.770   5.917  15.482  0.00  0.00    +0.000 NA
ATOM      2  C   UNL     1       7.421   5.347  16.681  0.00  0.00    +0.000 C 
ATOM      3  C   UNL     1       6.545   4.385  17.512  0.00  0.00    +0.000 C 
ATOM      4  C   UNL     1       5.316   5.132  17.966  0.00  0.00    +0.000 A 
ATOM      5  C   UNL     1       4.769   6.036  17.029  0.00  0.00    +0.000 A 
ATOM      6  C   UNL     1       3.655   6.809  17.365  0.00  0.00    +0.000 A 
ATOM      7  C   UNL     1       3.106   6.720  18.635  0.00  0.00    +0.000 A 
ATOM      8  C   UNL     1       3.636   5.818  19.558  0.00  0.00    +0.000 A 
ATOM      9  C   UNL     1       4.704   4.976  19.218  0.00  0.00    +0.000 A 
ATOM     10  C   UNL     1       5.307   6.049  15.615  0.00  0.00    +0.000 C 
ENDROOT
BRANCH   1  11
ATOM     11  C   UNL     1       7.150   5.172  14.268  0.00  0.00    +0.000 C 
BRANCH  11  12
ATOM     12  C   UNL     1       6.150   4.125  13.712  0.00  0.00    +0.000 C 
BRANCH  12  13
ATOM     13  O   UNL     1       6.149   2.982  14.594  0.00  0.00    +0.000 OA
ATOM     14  H   UNL     1       5.349   2.464  14.403  0.00  0.00    +0.000 HD
ENDBRANCH  12  13
BRANCH  12  15
ATOM     15  C   UNL     1       6.475   3.664  12.276  0.00  0.00    +0.000 C 
BRANCH  15  17
ATOM     16  C   UNL     1       4.387   2.947  11.275  0.00  0.00    +0.000 C 
ATOM     17  N   UNL     1       5.617   2.522  11.918  0.00  0.00    +0.000 NA
ATOM     18  H   UNL     1       6.149   1.897  11.309  0.00  0.00    +0.000 HD
ENDBRANCH  15  17
ENDBRANCH  12  15
ENDBRANCH  11  12
ENDBRANCH   1  11
BRANCH   9  19
ATOM     19  O   UNL     1       5.169   3.980  20.051  0.00  0.00    +0.000 OA
BRANCH  19  20
ATOM     20  C   UNL     1       4.639   2.678  19.749  0.00  0.00    +0.000 C 
BRANCH  20  21
ATOM     21  C   UNL     1       3.141   2.645  19.598  0.00  0.00    +0.000 A 
ATOM     22  C   UNL     1       2.503   2.648  18.354  0.00  0.00    +0.000 A 
ATOM     23  C   UNL     1       1.111   2.747  18.278  0.00  0.00    +0.000 A 
ATOM     24  C   UNL     1       0.343   2.857  19.440  0.00  0.00    +0.000 A 
ATOM     25  C   UNL     1       0.969   2.855  20.683  0.00  0.00    +0.000 A 
ATOM     26  C   UNL     1       2.354   2.753  20.752  0.00  0.00    +0.000 A 
ATOM     27  F   UNL     1       2.943   2.792  21.956  0.00  0.00    +0.000 F 
ENDBRANCH  20  21
ENDBRANCH  19  20
ENDBRANCH   9  19
TORSDOF 8
ENDMDL
MODEL 4
REMARK VINA RESULT:      -6.8      2.585      5.366
REMARK  Name = 
REMARK  9 active torsions:
REMARK  status: ('A' for Active; 'I' for Inactive)
REMARK    1  A    between atoms: C_1  and  N_2
REMARK    2  A    between atoms: N_2  and  C_3
REMARK    3  A    between atoms: C_3  and  C_4
REMARK    4  A    between atoms: C_4  and  O_5
REMARK    5  A    between atoms: C_4  and  C_6
REMARK    6  A    between atoms: C_6  and  N_7
REMARK    7  A    between atoms: C_15  and  O_16
REMARK    8  A    between atoms: O_16  and  C_17
REMARK    9  A    between atoms: C_17  and  C_18
REMARK                            x       y       z     vdW  Elec       q    Type
REMARK                         _______ _______ _______ _____ _____    ______ ____
ROOT
ATOM      1  N   UNL     1       4.364   4.086  16.534  0.00  0.00    +0.000 NA
ATOM      2  C   UNL     1       4.126   5.503  16.884  0.00  0.00    +0.000 C 
ATOM      3  C   UNL     1       4.065   5.807  18.396  0.00  0.00    +0.000 C 
ATOM      4  C   UNL     1       2.950   4.991  19.001  0.00  0.00    +0.000 A 
ATOM      5  C   UNL     1       2.799   3.685  18.484  0.00  0.00    +0.000 A 
ATOM      6  C   UNL     1       1.771   2.860  18.946  0.00  0.00    +0.000 A 
ATOM      7  C   UNL     1       0.869   3.335  19.887  0.00  0.00    +0.000 A 
ATOM      8  C   UNL     1       1.025   4.620  20.408  0.00  0.00    +0.000 A 
ATOM      9  C   UNL     1       2.095   5.437  20.018  0.00  0.00    +0.000 A 
ATOM     10  C   UNL     1       3.848   3.139  17.540  0.00  0.00    +0.000 C 
ENDROOT
BRANCH   1  11
ATOM     11  C   UNL     1       5.785   3.847  16.227  0.00  0.00    +0.000 C 
BRANCH  11  12
ATOM     12  C   UNL     1       6.797   4.984  16.527  0.00  0.00    +0.000 C 
BRANCH  12  13
ATOM     13  O   UNL     1       7.555   5.248  15.328  0.00  0.00    +0.000 OA
ATOM     14  H   UNL     1       7.081   5.932  14.824  0.00  0.00    +0.000 HD
ENDBRANCH  12  13
BRANCH  12  15
ATOM     15  C   UNL     1       7.763   4.659  17.684  0.00  0.00    +0.000 C 
BRANCH  15  17
ATOM     16  C   UNL     1       7.827   7.018  18.240  0.00  0.00    +0.000 C 
ATOM     17  N   UNL     1       7.623   5.671  18.744  0.00  0.00    +0.000 NA
ATOM     18  H   UNL     1       6.696   5.576  19.163  0.00  0.00    +0.000 HD
ENDBRANCH  15  17
ENDBRANCH  12  15
ENDBRANCH  11  12
ENDBRANCH   1  11
BRANCH   9  19
ATOM     19  O   UNL     1       2.361   6.656  20.606  0.00  0.00    +0.000 OA
BRANCH  19  20
ATOM     20  C   UNL     1       1.824   7.777  19.883  0.00  0.00    +0.000 C 
BRANCH  20  21
ATOM     21  C   UNL     1       1.094   8.772  20.746  0.00  0.00    +0.000 A 
ATOM     22  C   UNL     1       1.022   8.661  22.138  0.00  0.00    +0.000 A 
ATOM     23  C   UNL     1       0.224   9.541  22.873  0.00  0.00    +0.000 A 
ATOM     24  C   UNL     1      -0.522  10.531  22.227  0.00  0.00    +0.000 A 
ATOM     25  C   UNL     1      -0.458  10.649  20.842  0.00  0.00    +0.000 A 
ATOM     26  C   UNL     1       0.342   9.772  20.117  0.00  0.00    +0.000 A 
ATOM     27  F   UNL     1       0.361   9.876  18.780  0.00  0.00    +0.000 F 
ENDBRANCH  20  21
ENDBRANCH  19  20
ENDBRANCH   9  19
TORSDOF 8
ENDMDL
MODEL 5
REMARK VINA RESULT:      -6.8      2.901      5.313
REMARK  Name = 
REMARK  9 active torsions:
REMARK  status: ('A' for Active; 'I' for Inactive)
REMARK    1  A    between atoms: C_1  and  N_2
REMARK    2  A    between atoms: N_2  and  C_3
REMARK    3  A    between atoms: C_3  and  C_4
REMARK    4  A    between atoms: C_4  and  O_5
REMARK    5  A    between atoms: C_4  and  C_6
REMARK    6  A    between atoms: C_6  and  N_7
REMARK    7  A    between atoms: C_15  and  O_16
REMARK    8  A    between atoms: O_16  and  C_17
REMARK    9  A    between atoms: C_17  and  C_18
REMARK                            x       y       z     vdW  Elec       q    Type
REMARK                         _______ _______ _______ _____ _____    ______ ____
ROOT
ATOM      1  N   UNL     1       5.161   4.690  17.176  0.00  0.00    +0.000 NA
ATOM      2  C   UNL     1       4.326   5.888  16.939  0.00  0.00    +0.000 C 
ATOM      3  C   UNL     1       4.002   6.724  18.195  0.00  0.00    +0.000 C 
ATOM      4  C   UNL     1       3.273   5.842  19.179  0.00  0.00    +0.000 A 
ATOM      5  C   UNL     1       3.727   4.506  19.254  0.00  0.00    +0.000 A 
ATOM      6  C   UNL     1       3.094   3.596  20.104  0.00  0.00    +0.000 A 
ATOM      7  C   UNL     1       1.991   3.991  20.848  0.00  0.00    +0.000 A 
ATOM      8  C   UNL     1       1.551   5.313  20.784  0.00  0.00    +0.000 A 
ATOM      9  C   UNL     1       2.218   6.264  20.000  0.00  0.00    +0.000 A 
ATOM     10  C   UNL     1       4.991   4.114  18.523  0.00  0.00    +0.000 C 
ENDROOT
BRANCH   1  11
ATOM     11  C   UNL     1       6.576   4.961  16.864  0.00  0.00    +0.000 C 
BRANCH  11  12
ATOM     12  C   UNL     1       7.129   4.470  15.501  0.00  0.00    +0.000 C 
BRANCH  12  13
ATOM     13  O   UNL     1       7.770   5.583  14.841  0.00  0.00    +0.000 OA
ATOM     14  H   UNL     1       7.810   5.379  13.892  0.00  0.00    +0.000 HD
ENDBRANCH  12  13
BRANCH  12  15
ATOM     15  C   UNL     1       6.047   3.878  14.574  0.00  0.00    +0.000 C 
BRANCH  15  17
ATOM     16  C   UNL     1       5.591   3.242  12.279  0.00  0.00    +0.000 C 
ATOM     17  N   UNL     1       6.593   3.718  13.216  0.00  0.00    +0.000 NA
ATOM     18  H   UNL     1       6.977   4.616  12.913  0.00  0.00    +0.000 HD
ENDBRANCH  15  17
ENDBRANCH  12  15
ENDBRANCH  11  12
ENDBRANCH   1  11
BRANCH   9  19
ATOM     19  O   UNL     1       1.898   7.605  20.014  0.00  0.00    +0.000 OA
BRANCH  19  20
ATOM     20  C   UNL     1       1.398   8.068  21.281  0.00  0.00    +0.000 C 
BRANCH  20  21
ATOM     21  C   UNL     1       0.467   9.247  21.180  0.00  0.00    +0.000 A 
ATOM     22  C   UNL     1       0.201   9.904  19.975  0.00  0.00    +0.000 A 
ATOM     23  C   UNL     1      -0.568  11.071  19.964  0.00  0.00    +0.000 A 
ATOM     24  C   UNL     1      -1.067  11.601  21.156  0.00  0.00    +0.000 A 
ATOM     25  C   UNL     1      -0.808  10.956  22.361  0.00  0.00    +0.000 A 
ATOM     26  C   UNL     1      -0.045   9.793  22.364  0.00  0.00    +0.000 A 
ATOM     27  F   UNL     1       0.228   9.206  23.538  0.00  0.00    +0.000 F 
ENDBRANCH  20  21
ENDBRANCH  19  20
ENDBRANCH   9  19
TORSDOF 8
ENDMDL
MODEL 6
REMARK VINA RESULT:      -6.8      2.829      5.726
REMARK  Name = 
REMARK  9 active torsions:
REMARK  status: ('A' for Active; 'I' for Inactive)
REMARK    1  A    between atoms: C_1  and  N_2
REMARK    2  A    between atoms: N_2  and  C_3
REMARK    3  A    between atoms: C_3  and  C_4
REMARK    4  A    between atoms: C_4  and  O_5
REMARK    5  A    between atoms: C_4  and  C_6
REMARK    6  A    between atoms: C_6  and  N_7
REMARK    7  A    between atoms: C_15  and  O_16
REMARK    8  A    between atoms: O_16  and  C_17
REMARK    9  A    between atoms: C_17  and  C_18
REMARK                            x       y       z     vdW  Elec       q    Type
REMARK                         _______ _______ _______ _____ _____    ______ ____
ROOT
ATOM      1  N   UNL     1       2.295   7.602  18.088  0.00  0.00    +0.000 NA
ATOM      2  C   UNL     1       2.188   6.389  18.928  0.00  0.00    +0.000 C 
ATOM      3  C   UNL     1       3.523   5.854  19.487  0.00  0.00    +0.000 C 
ATOM      4  C   UNL     1       4.429   5.531  18.325  0.00  0.00    +0.000 A 
ATOM      5  C   UNL     1       4.369   6.427  17.235  0.00  0.00    +0.000 A 
ATOM      6  C   UNL     1       5.138   6.196  16.091  0.00  0.00    +0.000 A 
ATOM      7  C   UNL     1       5.933   5.063  16.007  0.00  0.00    +0.000 A 
ATOM      8  C   UNL     1       6.004   4.184  17.087  0.00  0.00    +0.000 A 
ATOM      9  C   UNL     1       5.303   4.435  18.275  0.00  0.00    +0.000 A 
ATOM     10  C   UNL     1       3.583   7.711  17.378  0.00  0.00    +0.000 C 
ENDROOT
BRANCH   1  11
ATOM     11  C   UNL     1       1.988   8.815  18.867  0.00  0.00    +0.000 C 
BRANCH  11  12
ATOM     12  C   UNL     1       1.093   9.897  18.209  0.00  0.00    +0.000 C 
BRANCH  12  13
ATOM     13  O   UNL     1       1.944  10.950  17.710  0.00  0.00    +0.000 OA
ATOM     14  H   UNL     1       1.580  11.244  16.857  0.00  0.00    +0.000 HD
ENDBRANCH  12  13
BRANCH  12  15
ATOM     15  C   UNL     1       0.044  10.496  19.168  0.00  0.00    +0.000 C 
BRANCH  15  17
ATOM     16  C   UNL     1       0.032  10.595  21.590  0.00  0.00    +0.000 C 
ATOM     17  N   UNL     1       0.713  11.008  20.375  0.00  0.00    +0.000 NA
ATOM     18  H   UNL     1       1.681  10.682  20.372  0.00  0.00    +0.000 HD
ENDBRANCH  15  17
ENDBRANCH  12  15
ENDBRANCH  11  12
ENDBRANCH   1  11
BRANCH   9  19
ATOM     19  O   UNL     1       5.451   3.666  19.410  0.00  0.00    +0.000 OA
BRANCH  19  20
ATOM     20  C   UNL     1       4.686   2.449  19.388  0.00  0.00    +0.000 C 
BRANCH  20  21
ATOM     21  C   UNL     1       3.219   2.640  19.669  0.00  0.00    +0.000 A 
ATOM     22  C   UNL     1       2.711   2.829  20.957  0.00  0.00    +0.000 A 
ATOM     23  C   UNL     1       1.330   2.871  21.169  0.00  0.00    +0.000 A 
ATOM     24  C   UNL     1       0.443   2.712  20.101  0.00  0.00    +0.000 A 
ATOM     25  C   UNL     1       0.939   2.524  18.815  0.00  0.00    +0.000 A 
ATOM     26  C   UNL     1       2.314   2.486  18.611  0.00  0.00    +0.000 A 
ATOM     27  F   UNL     1       2.774   2.264  17.370  0.00  0.00    +0.000 F 
ENDBRANCH  20  21
ENDBRANCH  19  20
ENDBRANCH   9  19
TORSDOF 8
ENDMDL
MODEL 7
REMARK VINA RESULT:      -6.8      3.050      6.784
REMARK  Name = 
REMARK  9 active torsions:
REMARK  status: ('A' for Active; 'I' for Inactive)
REMARK    1  A    between atoms: C_1  and  N_2
REMARK    2  A    between atoms: N_2  and  C_3
REMARK    3  A    between atoms: C_3  and  C_4
REMARK    4  A    between atoms: C_4  and  O_5
REMARK    5  A    between atoms: C_4  and  C_6
REMARK    6  A    between atoms: C_6  and  N_7
REMARK    7  A    between atoms: C_15  and  O_16
REMARK    8  A    between atoms: O_16  and  C_17
REMARK    9  A    between atoms: C_17  and  C_18
REMARK                            x       y       z     vdW  Elec       q    Type
REMARK                         _______ _______ _______ _____ _____    ______ ____
ROOT
ATOM      1  N   UNL     1       1.969   6.093  20.698  0.00  0.00    +0.000 NA
ATOM      2  C   UNL     1       2.983   6.511  19.707  0.00  0.00    +0.000 C 
ATOM      3  C   UNL     1       2.810   5.915  18.294  0.00  0.00    +0.000 C 
ATOM      4  C   UNL     1       2.866   4.411  18.403  0.00  0.00    +0.000 A 
ATOM      5  C   UNL     1       2.240   3.857  19.542  0.00  0.00    +0.000 A 
ATOM      6  C   UNL     1       2.270   2.477  19.759  0.00  0.00    +0.000 A 
ATOM      7  C   UNL     1       2.950   1.650  18.878  0.00  0.00    +0.000 A 
ATOM      8  C   UNL     1       3.557   2.194  17.746  0.00  0.00    +0.000 A 
ATOM      9  C   UNL     1       3.474   3.565  17.465  0.00  0.00    +0.000 A 
ATOM     10  C   UNL     1       1.413   4.752  20.438  0.00  0.00    +0.000 C 
ENDROOT
BRANCH   1  11
ATOM     11  C   UNL     1       0.913   7.112  20.838  0.00  0.00    +0.000 C 
BRANCH  11  12
ATOM     12  C   UNL     1       1.342   8.601  20.911  0.00  0.00    +0.000 C 
BRANCH  12  13
ATOM     13  O   UNL     1       1.752   8.892  22.264  0.00  0.00    +0.000 OA
ATOM     14  H   UNL     1       2.576   8.405  22.433  0.00  0.00    +0.000 HD
ENDBRANCH  12  13
BRANCH  12  15
ATOM     15  C   UNL     1       0.231   9.584  20.489  0.00  0.00    +0.000 C 
BRANCH  15  17
ATOM     16  C   UNL     1      -0.115  11.654  19.276  0.00  0.00    +0.000 C 
ATOM     17  N   UNL     1       0.745  10.498  19.457  0.00  0.00    +0.000 NA
ATOM     18  H   UNL     1       1.690  10.785  19.720  0.00  0.00    +0.000 HD
ENDBRANCH  15  17
ENDBRANCH  12  15
ENDBRANCH  11  12
ENDBRANCH   1  11
BRANCH   9  19
ATOM     19  O   UNL     1       3.942   4.120  16.293  0.00  0.00    +0.000 OA
BRANCH  19  20
ATOM     20  C   UNL     1       5.350   3.916  16.078  0.00  0.00    +0.000 C 
BRANCH  20  21
ATOM     21  C   UNL     1       6.230   4.900  16.802  0.00  0.00    +0.000 A 
ATOM     22  C   UNL     1       7.094   4.529  17.836  0.00  0.00    +0.000 A 
ATOM     23  C   UNL     1       7.789   5.504  18.556  0.00  0.00    +0.000 A 
ATOM     24  C   UNL     1       7.619   6.860  18.261  0.00  0.00    +0.000 A 
ATOM     25  C   UNL     1       6.761   7.240  17.234  0.00  0.00    +0.000 A 
ATOM     26  C   UNL     1       6.075   6.264  16.519  0.00  0.00    +0.000 A 
ATOM     27  F   UNL     1       5.222   6.650  15.559  0.00  0.00    +0.000 F 
ENDBRANCH  20  21
ENDBRANCH  19  20
ENDBRANCH   9  19
TORSDOF 8
ENDMDL
MODEL 8
REMARK VINA RESULT:      -6.7      2.209      4.731
REMARK  Name = 
REMARK  9 active torsions:
REMARK  status: ('A' for Active; 'I' for Inactive)
REMARK    1  A    between atoms: C_1  and  N_2
REMARK    2  A    between atoms: N_2  and  C_3
REMARK    3  A    between atoms: C_3  and  C_4
REMARK    4  A    between atoms: C_4  and  O_5
REMARK    5  A    between atoms: C_4  and  C_6
REMARK    6  A    between atoms: C_6  and  N_7
REMARK    7  A    between atoms: C_15  and  O_16
REMARK    8  A    between atoms: O_16  and  C_17
REMARK    9  A    between atoms: C_17  and  C_18
REMARK                            x       y       z     vdW  Elec       q    Type
REMARK                         _______ _______ _______ _____ _____    ______ ____
ROOT
ATOM      1  N   UNL     1       4.719   4.268  16.707  0.00  0.00    +0.000 NA
ATOM      2  C   UNL     1       4.440   5.658  17.126  0.00  0.00    +0.000 C 
ATOM      3  C   UNL     1       4.240   5.861  18.643  0.00  0.00    +0.000 C 
ATOM      4  C   UNL     1       3.081   5.005  19.089  0.00  0.00    +0.000 A 
ATOM      5  C   UNL     1       2.987   3.735  18.475  0.00  0.00    +0.000 A 
ATOM      6  C   UNL     1       1.927   2.880  18.787  0.00  0.00    +0.000 A 
ATOM      7  C   UNL     1       0.940   3.291  19.671  0.00  0.00    +0.000 A 
ATOM      8  C   UNL     1       1.038   4.538  20.287  0.00  0.00    +0.000 A 
ATOM      9  C   UNL     1       2.133   5.381  20.051  0.00  0.00    +0.000 A 
ATOM     10  C   UNL     1       4.121   3.255  17.597  0.00  0.00    +0.000 C 
ENDROOT
BRANCH   1  11
ATOM     11  C   UNL     1       6.164   4.052  16.515  0.00  0.00    +0.000 C 
BRANCH  11  12
ATOM     12  C   UNL     1       6.749   4.252  15.092  0.00  0.00    +0.000 C 
BRANCH  12  13
ATOM     13  O   UNL     1       7.401   5.538  15.043  0.00  0.00    +0.000 OA
ATOM     14  H   UNL     1       7.671   5.766  15.949  0.00  0.00    +0.000 HD
ENDBRANCH  12  13
BRANCH  12  15
ATOM     15  C   UNL     1       5.690   4.171  13.974  0.00  0.00    +0.000 C 
BRANCH  15  17
ATOM     16  C   UNL     1       7.016   3.883  11.964  0.00  0.00    +0.000 C 
ATOM     17  N   UNL     1       6.144   3.237  12.930  0.00  0.00    +0.000 NA
ATOM     18  H   UNL     1       6.619   2.453  13.381  0.00  0.00    +0.000 HD
ENDBRANCH  15  17
ENDBRANCH  12  15
ENDBRANCH  11  12
ENDBRANCH   1  11
BRANCH   9  19
ATOM     19  O   UNL     1       2.335   6.559  20.740  0.00  0.00    +0.000 OA
BRANCH  19  20
ATOM     20  C   UNL     1       1.162   7.387  20.827  0.00  0.00    +0.000 C 
BRANCH  20  21
ATOM     21  C   UNL     1       1.212   8.615  19.958  0.00  0.00    +0.000 A 
ATOM     22  C   UNL     1       1.810   8.628  18.694  0.00  0.00    +0.000 A 
ATOM     23  C   UNL     1       1.940   9.828  17.990  0.00  0.00    +0.000 A 
ATOM     24  C   UNL     1       1.487  11.028  18.544  0.00  0.00    +0.000 A 
ATOM     25  C   UNL     1       0.890  11.026  19.800  0.00  0.00    +0.000 A 
ATOM     26  C   UNL     1       0.761   9.828  20.495  0.00  0.00    +0.000 A 
ATOM     27  F   UNL     1       0.219   9.851  21.721  0.00  0.00    +0.000 F 
ENDBRANCH  20  21
ENDBRANCH  19  20
ENDBRANCH   9  19
TORSDOF 8
ENDMDL
MODEL 9
REMARK VINA RESULT:      -6.7      2.178      5.288
REMARK  Name = 
REMARK  9 active torsions:
REMARK  status: ('A' for Active; 'I' for Inactive)
REMARK    1  A    between atoms: C_1  and  N_2
REMARK    2  A    between atoms: N_2  and  C_3
REMARK    3  A    between atoms: C_3  and  C_4
REMARK    4  A    between atoms: C_4  and  O_5
REMARK    5  A    between atoms: C_4  and  C_6
REMARK    6  A    between atoms: C_6  and  N_7
REMARK    7  A    between atoms: C_15  and  O_16
REMARK    8  A    between atoms: O_16  and  C_17
REMARK    9  A    between atoms: C_17  and  C_18
REMARK                            x       y       z     vdW  Elec       q    Type
REMARK                         _______ _______ _______ _____ _____    ______ ____
ROOT
ATOM      1  N   UNL     1       4.515   4.335  16.754  0.00  0.00    +0.000 NA
ATOM      2  C   UNL     1       4.104   5.716  17.087  0.00  0.00    +0.000 C 
ATOM      3  C   UNL     1       3.978   6.021  18.595  0.00  0.00    +0.000 C 
ATOM      4  C   UNL     1       2.957   5.081  19.186  0.00  0.00    +0.000 A 
ATOM      5  C   UNL     1       2.972   3.763  18.679  0.00  0.00    +0.000 A 
ATOM      6  C   UNL     1       2.040   2.825  19.129  0.00  0.00    +0.000 A 
ATOM      7  C   UNL     1       1.070   3.196  20.049  0.00  0.00    +0.000 A 
ATOM      8  C   UNL     1       1.062   4.493  20.561  0.00  0.00    +0.000 A 
ATOM      9  C   UNL     1       2.034   5.430  20.183  0.00  0.00    +0.000 A 
ATOM     10  C   UNL     1       4.096   3.340  17.759  0.00  0.00    +0.000 C 
ENDROOT
BRANCH   1  11
ATOM     11  C   UNL     1       5.961   4.264  16.476  0.00  0.00    +0.000 C 
BRANCH  11  12
ATOM     12  C   UNL     1       6.686   5.569  16.056  0.00  0.00    +0.000 C 
BRANCH  12  13
ATOM     13  O   UNL     1       7.648   5.247  15.029  0.00  0.00    +0.000 OA
ATOM     14  H   UNL     1       7.161   4.863  14.280  0.00  0.00    +0.000 HD
ENDBRANCH  12  13
BRANCH  12  15
ATOM     15  C   UNL     1       7.401   6.281  17.223  0.00  0.00    +0.000 C 
BRANCH  15  17
ATOM     16  C   UNL     1       8.117   8.502  17.877  0.00  0.00    +0.000 C 
ATOM     17  N   UNL     1       7.113   7.724  17.173  0.00  0.00    +0.000 NA
ATOM     18  H   UNL     1       7.052   8.008  16.193  0.00  0.00    +0.000 HD
ENDBRANCH  15  17
ENDBRANCH  12  15
ENDBRANCH  11  12
ENDBRANCH   1  11
BRANCH   9  19
ATOM     19  O   UNL     1       2.142   6.675  20.765  0.00  0.00    +0.000 OA
BRANCH  19  20
ATOM     20  C   UNL     1       0.916   7.427  20.755  0.00  0.00    +0.000 C 
BRANCH  20  21
ATOM     21  C   UNL     1       1.082   8.867  20.347  0.00  0.00    +0.000 A 
ATOM     22  C   UNL     1       0.831   9.935  21.213  0.00  0.00    +0.000 A 
ATOM     23  C   UNL     1       0.878  11.250  20.740  0.00  0.00    +0.000 A 
ATOM     24  C   UNL     1       1.161  11.511  19.397  0.00  0.00    +0.000 A 
ATOM     25  C   UNL     1       1.413  10.454  18.527  0.00  0.00    +0.000 A 
ATOM     26  C   UNL     1       1.368   9.149  19.005  0.00  0.00    +0.000 A 
ATOM     27  F   UNL     1       1.574   8.142  18.144  0.00  0.00    +0.000 F 
ENDBRANCH  20  21
ENDBRANCH  19  20
ENDBRANCH   9  19
TORSDOF 8
ENDMDL
