MODEL 1
REMARK VINA RESULT:      -8.1      0.000      0.000
REMARK  Name = 
REMARK  9 active torsions:
REMARK  status: ('A' for Active; 'I' for Inactive)
REMARK    1  A    between atoms: C_1  and  N_2
REMARK    2  A    between atoms: N_2  and  C_3
REMARK    3  A    between atoms: N_2  and  S_10
REMARK    4  A    between atoms: C_3  and  C_4
REMARK    5  A    between atoms: S_10  and  C_13
REMARK    6  A    between atoms: C_19  and  C_20
REMARK    7  A    between atoms: N_22  and  C_23
REMARK    8  A    between atoms: C_23  and  C_24
REMARK    9  A    between atoms: C_29  and  O_30
REMARK                            x       y       z     vdW  Elec       q    Type
REMARK                         _______ _______ _______ _____ _____    ______ ____
ROOT
ATOM      1  C   UNL     1       3.762   6.489  18.358  0.00  0.00    +0.000 A 
ATOM      2  C   UNL     1       3.399   5.883  19.558  0.00  0.00    +0.000 A 
ATOM      3  C   UNL     1       2.444   6.491  20.381  0.00  0.00    +0.000 A 
ATOM      4  C   UNL     1       1.829   7.686  20.051  0.00  0.00    +0.000 A 
ATOM      5  N   UNL     1       0.991   8.204  20.961  0.00  0.00    +0.000 NA
ATOM      6  C   UNL     1       0.358   9.370  20.690  0.00  0.00    +0.000 A 
ATOM      7  C   UNL     1       0.479  10.067  19.506  0.00  0.00    +0.000 A 
ATOM      8  C   UNL     1       1.370   9.505  18.557  0.00  0.00    +0.000 A 
ATOM      9  C   UNL     1       2.117   8.303  18.817  0.00  0.00    +0.000 A 
ATOM     10  C   UNL     1       3.117   7.684  17.973  0.00  0.00    +0.000 A 
ENDROOT
BRANCH   7  11
ATOM     11  C   UNL     1      -0.343  11.299  19.238  0.00  0.00    +0.000 C 
ATOM     12  O   UNL     1      -1.496  11.326  19.666  0.00  0.00    +0.000 OA
ATOM     13  N   UNL     1       0.221  12.364  18.545  0.00  0.00    +0.000 N 
ATOM     14  H   UNL     1       1.133  12.299  18.118  0.00  0.00    +0.000 HD
BRANCH  13  15
ATOM     15  C   UNL     1      -0.416  13.680  18.405  0.00  0.00    +0.000 C 
BRANCH  15  16
ATOM     16  C   UNL     1       0.371  14.884  18.949  0.00  0.00    +0.000 C 
ATOM     17  C   UNL     1      -0.138  16.247  18.532  0.00  0.00    +0.000 C 
ATOM     18  C   UNL     1       1.065  17.125  18.778  0.00  0.00    +0.000 C 
ATOM     19  C   UNL     1       2.237  16.202  18.499  0.00  0.00    +0.000 C 
ATOM     20  O   UNL     1       1.757  14.847  18.561  0.00  0.00    +0.000 OA
ENDBRANCH  15  16
ENDBRANCH  13  15
ENDBRANCH   7  11
BRANCH   1  21
ATOM     21  S   UNL     1       5.276   5.881  17.582  0.00  0.00    +0.000 S 
ATOM     22  O   UNL     1       5.968   5.120  18.604  0.00  0.00    +0.000 OA
ATOM     23  O   UNL     1       5.920   7.007  16.943  0.00  0.00    +0.000 OA
BRANCH  21  25
ATOM     24  C   UNL     1       5.581   4.888  15.118  0.00  0.00    +0.000 C 
ATOM     25  N   UNL     1       4.769   4.776  16.358  0.00  0.00    +0.000 NA
BRANCH  25  26
ATOM     26  C   UNL     1       4.689   3.350  16.836  0.00  0.00    +0.000 C 
BRANCH  26  27
ATOM     27  C   UNL     1       3.491   3.049  17.727  0.00  0.00    +0.000 A 
ATOM     28  C   UNL     1       2.197   3.472  17.380  0.00  0.00    +0.000 A 
ATOM     29  C   UNL     1       1.102   3.200  18.214  0.00  0.00    +0.000 A 
ATOM     30  C   UNL     1       1.290   2.496  19.399  0.00  0.00    +0.000 A 
ATOM     31  C   UNL     1       2.565   2.058  19.750  0.00  0.00    +0.000 A 
ATOM     32  C   UNL     1       3.656   2.326  18.918  0.00  0.00    +0.000 A 
ENDBRANCH  26  27
ENDBRANCH  25  26
ENDBRANCH  21  25
ENDBRANCH   1  21
BRANCH   8  33
ATOM     33  O   UNL     1       1.546  10.094  17.322  0.00  0.00    +0.000 OA
ATOM     34  H   UNL     1       2.511  10.220  17.175  0.00  0.00    +0.000 HD
ENDBRANCH   8  33
TORSDOF 8
ENDMDL
MODEL 2
REMARK VINA RESULT:      -8.0      2.205      2.924
REMARK  Name = 
REMARK  9 active torsions:
REMARK  status: ('A' for Active; 'I' for Inactive)
REMARK    1  A    between atoms: C_1  and  N_2
REMARK    2  A    between atoms: N_2  and  C_3
REMARK    3  A    between atoms: N_2  and  S_10
REMARK    4  A    between atoms: C_3  and  C_4
REMARK    5  A    between atoms: S_10  and  C_13
REMARK    6  A    between atoms: C_19  and  C_20
REMARK    7  A    between atoms: N_22  and  C_23
REMARK    8  A    between atoms: C_23  and  C_24
REMARK    9  A    between atoms: C_29  and  O_30
REMARK                            x       y       z     vdW  Elec       q    Type
REMARK                         _______ _______ _______ _____ _____    ______ ____
ROOT
ATOM      1  C   UNL     1       4.080   6.295  18.154  0.00  0.00    +0.000 A 
ATOM      2  C   UNL     1       3.826   5.649  19.360  0.00  0.00    +0.000 A 
ATOM      3  C   UNL     1       2.889   6.187  20.251  0.00  0.00    +0.000 A 
ATOM      4  C   UNL     1       2.188   7.350  19.982  0.00  0.00    +0.000 A 
ATOM      5  N   UNL     1       1.379   7.803  20.950  0.00  0.00    +0.000 NA
ATOM      6  C   UNL     1       0.664   8.934  20.741  0.00  0.00    +0.000 A 
ATOM      7  C   UNL     1       0.674   9.657  19.566  0.00  0.00    +0.000 A 
ATOM      8  C   UNL     1       1.538   9.163  18.555  0.00  0.00    +0.000 A 
ATOM      9  C   UNL     1       2.365   8.003  18.745  0.00  0.00    +0.000 A 
ATOM     10  C   UNL     1       3.346   7.458  17.832  0.00  0.00    +0.000 A 
ENDROOT
BRANCH   7  11
ATOM     11  C   UNL     1      -0.231  10.844  19.372  0.00  0.00    +0.000 C 
ATOM     12  O   UNL     1       0.282  11.961  19.345  0.00  0.00    +0.000 OA
ATOM     13  N   UNL     1      -1.598  10.645  19.212  0.00  0.00    +0.000 N 
ATOM     14  H   UNL     1      -2.022   9.737  19.327  0.00  0.00    +0.000 HD
BRANCH  13  15
ATOM     15  C   UNL     1      -2.539  11.703  18.819  0.00  0.00    +0.000 C 
BRANCH  15  16
ATOM     16  C   UNL     1      -2.968  11.725  17.342  0.00  0.00    +0.000 C 
ATOM     17  C   UNL     1      -4.368  11.222  17.056  0.00  0.00    +0.000 C 
ATOM     18  C   UNL     1      -4.296  10.902  15.583  0.00  0.00    +0.000 C 
ATOM     19  C   UNL     1      -2.857  10.464  15.388  0.00  0.00    +0.000 C 
ATOM     20  O   UNL     1      -2.093  10.941  16.510  0.00  0.00    +0.000 OA
ENDBRANCH  15  16
ENDBRANCH  13  15
ENDBRANCH   7  11
BRANCH   1  21
ATOM     21  S   UNL     1       5.577   5.789  17.277  0.00  0.00    +0.000 S 
ATOM     22  O   UNL     1       6.394   5.096  18.254  0.00  0.00    +0.000 OA
ATOM     23  O   UNL     1       6.089   6.950  16.585  0.00  0.00    +0.000 OA
BRANCH  21  25
ATOM     24  C   UNL     1       5.899   4.671  14.870  0.00  0.00    +0.000 C 
ATOM     25  N   UNL     1       5.069   4.633  16.102  0.00  0.00    +0.000 NA
BRANCH  25  26
ATOM     26  C   UNL     1       4.959   3.233  16.649  0.00  0.00    +0.000 C 
BRANCH  26  27
ATOM     27  C   UNL     1       3.682   2.960  17.432  0.00  0.00    +0.000 A 
ATOM     28  C   UNL     1       2.466   3.571  17.085  0.00  0.00    +0.000 A 
ATOM     29  C   UNL     1       1.298   3.321  17.821  0.00  0.00    +0.000 A 
ATOM     30  C   UNL     1       1.334   2.453  18.906  0.00  0.00    +0.000 A 
ATOM     31  C   UNL     1       2.530   1.828  19.255  0.00  0.00    +0.000 A 
ATOM     32  C   UNL     1       3.693   2.074  18.520  0.00  0.00    +0.000 A 
ENDBRANCH  26  27
ENDBRANCH  25  26
ENDBRANCH  21  25
ENDBRANCH   1  21
BRANCH   8  33
ATOM     33  O   UNL     1       1.604   9.783  17.323  0.00  0.00    +0.000 OA
ATOM     34  H   UNL     1       1.996  10.678  17.450  0.00  0.00    +0.000 HD
ENDBRANCH   8  33
TORSDOF 8
ENDMDL
MODEL 3
REMARK VINA RESULT:      -8.0      2.226      3.163
REMARK  Name = 
REMARK  9 active torsions:
REMARK  status: ('A' for Active; 'I' for Inactive)
REMARK    1  A    between atoms: C_1  and  N_2
REMARK    2  A    between atoms: N_2  and  C_3
REMARK    3  A    between atoms: N_2  and  S_10
REMARK    4  A    between atoms: C_3  and  C_4
REMARK    5  A    between atoms: S_10  and  C_13
REMARK    6  A    between atoms: C_19  and  C_20
REMARK    7  A    between atoms: N_22  and  C_23
REMARK    8  A    between atoms: C_23  and  C_24
REMARK    9  A    between atoms: C_29  and  O_30
REMARK                            x       y       z     vdW  Elec       q    Type
REMARK                         _______ _______ _______ _____ _____    ______ ____
ROOT
ATOM      1  C   UNL     1       3.948   6.492  18.217  0.00  0.00    +0.000 A 
ATOM      2  C   UNL     1       3.753   5.866  19.445  0.00  0.00    +0.000 A 
ATOM      3  C   UNL     1       2.802   6.372  20.338  0.00  0.00    +0.000 A 
ATOM      4  C   UNL     1       2.028   7.484  20.052  0.00  0.00    +0.000 A 
ATOM      5  N   UNL     1       1.211   7.915  21.023  0.00  0.00    +0.000 NA
ATOM      6  C   UNL     1       0.427   8.997  20.797  0.00  0.00    +0.000 A 
ATOM      7  C   UNL     1       0.374   9.686  19.603  0.00  0.00    +0.000 A 
ATOM      8  C   UNL     1       1.247   9.216  18.589  0.00  0.00    +0.000 A 
ATOM      9  C   UNL     1       2.145   8.112  18.795  0.00  0.00    +0.000 A 
ATOM     10  C   UNL     1       3.140   7.600  17.878  0.00  0.00    +0.000 A 
ENDROOT
BRANCH   7  11
ATOM     11  C   UNL     1      -0.604  10.811  19.396  0.00  0.00    +0.000 C 
ATOM     12  O   UNL     1      -0.460  11.831  20.070  0.00  0.00    +0.000 OA
ATOM     13  N   UNL     1      -1.613  10.678  18.449  0.00  0.00    +0.000 N 
ATOM     14  H   UNL     1      -1.781   9.808  17.966  0.00  0.00    +0.000 HD
BRANCH  13  15
ATOM     15  C   UNL     1      -2.489  11.779  18.025  0.00  0.00    +0.000 C 
BRANCH  15  16
ATOM     16  C   UNL     1      -3.996  11.588  18.266  0.00  0.00    +0.000 C 
ATOM     17  C   UNL     1      -4.894  11.872  17.080  0.00  0.00    +0.000 C 
ATOM     18  C   UNL     1      -6.234  12.086  17.740  0.00  0.00    +0.000 C 
ATOM     19  C   UNL     1      -5.873  12.699  19.080  0.00  0.00    +0.000 C 
ATOM     20  O   UNL     1      -4.485  12.418  19.336  0.00  0.00    +0.000 OA
ENDBRANCH  15  16
ENDBRANCH  13  15
ENDBRANCH   7  11
BRANCH   1  21
ATOM     21  S   UNL     1       5.456   6.051  17.325  0.00  0.00    +0.000 S 
ATOM     22  O   UNL     1       6.289   5.346  18.280  0.00  0.00    +0.000 OA
ATOM     23  O   UNL     1       5.940   7.246  16.671  0.00  0.00    +0.000 OA
BRANCH  21  25
ATOM     24  C   UNL     1       5.789   5.037  14.874  0.00  0.00    +0.000 C 
ATOM     25  N   UNL     1       4.976   4.922  16.113  0.00  0.00    +0.000 NA
BRANCH  25  26
ATOM     26  C   UNL     1       4.925   3.499  16.608  0.00  0.00    +0.000 C 
BRANCH  26  27
ATOM     27  C   UNL     1       3.722   3.178  17.484  0.00  0.00    +0.000 A 
ATOM     28  C   UNL     1       3.858   2.438  18.671  0.00  0.00    +0.000 A 
ATOM     29  C   UNL     1       2.740   2.138  19.464  0.00  0.00    +0.000 A 
ATOM     30  C   UNL     1       1.479   2.581  19.083  0.00  0.00    +0.000 A 
ATOM     31  C   UNL     1       1.329   3.328  17.916  0.00  0.00    +0.000 A 
ATOM     32  C   UNL     1       2.443   3.629  17.126  0.00  0.00    +0.000 A 
ENDBRANCH  26  27
ENDBRANCH  25  26
ENDBRANCH  21  25
ENDBRANCH   1  21
BRANCH   8  33
ATOM     33  O   UNL     1       1.255   9.804  17.341  0.00  0.00    +0.000 OA
ATOM     34  H   UNL     1       2.047   9.480  16.854  0.00  0.00    +0.000 HD
ENDBRANCH   8  33
TORSDOF 8
ENDMDL
MODEL 4
REMARK VINA RESULT:      -8.0      3.151      4.654
REMARK  Name = 
REMARK  9 active torsions:
REMARK  status: ('A' for Active; 'I' for Inactive)
REMARK    1  A    between atoms: C_1  and  N_2
REMARK    2  A    between atoms: N_2  and  C_3
REMARK    3  A    between atoms: N_2  and  S_10
REMARK    4  A    between atoms: C_3  and  C_4
REMARK    5  A    between atoms: S_10  and  C_13
REMARK    6  A    between atoms: C_19  and  C_20
REMARK    7  A    between atoms: N_22  and  C_23
REMARK    8  A    between atoms: C_23  and  C_24
REMARK    9  A    between atoms: C_29  and  O_30
REMARK                            x       y       z     vdW  Elec       q    Type
REMARK                         _______ _______ _______ _____ _____    ______ ____
ROOT
ATOM      1  C   UNL     1       2.313   5.968  19.569  0.00  0.00    +0.000 A 
ATOM      2  C   UNL     1       2.629   6.455  18.304  0.00  0.00    +0.000 A 
ATOM      3  C   UNL     1       2.370   7.795  17.992  0.00  0.00    +0.000 A 
ATOM      4  C   UNL     1       1.809   8.676  18.900  0.00  0.00    +0.000 A 
ATOM      5  N   UNL     1       1.538   9.911  18.453  0.00  0.00    +0.000 NA
ATOM      6  C   UNL     1       0.993  10.816  19.299  0.00  0.00    +0.000 A 
ATOM      7  C   UNL     1       0.719  10.575  20.630  0.00  0.00    +0.000 A 
ATOM      8  C   UNL     1       1.010   9.264  21.083  0.00  0.00    +0.000 A 
ATOM      9  C   UNL     1       1.532   8.244  20.213  0.00  0.00    +0.000 A 
ATOM     10  C   UNL     1       1.783   6.855  20.531  0.00  0.00    +0.000 A 
ENDROOT
BRANCH   7  11
ATOM     11  C   UNL     1       0.213  11.668  21.533  0.00  0.00    +0.000 C 
ATOM     12  O   UNL     1       0.811  12.744  21.525  0.00  0.00    +0.000 OA
ATOM     13  N   UNL     1      -0.909  11.443  22.322  0.00  0.00    +0.000 N 
ATOM     14  H   UNL     1      -1.338  10.532  22.391  0.00  0.00    +0.000 HD
BRANCH  13  15
ATOM     15  C   UNL     1      -1.602  12.493  23.080  0.00  0.00    +0.000 C 
BRANCH  15  16
ATOM     16  C   UNL     1      -2.922  13.012  22.483  0.00  0.00    +0.000 C 
ATOM     17  C   UNL     1      -3.269  14.450  22.803  0.00  0.00    +0.000 C 
ATOM     18  C   UNL     1      -4.754  14.487  22.535  0.00  0.00    +0.000 C 
ATOM     19  C   UNL     1      -5.211  13.087  22.900  0.00  0.00    +0.000 C 
ATOM     20  O   UNL     1      -4.054  12.231  22.910  0.00  0.00    +0.000 OA
ENDBRANCH  15  16
ENDBRANCH  13  15
ENDBRANCH   7  11
BRANCH   1  21
ATOM     21  S   UNL     1       2.277   4.170  19.746  0.00  0.00    +0.000 S 
ATOM     22  O   UNL     1       1.279   3.699  18.806  0.00  0.00    +0.000 OA
ATOM     23  O   UNL     1       2.153   3.874  21.156  0.00  0.00    +0.000 OA
BRANCH  21  25
ATOM     24  C   UNL     1       4.310   2.453  19.994  0.00  0.00    +0.000 C 
ATOM     25  N   UNL     1       3.815   3.610  19.204  0.00  0.00    +0.000 NA
BRANCH  25  26
ATOM     26  C   UNL     1       3.861   3.326  17.725  0.00  0.00    +0.000 C 
BRANCH  26  27
ATOM     27  C   UNL     1       5.027   3.975  16.993  0.00  0.00    +0.000 A 
ATOM     28  C   UNL     1       6.017   4.693  17.686  0.00  0.00    +0.000 A 
ATOM     29  C   UNL     1       7.081   5.298  16.999  0.00  0.00    +0.000 A 
ATOM     30  C   UNL     1       7.169   5.185  15.616  0.00  0.00    +0.000 A 
ATOM     31  C   UNL     1       6.203   4.464  14.916  0.00  0.00    +0.000 A 
ATOM     32  C   UNL     1       5.144   3.859  15.600  0.00  0.00    +0.000 A 
ENDBRANCH  26  27
ENDBRANCH  25  26
ENDBRANCH  21  25
ENDBRANCH   1  21
BRANCH   8  33
ATOM     33  O   UNL     1       0.813   8.916  22.404  0.00  0.00    +0.000 OA
ATOM     34  H   UNL     1      -0.101   8.561  22.495  0.00  0.00    +0.000 HD
ENDBRANCH   8  33
TORSDOF 8
ENDMDL
MODEL 5
REMARK VINA RESULT:      -8.0      1.678      2.686
REMARK  Name = 
REMARK  9 active torsions:
REMARK  status: ('A' for Active; 'I' for Inactive)
REMARK    1  A    between atoms: C_1  and  N_2
REMARK    2  A    between atoms: N_2  and  C_3
REMARK    3  A    between atoms: N_2  and  S_10
REMARK    4  A    between atoms: C_3  and  C_4
REMARK    5  A    between atoms: S_10  and  C_13
REMARK    6  A    between atoms: C_19  and  C_20
REMARK    7  A    between atoms: N_22  and  C_23
REMARK    8  A    between atoms: C_23  and  C_24
REMARK    9  A    between atoms: C_29  and  O_30
REMARK                            x       y       z     vdW  Elec       q    Type
REMARK                         _______ _______ _______ _____ _____    ______ ____
ROOT
ATOM      1  C   UNL     1       3.735   6.556  18.379  0.00  0.00    +0.000 A 
ATOM      2  C   UNL     1       3.338   5.921  19.551  0.00  0.00    +0.000 A 
ATOM      3  C   UNL     1       2.369   6.516  20.368  0.00  0.00    +0.000 A 
ATOM      4  C   UNL     1       1.774   7.726  20.057  0.00  0.00    +0.000 A 
ATOM      5  N   UNL     1       0.920   8.227  20.962  0.00  0.00    +0.000 NA
ATOM      6  C   UNL     1       0.305   9.407  20.709  0.00  0.00    +0.000 A 
ATOM      7  C   UNL     1       0.462  10.136  19.548  0.00  0.00    +0.000 A 
ATOM      8  C   UNL     1       1.370   9.591  18.605  0.00  0.00    +0.000 A 
ATOM      9  C   UNL     1       2.098   8.374  18.849  0.00  0.00    +0.000 A 
ATOM     10  C   UNL     1       3.112   7.769  18.012  0.00  0.00    +0.000 A 
ENDROOT
BRANCH   7  11
ATOM     11  C   UNL     1      -0.341  11.384  19.296  0.00  0.00    +0.000 C 
ATOM     12  O   UNL     1      -1.110  11.389  18.336  0.00  0.00    +0.000 OA
ATOM     13  N   UNL     1      -0.208  12.470  20.153  0.00  0.00    +0.000 N 
ATOM     14  H   UNL     1       0.490  12.493  20.881  0.00  0.00    +0.000 HD
BRANCH  13  15
ATOM     15  C   UNL     1      -1.082  13.651  20.120  0.00  0.00    +0.000 C 
BRANCH  15  16
ATOM     16  C   UNL     1      -2.249  13.668  21.122  0.00  0.00    +0.000 C 
ATOM     17  C   UNL     1      -2.106  12.747  22.315  0.00  0.00    +0.000 C 
ATOM     18  C   UNL     1      -3.533  12.617  22.789  0.00  0.00    +0.000 C 
ATOM     19  C   UNL     1      -4.340  12.719  21.508  0.00  0.00    +0.000 C 
ATOM     20  O   UNL     1      -3.501  13.316  20.503  0.00  0.00    +0.000 OA
ENDBRANCH  15  16
ENDBRANCH  13  15
ENDBRANCH   7  11
BRANCH   1  21
ATOM     21  S   UNL     1       5.262   5.954  17.622  0.00  0.00    +0.000 S 
ATOM     22  O   UNL     1       5.920   5.156  18.638  0.00  0.00    +0.000 OA
ATOM     23  O   UNL     1       5.933   7.091  17.032  0.00  0.00    +0.000 OA
BRANCH  21  25
ATOM     24  C   UNL     1       5.589   5.061  15.124  0.00  0.00    +0.000 C 
ATOM     25  N   UNL     1       4.774   4.891  16.354  0.00  0.00    +0.000 NA
BRANCH  25  26
ATOM     26  C   UNL     1       4.709   3.446  16.777  0.00  0.00    +0.000 C 
BRANCH  26  27
ATOM     27  C   UNL     1       3.526   3.102  17.672  0.00  0.00    +0.000 A 
ATOM     28  C   UNL     1       3.693   2.348  18.846  0.00  0.00    +0.000 A 
ATOM     29  C   UNL     1       2.594   2.027  19.658  0.00  0.00    +0.000 A 
ATOM     30  C   UNL     1       1.321   2.462  19.306  0.00  0.00    +0.000 A 
ATOM     31  C   UNL     1       1.141   3.222  18.151  0.00  0.00    +0.000 A 
ATOM     32  C   UNL     1       2.236   3.545  17.344  0.00  0.00    +0.000 A 
ENDBRANCH  26  27
ENDBRANCH  25  26
ENDBRANCH  21  25
ENDBRANCH   1  21
BRANCH   8  33
ATOM     33  O   UNL     1       1.582  10.213  17.392  0.00  0.00    +0.000 OA
ATOM     34  H   UNL     1       0.851   9.956  16.783  0.00  0.00    +0.000 HD
ENDBRANCH   8  33
TORSDOF 8
ENDMDL
MODEL 6
REMARK VINA RESULT:      -8.0      2.020      2.959
REMARK  Name = 
REMARK  9 active torsions:
REMARK  status: ('A' for Active; 'I' for Inactive)
REMARK    1  A    between atoms: C_1  and  N_2
REMARK    2  A    between atoms: N_2  and  C_3
REMARK    3  A    between atoms: N_2  and  S_10
REMARK    4  A    between atoms: C_3  and  C_4
REMARK    5  A    between atoms: S_10  and  C_13
REMARK    6  A    between atoms: C_19  and  C_20
REMARK    7  A    between atoms: N_22  and  C_23
REMARK    8  A    between atoms: C_23  and  C_24
REMARK    9  A    between atoms: C_29  and  O_30
REMARK                            x       y       z     vdW  Elec       q    Type
REMARK                         _______ _______ _______ _____ _____    ______ ____
ROOT
ATOM      1  C   UNL     1       3.816   6.492  18.047  0.00  0.00    +0.000 A 
ATOM      2  C   UNL     1       3.487   5.787  19.201  0.00  0.00    +0.000 A 
ATOM      3  C   UNL     1       2.584   6.339  20.117  0.00  0.00    +0.000 A 
ATOM      4  C   UNL     1       1.990   7.575  19.925  0.00  0.00    +0.000 A 
ATOM      5  N   UNL     1       1.206   8.026  20.915  0.00  0.00    +0.000 NA
ATOM      6  C   UNL     1       0.595   9.227  20.780  0.00  0.00    +0.000 A 
ATOM      7  C   UNL     1       0.687  10.028  19.660  0.00  0.00    +0.000 A 
ATOM      8  C   UNL     1       1.522   9.535  18.626  0.00  0.00    +0.000 A 
ATOM      9  C   UNL     1       2.244   8.296  18.742  0.00  0.00    +0.000 A 
ATOM     10  C   UNL     1       3.190   7.734  17.802  0.00  0.00    +0.000 A 
ENDROOT
BRANCH   7  11
ATOM     11  C   UNL     1      -0.110  11.300  19.543  0.00  0.00    +0.000 C 
ATOM     12  O   UNL     1       0.387  12.235  18.917  0.00  0.00    +0.000 OA
ATOM     13  N   UNL     1      -1.373  11.374  20.119  0.00  0.00    +0.000 N 
ATOM     14  H   UNL     1      -1.735  10.638  20.708  0.00  0.00    +0.000 HD
BRANCH  13  15
ATOM     15  C   UNL     1      -2.312  12.482  19.896  0.00  0.00    +0.000 C 
BRANCH  15  16
ATOM     16  C   UNL     1      -3.437  12.233  18.877  0.00  0.00    +0.000 C 
ATOM     17  C   UNL     1      -4.845  12.258  19.433  0.00  0.00    +0.000 C 
ATOM     18  C   UNL     1      -5.619  11.517  18.370  0.00  0.00    +0.000 C 
ATOM     19  C   UNL     1      -4.613  10.515  17.837  0.00  0.00    +0.000 C 
ATOM     20  O   UNL     1      -3.299  10.962  18.215  0.00  0.00    +0.000 OA
ENDBRANCH  15  16
ENDBRANCH  13  15
ENDBRANCH   7  11
BRANCH   1  21
ATOM     21  S   UNL     1       5.279   5.922  17.153  0.00  0.00    +0.000 S 
ATOM     22  O   UNL     1       6.205   5.452  18.165  0.00  0.00    +0.000 OA
ATOM     23  O   UNL     1       5.665   6.971  16.236  0.00  0.00    +0.000 OA
BRANCH  21  25
ATOM     24  C   UNL     1       5.395   4.508  14.887  0.00  0.00    +0.000 C 
ATOM     25  N   UNL     1       4.768   4.555  16.234  0.00  0.00    +0.000 NA
BRANCH  25  26
ATOM     26  C   UNL     1       4.934   3.247  16.964  0.00  0.00    +0.000 C 
BRANCH  26  27
ATOM     27  C   UNL     1       3.811   2.921  17.939  0.00  0.00    +0.000 A 
ATOM     28  C   UNL     1       2.465   2.933  17.534  0.00  0.00    +0.000 A 
ATOM     29  C   UNL     1       1.437   2.643  18.444  0.00  0.00    +0.000 A 
ATOM     30  C   UNL     1       1.745   2.331  19.764  0.00  0.00    +0.000 A 
ATOM     31  C   UNL     1       3.076   2.302  20.177  0.00  0.00    +0.000 A 
ATOM     32  C   UNL     1       4.101   2.588  19.271  0.00  0.00    +0.000 A 
ENDBRANCH  26  27
ENDBRANCH  25  26
ENDBRANCH  21  25
ENDBRANCH   1  21
BRANCH   8  33
ATOM     33  O   UNL     1       1.663  10.232  17.443  0.00  0.00    +0.000 OA
ATOM     34  H   UNL     1       1.849  11.174  17.662  0.00  0.00    +0.000 HD
ENDBRANCH   8  33
TORSDOF 8
ENDMDL
MODEL 7
REMARK VINA RESULT:      -8.0      1.100      1.265
REMARK  Name = 
REMARK  9 active torsions:
REMARK  status: ('A' for Active; 'I' for Inactive)
REMARK    1  A    between atoms: C_1  and  N_2
REMARK    2  A    between atoms: N_2  and  C_3
REMARK    3  A    between atoms: N_2  and  S_10
REMARK    4  A    between atoms: C_3  and  C_4
REMARK    5  A    between atoms: S_10  and  C_13
REMARK    6  A    between atoms: C_19  and  C_20
REMARK    7  A    between atoms: N_22  and  C_23
REMARK    8  A    between atoms: C_23  and  C_24
REMARK    9  A    between atoms: C_29  and  O_30
REMARK                            x       y       z     vdW  Elec       q    Type
REMARK                         _______ _______ _______ _____ _____    ______ ____
ROOT
ATOM      1  C   UNL     1       3.308   6.604  18.694  0.00  0.00    +0.000 A 
ATOM      2  C   UNL     1       2.808   6.105  19.894  0.00  0.00    +0.000 A 
ATOM      3  C   UNL     1       1.891   6.864  20.632  0.00  0.00    +0.000 A 
ATOM      4  C   UNL     1       1.447   8.107  20.216  0.00  0.00    +0.000 A 
ATOM      5  N   UNL     1       0.631   8.765  21.051  0.00  0.00    +0.000 NA
ATOM      6  C   UNL     1       0.161   9.984  20.694  0.00  0.00    +0.000 A 
ATOM      7  C   UNL     1       0.432  10.603  19.491  0.00  0.00    +0.000 A 
ATOM      8  C   UNL     1       1.298   9.892  18.622  0.00  0.00    +0.000 A 
ATOM      9  C   UNL     1       1.876   8.623  18.976  0.00  0.00    +0.000 A 
ATOM     10  C   UNL     1       2.837   7.848  18.221  0.00  0.00    +0.000 A 
ENDROOT
BRANCH   7  11
ATOM     11  C   UNL     1      -0.216  11.911  19.123  0.00  0.00    +0.000 C 
ATOM     12  O   UNL     1      -0.934  11.936  18.124  0.00  0.00    +0.000 OA
ATOM     13  N   UNL     1      -0.005  13.030  19.920  0.00  0.00    +0.000 N 
ATOM     14  H   UNL     1       0.656  13.025  20.683  0.00  0.00    +0.000 HD
BRANCH  13  15
ATOM     15  C   UNL     1      -0.742  14.292  19.771  0.00  0.00    +0.000 C 
BRANCH  15  16
ATOM     16  C   UNL     1      -0.138  15.329  18.809  0.00  0.00    +0.000 C 
ATOM     17  C   UNL     1       1.355  15.551  18.932  0.00  0.00    +0.000 C 
ATOM     18  C   UNL     1       1.532  16.896  18.271  0.00  0.00    +0.000 C 
ATOM     19  C   UNL     1       0.235  17.616  18.585  0.00  0.00    +0.000 C 
ATOM     20  O   UNL     1      -0.741  16.628  18.961  0.00  0.00    +0.000 OA
ENDBRANCH  15  16
ENDBRANCH  13  15
ENDBRANCH   7  11
BRANCH   1  21
ATOM     21  S   UNL     1       4.776   5.781  18.037  0.00  0.00    +0.000 S 
ATOM     22  O   UNL     1       5.527   5.328  19.191  0.00  0.00    +0.000 OA
ATOM     23  O   UNL     1       5.379   6.673  17.072  0.00  0.00    +0.000 OA
BRANCH  21  25
ATOM     24  C   UNL     1       4.855   4.201  15.881  0.00  0.00    +0.000 C 
ATOM     25  N   UNL     1       4.201   4.384  17.203  0.00  0.00    +0.000 NA
BRANCH  25  26
ATOM     26  C   UNL     1       4.268   3.125  18.029  0.00  0.00    +0.000 C 
BRANCH  26  27
ATOM     27  C   UNL     1       3.156   2.986  19.060  0.00  0.00    +0.000 A 
ATOM     28  C   UNL     1       1.803   3.075  18.692  0.00  0.00    +0.000 A 
ATOM     29  C   UNL     1       0.787   2.957  19.652  0.00  0.00    +0.000 A 
ATOM     30  C   UNL     1       1.114   2.743  20.987  0.00  0.00    +0.000 A 
ATOM     31  C   UNL     1       2.451   2.639  21.365  0.00  0.00    +0.000 A 
ATOM     32  C   UNL     1       3.464   2.753  20.409  0.00  0.00    +0.000 A 
ENDBRANCH  26  27
ENDBRANCH  25  26
ENDBRANCH  21  25
ENDBRANCH   1  21
BRANCH   8  33
ATOM     33  O   UNL     1       1.612  10.395  17.376  0.00  0.00    +0.000 OA
ATOM     34  H   UNL     1       2.590  10.358  17.267  0.00  0.00    +0.000 HD
ENDBRANCH   8  33
TORSDOF 8
ENDMDL
MODEL 8
REMARK VINA RESULT:      -7.9      1.968      2.728
REMARK  Name = 
REMARK  9 active torsions:
REMARK  status: ('A' for Active; 'I' for Inactive)
REMARK    1  A    between atoms: C_1  and  N_2
REMARK    2  A    between atoms: N_2  and  C_3
REMARK    3  A    between atoms: N_2  and  S_10
REMARK    4  A    between atoms: C_3  and  C_4
REMARK    5  A    between atoms: S_10  and  C_13
REMARK    6  A    between atoms: C_19  and  C_20
REMARK    7  A    between atoms: N_22  and  C_23
REMARK    8  A    between atoms: C_23  and  C_24
REMARK    9  A    between atoms: C_29  and  O_30
REMARK                            x       y       z     vdW  Elec       q    Type
REMARK                         _______ _______ _______ _____ _____    ______ ____
ROOT
ATOM      1  C   UNL     1       3.826   6.512  18.135  0.00  0.00    +0.000 A 
ATOM      2  C   UNL     1       3.537   5.848  19.324  0.00  0.00    +0.000 A 
ATOM      3  C   UNL     1       2.611   6.398  20.218  0.00  0.00    +0.000 A 
ATOM      4  C   UNL     1       1.954   7.590  19.970  0.00  0.00    +0.000 A 
ATOM      5  N   UNL     1       1.151   8.049  20.942  0.00  0.00    +0.000 NA
ATOM      6  C   UNL     1       0.479   9.209  20.752  0.00  0.00    +0.000 A 
ATOM      7  C   UNL     1       0.526   9.958  19.594  0.00  0.00    +0.000 A 
ATOM      8  C   UNL     1       1.381   9.458  18.580  0.00  0.00    +0.000 A 
ATOM      9  C   UNL     1       2.166   8.265  18.751  0.00  0.00    +0.000 A 
ATOM     10  C   UNL     1       3.136   7.707  17.833  0.00  0.00    +0.000 A 
ENDROOT
BRANCH   7  11
ATOM     11  C   UNL     1      -0.335  11.180  19.421  0.00  0.00    +0.000 C 
ATOM     12  O   UNL     1      -0.786  11.413  18.300  0.00  0.00    +0.000 OA
ATOM     13  N   UNL     1      -0.611  11.988  20.518  0.00  0.00    +0.000 N 
ATOM     14  H   UNL     1      -0.165  11.843  21.412  0.00  0.00    +0.000 HD
BRANCH  13  15
ATOM     15  C   UNL     1      -1.594  13.080  20.506  0.00  0.00    +0.000 C 
BRANCH  15  16
ATOM     16  C   UNL     1      -2.965  12.774  21.133  0.00  0.00    +0.000 C 
ATOM     17  C   UNL     1      -4.133  12.725  20.170  0.00  0.00    +0.000 C 
ATOM     18  C   UNL     1      -5.313  12.914  21.091  0.00  0.00    +0.000 C 
ATOM     19  C   UNL     1      -4.765  13.810  22.186  0.00  0.00    +0.000 C 
ATOM     20  O   UNL     1      -3.329  13.737  22.140  0.00  0.00    +0.000 OA
ENDBRANCH  15  16
ENDBRANCH  13  15
ENDBRANCH   7  11
BRANCH   1  21
ATOM     21  S   UNL     1       5.312   5.974  17.260  0.00  0.00    +0.000 S 
ATOM     22  O   UNL     1       6.166   5.368  18.263  0.00  0.00    +0.000 OA
ATOM     23  O   UNL     1       5.784   7.093  16.475  0.00  0.00    +0.000 OA
BRANCH  21  25
ATOM     24  C   UNL     1       5.522   4.769  14.883  0.00  0.00    +0.000 C 
ATOM     25  N   UNL     1       4.802   4.728  16.183  0.00  0.00    +0.000 NA
BRANCH  25  26
ATOM     26  C   UNL     1       4.849   3.352  16.795  0.00  0.00    +0.000 C 
BRANCH  26  27
ATOM     27  C   UNL     1       3.673   3.025  17.706  0.00  0.00    +0.000 A 
ATOM     28  C   UNL     1       2.350   3.296  17.317  0.00  0.00    +0.000 A 
ATOM     29  C   UNL     1       1.275   3.002  18.170  0.00  0.00    +0.000 A 
ATOM     30  C   UNL     1       1.512   2.429  19.414  0.00  0.00    +0.000 A 
ATOM     31  C   UNL     1       2.817   2.141  19.808  0.00  0.00    +0.000 A 
ATOM     32  C   UNL     1       3.889   2.431  18.958  0.00  0.00    +0.000 A 
ENDBRANCH  26  27
ENDBRANCH  25  26
ENDBRANCH  21  25
ENDBRANCH   1  21
BRANCH   8  33
ATOM     33  O   UNL     1       1.481  10.103  17.364  0.00  0.00    +0.000 OA
ATOM     34  H   UNL     1       1.828  11.010  17.525  0.00  0.00    +0.000 HD
ENDBRANCH   8  33
TORSDOF 8
ENDMDL
MODEL 9
REMARK VINA RESULT:      -7.9      3.141      4.518
REMARK  Name = 
REMARK  9 active torsions:
REMARK  status: ('A' for Active; 'I' for Inactive)
REMARK    1  A    between atoms: C_1  and  N_2
REMARK    2  A    between atoms: N_2  and  C_3
REMARK    3  A    between atoms: N_2  and  S_10
REMARK    4  A    between atoms: C_3  and  C_4
REMARK    5  A    between atoms: S_10  and  C_13
REMARK    6  A    between atoms: C_19  and  C_20
REMARK    7  A    between atoms: N_22  and  C_23
REMARK    8  A    between atoms: C_23  and  C_24
REMARK    9  A    between atoms: C_29  and  O_30
REMARK                            x       y       z     vdW  Elec       q    Type
REMARK                         _______ _______ _______ _____ _____    ______ ____
ROOT
ATOM      1  C   UNL     1       2.284   5.948  19.487  0.00  0.00    +0.000 A 
ATOM      2  C   UNL     1       2.623   6.442  18.231  0.00  0.00    +0.000 A 
ATOM      3  C   UNL     1       2.390   7.790  17.931  0.00  0.00    +0.000 A 
ATOM      4  C   UNL     1       1.834   8.671  18.842  0.00  0.00    +0.000 A 
ATOM      5  N   UNL     1       1.589   9.915  18.405  0.00  0.00    +0.000 NA
ATOM      6  C   UNL     1       1.049  10.820  19.255  0.00  0.00    +0.000 A 
ATOM      7  C   UNL     1       0.757  10.570  20.580  0.00  0.00    +0.000 A 
ATOM      8  C   UNL     1       1.021   9.249  21.022  0.00  0.00    +0.000 A 
ATOM      9  C   UNL     1       1.535   8.230  20.147  0.00  0.00    +0.000 A 
ATOM     10  C   UNL     1       1.758   6.833  20.453  0.00  0.00    +0.000 A 
ENDROOT
BRANCH   7  11
ATOM     11  C   UNL     1       0.259  11.662  21.488  0.00  0.00    +0.000 C 
ATOM     12  O   UNL     1       0.851  12.741  21.470  0.00  0.00    +0.000 OA
ATOM     13  N   UNL     1      -0.850  11.432  22.295  0.00  0.00    +0.000 N 
ATOM     14  H   UNL     1      -1.272  10.519  22.373  0.00  0.00    +0.000 HD
BRANCH  13  15
ATOM     15  C   UNL     1      -1.536  12.480  23.062  0.00  0.00    +0.000 C 
BRANCH  15  16
ATOM     16  C   UNL     1      -3.024  12.703  22.740  0.00  0.00    +0.000 C 
ATOM     17  C   UNL     1      -3.383  12.724  21.269  0.00  0.00    +0.000 C 
ATOM     18  C   UNL     1      -4.717  13.430  21.278  0.00  0.00    +0.000 C 
ATOM     19  C   UNL     1      -4.597  14.393  22.444  0.00  0.00    +0.000 C 
ATOM     20  O   UNL     1      -3.518  13.942  23.282  0.00  0.00    +0.000 OA
ENDBRANCH  15  16
ENDBRANCH  13  15
ENDBRANCH   7  11
BRANCH   1  21
ATOM     21  S   UNL     1       2.215   4.149  19.646  0.00  0.00    +0.000 S 
ATOM     22  O   UNL     1       1.316   3.693  18.603  0.00  0.00    +0.000 OA
ATOM     23  O   UNL     1       1.944   3.844  21.033  0.00  0.00    +0.000 OA
BRANCH  21  25
ATOM     24  C   UNL     1       4.228   2.459  20.137  0.00  0.00    +0.000 C 
ATOM     25  N   UNL     1       3.797   3.579  19.261  0.00  0.00    +0.000 NA
BRANCH  25  26
ATOM     26  C   UNL     1       3.971   3.236  17.804  0.00  0.00    +0.000 C 
BRANCH  26  27
ATOM     27  C   UNL     1       5.075   4.014  17.099  0.00  0.00    +0.000 A 
ATOM     28  C   UNL     1       5.190   4.014  15.699  0.00  0.00    +0.000 A 
ATOM     29  C   UNL     1       6.217   4.725  15.061  0.00  0.00    +0.000 A 
ATOM     30  C   UNL     1       7.134   5.448  15.816  0.00  0.00    +0.000 A 
ATOM     31  C   UNL     1       7.025   5.469  17.205  0.00  0.00    +0.000 A 
ATOM     32  C   UNL     1       6.000   4.763  17.842  0.00  0.00    +0.000 A 
ENDBRANCH  26  27
ENDBRANCH  25  26
ENDBRANCH  21  25
ENDBRANCH   1  21
BRANCH   8  33
ATOM     33  O   UNL     1       0.802   8.892  22.337  0.00  0.00    +0.000 OA
ATOM     34  H   UNL     1       0.142   9.514  22.719  0.00  0.00    +0.000 HD
ENDBRANCH   8  33
TORSDOF 8
ENDMDL
