MODEL 1
REMARK VINA RESULT:      -6.9      0.000      0.000
REMARK  Name = 
REMARK  5 active torsions:
REMARK  status: ('A' for Active; 'I' for Inactive)
REMARK    1  A    between atoms: C_1  and  N_2
REMARK    2  A    between atoms: N_5  and  C_6
REMARK    3  A    between atoms: C_6  and  C_7
REMARK    4  A    between atoms: N_9  and  S_10
REMARK    5  A    between atoms: S_10  and  C_13
REMARK                            x       y       z     vdW  Elec       q    Type
REMARK                         _______ _______ _______ _____ _____    ______ ____
ROOT
ATOM      1  C   UNL     1      -3.136  12.433  20.359  0.00  0.00    +0.000 A 
ATOM      2  C   UNL     1      -1.827  12.407  20.796  0.00  0.00    +0.000 A 
ATOM      3  N   UNL     1      -1.037  11.915  19.787  0.00  0.00    +0.000 N 
ATOM      4  C   UNL     1      -1.810  11.532  18.705  0.00  0.00    +0.000 A 
ATOM      5  C   UNL     1      -1.523  10.872  17.493  0.00  0.00    +0.000 A 
ATOM      6  C   UNL     1      -2.573  10.637  16.594  0.00  0.00    +0.000 A 
ATOM      7  C   UNL     1      -3.864  11.041  16.890  0.00  0.00    +0.000 A 
ATOM      8  F   UNL     1      -4.848  10.801  16.013  0.00  0.00    +0.000 F 
ATOM      9  C   UNL     1      -4.163  11.667  18.097  0.00  0.00    +0.000 A 
ATOM     10  C   UNL     1      -3.133  11.902  19.026  0.00  0.00    +0.000 A 
ENDROOT
BRANCH   3  11
ATOM     11  S   UNL     1       0.672  12.019  19.875  0.00  0.00    +0.000 S 
ATOM     12  O   UNL     1       1.051  12.862  18.754  0.00  0.00    +0.000 OA
ATOM     13  O   UNL     1       1.001  12.412  21.230  0.00  0.00    +0.000 OA
BRANCH  11  14
ATOM     14  C   UNL     1       1.234  10.363  19.517  0.00  0.00    +0.000 A 
ATOM     15  C   UNL     1       1.859  10.168  18.267  0.00  0.00    +0.000 A 
ATOM     16  C   UNL     1       2.280   8.898  17.863  0.00  0.00    +0.000 A 
ATOM     17  C   UNL     1       2.101   7.811  18.709  0.00  0.00    +0.000 A 
ATOM     18  C   UNL     1       1.535   8.004  19.970  0.00  0.00    +0.000 A 
ATOM     19  C   UNL     1       1.104   9.276  20.387  0.00  0.00    +0.000 A 
ATOM     20 BR   UNL     1       0.404   9.339  22.146  0.00  0.00    +0.000 Br
ENDBRANCH  11  14
ENDBRANCH   3  11
BRANCH   1  21
ATOM     21  C   UNL     1      -4.318  12.891  21.162  0.00  0.00    +0.000 C 
BRANCH  21  26
ATOM     22  C   UNL     1      -7.823  14.212  24.079  0.00  0.00    +0.000 C 
ATOM     23  N   UNL     1      -6.377  14.253  23.896  0.00  0.00    +0.000 NA
ATOM     24  C   UNL     1      -6.013  15.019  22.689  0.00  0.00    +0.000 C 
ATOM     25  C   UNL     1      -4.492  15.004  22.414  0.00  0.00    +0.000 C 
ATOM     26  N   UNL     1      -3.892  13.650  22.349  0.00  0.00    +0.000 NA
ATOM     27  C   UNL     1      -4.275  12.942  23.593  0.00  0.00    +0.000 C 
ATOM     28  C   UNL     1      -5.801  12.899  23.852  0.00  0.00    +0.000 C 
ENDBRANCH  21  26
ENDBRANCH   1  21
TORSDOF 4
ENDMDL
MODEL 2
REMARK VINA RESULT:      -6.9      0.751      1.019
REMARK  Name = 
REMARK  5 active torsions:
REMARK  status: ('A' for Active; 'I' for Inactive)
REMARK    1  A    between atoms: C_1  and  N_2
REMARK    2  A    between atoms: N_5  and  C_6
REMARK    3  A    between atoms: C_6  and  C_7
REMARK    4  A    between atoms: N_9  and  S_10
REMARK    5  A    between atoms: S_10  and  C_13
REMARK                            x       y       z     vdW  Elec       q    Type
REMARK                         _______ _______ _______ _____ _____    ______ ____
ROOT
ATOM      1  C   UNL     1      -2.766  12.818  20.449  0.00  0.00    +0.000 A 
ATOM      2  C   UNL     1      -1.428  12.774  20.784  0.00  0.00    +0.000 A 
ATOM      3  N   UNL     1      -0.759  12.054  19.826  0.00  0.00    +0.000 N 
ATOM      4  C   UNL     1      -1.645  11.542  18.893  0.00  0.00    +0.000 A 
ATOM      5  C   UNL     1      -1.503  10.657  17.805  0.00  0.00    +0.000 A 
ATOM      6  C   UNL     1      -2.639  10.343  17.046  0.00  0.00    +0.000 A 
ATOM      7  C   UNL     1      -3.873  10.887  17.359  0.00  0.00    +0.000 A 
ATOM      8  F   UNL     1      -4.942  10.568  16.617  0.00  0.00    +0.000 F 
ATOM      9  C   UNL     1      -4.029  11.739  18.449  0.00  0.00    +0.000 A 
ATOM     10  C   UNL     1      -2.910  12.059  19.239  0.00  0.00    +0.000 A 
ENDROOT
BRANCH   3  11
ATOM     11  S   UNL     1       0.954  12.047  19.765  0.00  0.00    +0.000 S 
ATOM     12  O   UNL     1       1.287  12.805  18.571  0.00  0.00    +0.000 OA
ATOM     13  O   UNL     1       1.423  12.484  21.064  0.00  0.00    +0.000 OA
BRANCH  11  14
ATOM     14  C   UNL     1       1.377  10.340  19.454  0.00  0.00    +0.000 A 
ATOM     15  C   UNL     1       1.965  10.057  18.203  0.00  0.00    +0.000 A 
ATOM     16  C   UNL     1       2.277   8.745  17.836  0.00  0.00    +0.000 A 
ATOM     17  C   UNL     1       2.026   7.703  18.719  0.00  0.00    +0.000 A 
ATOM     18  C   UNL     1       1.498   7.981  19.980  0.00  0.00    +0.000 A 
ATOM     19  C   UNL     1       1.176   9.295  20.361  0.00  0.00    +0.000 A 
ATOM     20 BR   UNL     1       0.511   9.469  22.126  0.00  0.00    +0.000 Br
ENDBRANCH  11  14
ENDBRANCH   3  11
BRANCH   1  21
ATOM     21  C   UNL     1      -3.845  13.497  21.240  0.00  0.00    +0.000 C 
BRANCH  21  26
ATOM     22  C   UNL     1      -7.659  15.266  23.445  0.00  0.00    +0.000 C 
ATOM     23  N   UNL     1      -6.911  14.037  23.209  0.00  0.00    +0.000 NA
ATOM     24  C   UNL     1      -5.552  14.122  23.775  0.00  0.00    +0.000 C 
ATOM     25  C   UNL     1      -4.700  12.871  23.462  0.00  0.00    +0.000 C 
ATOM     26  N   UNL     1      -4.623  12.524  22.023  0.00  0.00    +0.000 NA
ATOM     27  C   UNL     1      -6.014  12.433  21.520  0.00  0.00    +0.000 C 
ATOM     28  C   UNL     1      -6.863  13.703  21.775  0.00  0.00    +0.000 C 
ENDBRANCH  21  26
ENDBRANCH   1  21
TORSDOF 4
ENDMDL
MODEL 3
REMARK VINA RESULT:      -6.7      2.706      7.383
REMARK  Name = 
REMARK  5 active torsions:
REMARK  status: ('A' for Active; 'I' for Inactive)
REMARK    1  A    between atoms: C_1  and  N_2
REMARK    2  A    between atoms: N_5  and  C_6
REMARK    3  A    between atoms: C_6  and  C_7
REMARK    4  A    between atoms: N_9  and  S_10
REMARK    5  A    between atoms: S_10  and  C_13
REMARK                            x       y       z     vdW  Elec       q    Type
REMARK                         _______ _______ _______ _____ _____    ______ ____
ROOT
ATOM      1  C   UNL     1       0.877   9.651  18.305  0.00  0.00    +0.000 A 
ATOM      2  C   UNL     1       1.429  10.614  19.126  0.00  0.00    +0.000 A 
ATOM      3  N   UNL     1       0.497  11.598  19.335  0.00  0.00    +0.000 N 
ATOM      4  C   UNL     1      -0.649  11.351  18.598  0.00  0.00    +0.000 A 
ATOM      5  C   UNL     1      -1.827  12.088  18.361  0.00  0.00    +0.000 A 
ATOM      6  C   UNL     1      -2.814  11.524  17.541  0.00  0.00    +0.000 A 
ATOM      7  C   UNL     1      -2.636  10.273  16.974  0.00  0.00    +0.000 A 
ATOM      8  F   UNL     1      -3.596   9.760  16.194  0.00  0.00    +0.000 F 
ATOM      9  C   UNL     1      -1.464   9.551  17.179  0.00  0.00    +0.000 A 
ATOM     10  C   UNL     1      -0.448  10.098  17.983  0.00  0.00    +0.000 A 
ENDROOT
BRANCH   3  11
ATOM     11  S   UNL     1       0.736  12.797  20.537  0.00  0.00    +0.000 S 
ATOM     12  O   UNL     1       1.913  12.362  21.268  0.00  0.00    +0.000 OA
ATOM     13  O   UNL     1       0.725  14.078  19.862  0.00  0.00    +0.000 OA
BRANCH  11  14
ATOM     14  C   UNL     1      -0.669  12.617  21.624  0.00  0.00    +0.000 A 
ATOM     15  C   UNL     1      -1.565  13.706  21.679  0.00  0.00    +0.000 A 
ATOM     16  C   UNL     1      -2.662  13.693  22.544  0.00  0.00    +0.000 A 
ATOM     17  C   UNL     1      -2.892  12.585  23.350  0.00  0.00    +0.000 A 
ATOM     18  C   UNL     1      -2.044  11.480  23.261  0.00  0.00    +0.000 A 
ATOM     19  C   UNL     1      -0.934  11.482  22.398  0.00  0.00    +0.000 A 
ATOM     20 BR   UNL     1       0.068   9.874  22.390  0.00  0.00    +0.000 Br
ENDBRANCH  11  14
ENDBRANCH   3  11
BRANCH   1  21
ATOM     21  C   UNL     1       1.570   8.410  17.822  0.00  0.00    +0.000 C 
BRANCH  21  26
ATOM     22  C   UNL     1       2.684   3.797  17.935  0.00  0.00    +0.000 C 
ATOM     23  N   UNL     1       3.068   5.105  18.453  0.00  0.00    +0.000 NA
ATOM     24  C   UNL     1       1.996   5.686  19.282  0.00  0.00    +0.000 C 
ATOM     25  C   UNL     1       2.333   7.113  19.771  0.00  0.00    +0.000 C 
ATOM     26  N   UNL     1       2.703   8.061  18.693  0.00  0.00    +0.000 NA
ATOM     27  C   UNL     1       3.794   7.431  17.912  0.00  0.00    +0.000 C 
ATOM     28  C   UNL     1       3.449   6.023  17.367  0.00  0.00    +0.000 C 
ENDBRANCH  21  26
ENDBRANCH   1  21
TORSDOF 4
ENDMDL
MODEL 4
REMARK VINA RESULT:      -6.7      5.603      8.205
REMARK  Name = 
REMARK  5 active torsions:
REMARK  status: ('A' for Active; 'I' for Inactive)
REMARK    1  A    between atoms: C_1  and  N_2
REMARK    2  A    between atoms: N_5  and  C_6
REMARK    3  A    between atoms: C_6  and  C_7
REMARK    4  A    between atoms: N_9  and  S_10
REMARK    5  A    between atoms: S_10  and  C_13
REMARK                            x       y       z     vdW  Elec       q    Type
REMARK                         _______ _______ _______ _____ _____    ______ ____
ROOT
ATOM      1  C   UNL     1       1.727   6.610  20.206  0.00  0.00    +0.000 A 
ATOM      2  C   UNL     1       2.592   6.923  19.177  0.00  0.00    +0.000 A 
ATOM      3  N   UNL     1       3.195   5.768  18.744  0.00  0.00    +0.000 N 
ATOM      4  C   UNL     1       2.808   4.693  19.526  0.00  0.00    +0.000 A 
ATOM      5  C   UNL     1       3.212   3.344  19.587  0.00  0.00    +0.000 A 
ATOM      6  C   UNL     1       2.594   2.503  20.523  0.00  0.00    +0.000 A 
ATOM      7  C   UNL     1       1.611   2.986  21.370  0.00  0.00    +0.000 A 
ATOM      8  F   UNL     1       1.039   2.159  22.256  0.00  0.00    +0.000 F 
ATOM      9  C   UNL     1       1.226   4.323  21.337  0.00  0.00    +0.000 A 
ATOM     10  C   UNL     1       1.840   5.195  20.420  0.00  0.00    +0.000 A 
ENDROOT
BRANCH   3  11
ATOM     11  S   UNL     1       4.102   5.739  17.290  0.00  0.00    +0.000 S 
ATOM     12  O   UNL     1       3.599   4.589  16.560  0.00  0.00    +0.000 OA
ATOM     13  O   UNL     1       4.017   7.066  16.714  0.00  0.00    +0.000 OA
BRANCH  11  14
ATOM     14  C   UNL     1       5.765   5.357  17.815  0.00  0.00    +0.000 A 
ATOM     15  C   UNL     1       6.108   5.728  19.133  0.00  0.00    +0.000 A 
ATOM     16  C   UNL     1       7.402   5.531  19.622  0.00  0.00    +0.000 A 
ATOM     17  C   UNL     1       8.364   4.942  18.811  0.00  0.00    +0.000 A 
ATOM     18  C   UNL     1       8.019   4.521  17.527  0.00  0.00    +0.000 A 
ATOM     19  C   UNL     1       6.721   4.717  17.020  0.00  0.00    +0.000 A 
ATOM     20 BR   UNL     1       6.439   4.037  15.275  0.00  0.00    +0.000 Br
ENDBRANCH  11  14
ENDBRANCH   3  11
BRANCH   1  21
ATOM     21  C   UNL     1       0.881   7.588  20.966  0.00  0.00    +0.000 C 
BRANCH  21  26
ATOM     22  C   UNL     1      -1.636  10.989  23.119  0.00  0.00    +0.000 C 
ATOM     23  N   UNL     1      -0.325  10.683  22.560  0.00  0.00    +0.000 NA
ATOM     24  C   UNL     1      -0.411  10.424  21.110  0.00  0.00    +0.000 C 
ATOM     25  C   UNL     1       0.948  10.005  20.502  0.00  0.00    +0.000 C 
ATOM     26  N   UNL     1       1.596   8.857  21.179  0.00  0.00    +0.000 NA
ATOM     27  C   UNL     1       1.671   9.185  22.622  0.00  0.00    +0.000 C 
ATOM     28  C   UNL     1       0.307   9.551  23.258  0.00  0.00    +0.000 C 
ENDBRANCH  21  26
ENDBRANCH   1  21
TORSDOF 4
ENDMDL
MODEL 5
REMARK VINA RESULT:      -6.5      1.037      1.505
REMARK  Name = 
REMARK  5 active torsions:
REMARK  status: ('A' for Active; 'I' for Inactive)
REMARK    1  A    between atoms: C_1  and  N_2
REMARK    2  A    between atoms: N_5  and  C_6
REMARK    3  A    between atoms: C_6  and  C_7
REMARK    4  A    between atoms: N_9  and  S_10
REMARK    5  A    between atoms: S_10  and  C_13
REMARK                            x       y       z     vdW  Elec       q    Type
REMARK                         _______ _______ _______ _____ _____    ______ ____
ROOT
ATOM      1  C   UNL     1      -2.886  12.654  20.918  0.00  0.00    +0.000 A 
ATOM      2  C   UNL     1      -1.528  12.589  21.157  0.00  0.00    +0.000 A 
ATOM      3  N   UNL     1      -0.908  12.105  20.032  0.00  0.00    +0.000 N 
ATOM      4  C   UNL     1      -1.841  11.764  19.068  0.00  0.00    +0.000 A 
ATOM      5  C   UNL     1      -1.751  11.127  17.815  0.00  0.00    +0.000 A 
ATOM      6  C   UNL     1      -2.927  10.936  17.076  0.00  0.00    +0.000 A 
ATOM      7  C   UNL     1      -4.150  11.360  17.568  0.00  0.00    +0.000 A 
ATOM      8  F   UNL     1      -5.258  11.162  16.841  0.00  0.00    +0.000 F 
ATOM      9  C   UNL     1      -4.253  11.964  18.817  0.00  0.00    +0.000 A 
ATOM     10  C   UNL     1      -3.092  12.155  19.589  0.00  0.00    +0.000 A 
ENDROOT
BRANCH   3  11
ATOM     11  S   UNL     1       0.797  12.171  19.869  0.00  0.00    +0.000 S 
ATOM     12  O   UNL     1       1.027  12.960  18.671  0.00  0.00    +0.000 OA
ATOM     13  O   UNL     1       1.326  12.607  21.145  0.00  0.00    +0.000 OA
BRANCH  11  14
ATOM     14  C   UNL     1       1.271  10.489  19.503  0.00  0.00    +0.000 A 
ATOM     15  C   UNL     1       1.826  10.256  18.227  0.00  0.00    +0.000 A 
ATOM     16  C   UNL     1       2.172   8.965  17.818  0.00  0.00    +0.000 A 
ATOM     17  C   UNL     1       1.989   7.895  18.683  0.00  0.00    +0.000 A 
ATOM     18  C   UNL     1       1.495   8.124  19.968  0.00  0.00    +0.000 A 
ATOM     19  C   UNL     1       1.139   9.416  20.391  0.00  0.00    +0.000 A 
ATOM     20 BR   UNL     1       0.529   9.525  22.181  0.00  0.00    +0.000 Br
ENDBRANCH  11  14
ENDBRANCH   3  11
BRANCH   1  21
ATOM     21  C   UNL     1      -3.925  13.118  21.896  0.00  0.00    +0.000 C 
BRANCH  21  26
ATOM     22  C   UNL     1      -4.446  16.720  24.944  0.00  0.00    +0.000 C 
ATOM     23  N   UNL     1      -4.742  16.289  23.583  0.00  0.00    +0.000 NA
ATOM     24  C   UNL     1      -5.634  15.115  23.577  0.00  0.00    +0.000 C 
ATOM     25  C   UNL     1      -5.893  14.575  22.152  0.00  0.00    +0.000 C 
ATOM     26  N   UNL     1      -4.667  14.277  21.375  0.00  0.00    +0.000 NA
ATOM     27  C   UNL     1      -3.825  15.497  21.401  0.00  0.00    +0.000 C 
ATOM     28  C   UNL     1      -3.509  16.016  22.825  0.00  0.00    +0.000 C 
ENDBRANCH  21  26
ENDBRANCH   1  21
TORSDOF 4
ENDMDL
MODEL 6
REMARK VINA RESULT:      -6.4      2.540      3.244
REMARK  Name = 
REMARK  5 active torsions:
REMARK  status: ('A' for Active; 'I' for Inactive)
REMARK    1  A    between atoms: C_1  and  N_2
REMARK    2  A    between atoms: N_5  and  C_6
REMARK    3  A    between atoms: C_6  and  C_7
REMARK    4  A    between atoms: N_9  and  S_10
REMARK    5  A    between atoms: S_10  and  C_13
REMARK                            x       y       z     vdW  Elec       q    Type
REMARK                         _______ _______ _______ _____ _____    ______ ____
ROOT
ATOM      1  C   UNL     1      -3.314  12.636  20.301  0.00  0.00    +0.000 A 
ATOM      2  C   UNL     1      -2.247  12.861  21.148  0.00  0.00    +0.000 A 
ATOM      3  N   UNL     1      -1.137  12.242  20.631  0.00  0.00    +0.000 N 
ATOM      4  C   UNL     1      -1.462  11.533  19.487  0.00  0.00    +0.000 A 
ATOM      5  C   UNL     1      -0.744  10.647  18.659  0.00  0.00    +0.000 A 
ATOM      6  C   UNL     1      -1.397  10.091  17.550  0.00  0.00    +0.000 A 
ATOM      7  C   UNL     1      -2.717  10.403  17.275  0.00  0.00    +0.000 A 
ATOM      8  F   UNL     1      -3.316   9.855  16.208  0.00  0.00    +0.000 F 
ATOM      9  C   UNL     1      -3.443  11.253  18.103  0.00  0.00    +0.000 A 
ATOM     10  C   UNL     1      -2.821  11.814  19.233  0.00  0.00    +0.000 A 
ENDROOT
BRANCH   3  11
ATOM     11  S   UNL     1       0.424  12.559  21.264  0.00  0.00    +0.000 S 
ATOM     12  O   UNL     1       0.195  13.443  22.394  0.00  0.00    +0.000 OA
ATOM     13  O   UNL     1       1.068  11.276  21.457  0.00  0.00    +0.000 OA
BRANCH  11  14
ATOM     14  C   UNL     1       1.232  13.514  19.989  0.00  0.00    +0.000 A 
ATOM     15  C   UNL     1       2.207  12.840  19.223  0.00  0.00    +0.000 A 
ATOM     16  C   UNL     1       2.941  13.513  18.243  0.00  0.00    +0.000 A 
ATOM     17  C   UNL     1       2.698  14.858  17.999  0.00  0.00    +0.000 A 
ATOM     18  C   UNL     1       1.696  15.517  18.712  0.00  0.00    +0.000 A 
ATOM     19  C   UNL     1       0.952  14.854  19.705  0.00  0.00    +0.000 A 
ATOM     20 BR   UNL     1      -0.389  15.908  20.528  0.00  0.00    +0.000 Br
ENDBRANCH  11  14
ENDBRANCH   3  11
BRANCH   1  21
ATOM     21  C   UNL     1      -4.715  13.129  20.508  0.00  0.00    +0.000 C 
BRANCH  21  26
ATOM     22  C   UNL     1      -7.916  15.584  23.011  0.00  0.00    +0.000 C 
ATOM     23  N   UNL     1      -7.311  14.266  22.861  0.00  0.00    +0.000 NA
ATOM     24  C   UNL     1      -5.867  14.305  23.158  0.00  0.00    +0.000 C 
ATOM     25  C   UNL     1      -5.175  12.943  22.919  0.00  0.00    +0.000 C 
ATOM     26  N   UNL     1      -5.395  12.371  21.570  0.00  0.00    +0.000 NA
ATOM     27  C   UNL     1      -6.859  12.339  21.341  0.00  0.00    +0.000 C 
ATOM     28  C   UNL     1      -7.557  13.710  21.520  0.00  0.00    +0.000 C 
ENDBRANCH  21  26
ENDBRANCH   1  21
TORSDOF 4
ENDMDL
MODEL 7
REMARK VINA RESULT:      -6.3      3.010      7.491
REMARK  Name = 
REMARK  5 active torsions:
REMARK  status: ('A' for Active; 'I' for Inactive)
REMARK    1  A    between atoms: C_1  and  N_2
REMARK    2  A    between atoms: N_5  and  C_6
REMARK    3  A    between atoms: C_6  and  C_7
REMARK    4  A    between atoms: N_9  and  S_10
REMARK    5  A    between atoms: S_10  and  C_13
REMARK                            x       y       z     vdW  Elec       q    Type
REMARK                         _______ _______ _______ _____ _____    ______ ____
ROOT
ATOM      1  C   UNL     1       0.901   9.699  18.264  0.00  0.00    +0.000 A 
ATOM      2  C   UNL     1       1.455  10.686  19.055  0.00  0.00    +0.000 A 
ATOM      3  N   UNL     1       0.522  11.676  19.237  0.00  0.00    +0.000 N 
ATOM      4  C   UNL     1      -0.625  11.406  18.511  0.00  0.00    +0.000 A 
ATOM      5  C   UNL     1      -1.805  12.134  18.255  0.00  0.00    +0.000 A 
ATOM      6  C   UNL     1      -2.794  11.545  17.455  0.00  0.00    +0.000 A 
ATOM      7  C   UNL     1      -2.616  10.279  16.925  0.00  0.00    +0.000 A 
ATOM      8  F   UNL     1      -3.578   9.741  16.163  0.00  0.00    +0.000 F 
ATOM      9  C   UNL     1      -1.443   9.564  17.148  0.00  0.00    +0.000 A 
ATOM     10  C   UNL     1      -0.425  10.135  17.933  0.00  0.00    +0.000 A 
ENDROOT
BRANCH   3  11
ATOM     11  S   UNL     1       0.762  12.910  20.403  0.00  0.00    +0.000 S 
ATOM     12  O   UNL     1       1.963  12.516  21.120  0.00  0.00    +0.000 OA
ATOM     13  O   UNL     1       0.714  14.173  19.696  0.00  0.00    +0.000 OA
BRANCH  11  14
ATOM     14  C   UNL     1      -0.616  12.732  21.524  0.00  0.00    +0.000 A 
ATOM     15  C   UNL     1      -0.634  11.565  22.317  0.00  0.00    +0.000 A 
ATOM     16  C   UNL     1      -1.700  11.299  23.181  0.00  0.00    +0.000 A 
ATOM     17  C   UNL     1      -2.749  12.204  23.282  0.00  0.00    +0.000 A 
ATOM     18  C   UNL     1      -2.711  13.388  22.545  0.00  0.00    +0.000 A 
ATOM     19  C   UNL     1      -1.647  13.666  21.668  0.00  0.00    +0.000 A 
ATOM     20 BR   UNL     1      -1.758  15.341  20.792  0.00  0.00    +0.000 Br
ENDBRANCH  11  14
ENDBRANCH   3  11
BRANCH   1  21
ATOM     21  C   UNL     1       1.594   8.446  17.817  0.00  0.00    +0.000 C 
BRANCH  21  26
ATOM     22  C   UNL     1       2.843   3.865  17.817  0.00  0.00    +0.000 C 
ATOM     23  N   UNL     1       3.167   5.165  18.394  0.00  0.00    +0.000 NA
ATOM     24  C   UNL     1       2.046   5.685  19.199  0.00  0.00    +0.000 C 
ATOM     25  C   UNL     1       2.320   7.104  19.749  0.00  0.00    +0.000 C 
ATOM     26  N   UNL     1       2.703   8.099  18.720  0.00  0.00    +0.000 NA
ATOM     27  C   UNL     1       3.842   7.529  17.962  0.00  0.00    +0.000 C 
ATOM     28  C   UNL     1       3.561   6.132  17.356  0.00  0.00    +0.000 C 
ENDBRANCH  21  26
ENDBRANCH   1  21
TORSDOF 4
ENDMDL
MODEL 8
REMARK VINA RESULT:      -6.3      4.529      9.765
REMARK  Name = 
REMARK  5 active torsions:
REMARK  status: ('A' for Active; 'I' for Inactive)
REMARK    1  A    between atoms: C_1  and  N_2
REMARK    2  A    between atoms: N_5  and  C_6
REMARK    3  A    between atoms: C_6  and  C_7
REMARK    4  A    between atoms: N_9  and  S_10
REMARK    5  A    between atoms: S_10  and  C_13
REMARK                            x       y       z     vdW  Elec       q    Type
REMARK                         _______ _______ _______ _____ _____    ______ ____
ROOT
ATOM      1  C   UNL     1       3.070   7.794  17.869  0.00  0.00    +0.000 A 
ATOM      2  C   UNL     1       2.587   9.075  17.697  0.00  0.00    +0.000 A 
ATOM      3  N   UNL     1       1.761   9.377  18.750  0.00  0.00    +0.000 N 
ATOM      4  C   UNL     1       1.616   8.285  19.587  0.00  0.00    +0.000 A 
ATOM      5  C   UNL     1       0.808   8.025  20.712  0.00  0.00    +0.000 A 
ATOM      6  C   UNL     1       0.918   6.777  21.341  0.00  0.00    +0.000 A 
ATOM      7  C   UNL     1       1.798   5.819  20.867  0.00  0.00    +0.000 A 
ATOM      8  F   UNL     1       1.882   4.634  21.487  0.00  0.00    +0.000 F 
ATOM      9  C   UNL     1       2.580   6.055  19.739  0.00  0.00    +0.000 A 
ATOM     10  C   UNL     1       2.479   7.292  19.077  0.00  0.00    +0.000 A 
ENDROOT
BRANCH   3  11
ATOM     11  S   UNL     1       1.222  10.983  19.014  0.00  0.00    +0.000 S 
ATOM     12  O   UNL     1       1.266  11.159  20.456  0.00  0.00    +0.000 OA
ATOM     13  O   UNL     1       2.007  11.839  18.149  0.00  0.00    +0.000 OA
BRANCH  11  14
ATOM     14  C   UNL     1      -0.496  10.958  18.528  0.00  0.00    +0.000 A 
ATOM     15  C   UNL     1      -0.898   9.888  17.700  0.00  0.00    +0.000 A 
ATOM     16  C   UNL     1      -2.205   9.808  17.212  0.00  0.00    +0.000 A 
ATOM     17  C   UNL     1      -3.132  10.782  17.560  0.00  0.00    +0.000 A 
ATOM     18  C   UNL     1      -2.759  11.811  18.424  0.00  0.00    +0.000 A 
ATOM     19  C   UNL     1      -1.446  11.906  18.920  0.00  0.00    +0.000 A 
ATOM     20 BR   UNL     1      -1.149  13.348  20.111  0.00  0.00    +0.000 Br
ENDBRANCH  11  14
ENDBRANCH   3  11
BRANCH   1  21
ATOM     21  C   UNL     1       3.997   7.075  16.934  0.00  0.00    +0.000 C 
BRANCH  21  26
ATOM     22  C   UNL     1       7.240   4.789  14.326  0.00  0.00    +0.000 C 
ATOM     23  N   UNL     1       6.599   4.813  15.636  0.00  0.00    +0.000 NA
ATOM     24  C   UNL     1       5.154   4.541  15.528  0.00  0.00    +0.000 C 
ATOM     25  C   UNL     1       4.427   4.651  16.888  0.00  0.00    +0.000 C 
ATOM     26  N   UNL     1       4.645   5.933  17.600  0.00  0.00    +0.000 NA
ATOM     27  C   UNL     1       6.109   6.138  17.694  0.00  0.00    +0.000 C 
ATOM     28  C   UNL     1       6.843   6.088  16.331  0.00  0.00    +0.000 C 
ENDBRANCH  21  26
ENDBRANCH   1  21
TORSDOF 4
ENDMDL
MODEL 9
REMARK VINA RESULT:      -6.3      3.578      7.690
REMARK  Name = 
REMARK  5 active torsions:
REMARK  status: ('A' for Active; 'I' for Inactive)
REMARK    1  A    between atoms: C_1  and  N_2
REMARK    2  A    between atoms: N_5  and  C_6
REMARK    3  A    between atoms: C_6  and  C_7
REMARK    4  A    between atoms: N_9  and  S_10
REMARK    5  A    between atoms: S_10  and  C_13
REMARK                            x       y       z     vdW  Elec       q    Type
REMARK                         _______ _______ _______ _____ _____    ______ ____
ROOT
ATOM      1  C   UNL     1       0.818   9.619  18.366  0.00  0.00    +0.000 A 
ATOM      2  C   UNL     1       1.287  10.515  19.305  0.00  0.00    +0.000 A 
ATOM      3  N   UNL     1       0.316  11.456  19.537  0.00  0.00    +0.000 N 
ATOM      4  C   UNL     1      -0.771  11.252  18.705  0.00  0.00    +0.000 A 
ATOM      5  C   UNL     1      -1.951  11.981  18.455  0.00  0.00    +0.000 A 
ATOM      6  C   UNL     1      -2.867  11.472  17.524  0.00  0.00    +0.000 A 
ATOM      7  C   UNL     1      -2.617  10.282  16.861  0.00  0.00    +0.000 A 
ATOM      8  F   UNL     1      -3.509   9.821  15.974  0.00  0.00    +0.000 F 
ATOM      9  C   UNL     1      -1.441   9.570  17.079  0.00  0.00    +0.000 A 
ATOM     10  C   UNL     1      -0.495  10.064  17.996  0.00  0.00    +0.000 A 
ENDROOT
BRANCH   3  11
ATOM     11  S   UNL     1       0.442  12.545  20.855  0.00  0.00    +0.000 S 
ATOM     12  O   UNL     1      -0.666  12.201  21.730  0.00  0.00    +0.000 OA
ATOM     13  O   UNL     1       1.806  12.468  21.336  0.00  0.00    +0.000 OA
BRANCH  11  14
ATOM     14  C   UNL     1       0.087  14.143  20.142  0.00  0.00    +0.000 A 
ATOM     15  C   UNL     1      -1.034  14.827  20.659  0.00  0.00    +0.000 A 
ATOM     16  C   UNL     1      -1.434  16.056  20.128  0.00  0.00    +0.000 A 
ATOM     17  C   UNL     1      -0.710  16.628  19.090  0.00  0.00    +0.000 A 
ATOM     18  C   UNL     1       0.432  15.987  18.611  0.00  0.00    +0.000 A 
ATOM     19  C   UNL     1       0.845  14.748  19.134  0.00  0.00    +0.000 A 
ATOM     20 BR   UNL     1       2.442  14.062  18.382  0.00  0.00    +0.000 Br
ENDBRANCH  11  14
ENDBRANCH   3  11
BRANCH   1  21
ATOM     21  C   UNL     1       1.575   8.443  17.823  0.00  0.00    +0.000 C 
BRANCH  21  26
ATOM     22  C   UNL     1       2.957   3.911  17.517  0.00  0.00    +0.000 C 
ATOM     23  N   UNL     1       3.234   5.175  18.189  0.00  0.00    +0.000 NA
ATOM     24  C   UNL     1       2.087   5.605  19.011  0.00  0.00    +0.000 C 
ATOM     25  C   UNL     1       2.313   6.987  19.666  0.00  0.00    +0.000 C 
ATOM     26  N   UNL     1       2.681   8.064  18.716  0.00  0.00    +0.000 NA
ATOM     27  C   UNL     1       3.846   7.582  17.938  0.00  0.00    +0.000 C 
ATOM     28  C   UNL     1       3.615   6.224  17.229  0.00  0.00    +0.000 C 
ENDBRANCH  21  26
ENDBRANCH   1  21
TORSDOF 4
ENDMDL
