MODEL 1
REMARK VINA RESULT:      -7.6      0.000      0.000
REMARK  Name = 
REMARK  10 active torsions:
REMARK  status: ('A' for Active; 'I' for Inactive)
REMARK    1  A    between atoms: C_1  and  C_2
REMARK    2  A    between atoms: C_5  and  C_6
REMARK    3  A    between atoms: C_6  and  C_7
REMARK    4  A    between atoms: C_6  and  C_8
REMARK    5  A    between atoms: C_6  and  N_9
REMARK    6  A    between atoms: N_9  and  C_10
REMARK    7  A    between atoms: C_10  and  C_11
REMARK    8  A    between atoms: N_13  and  C_14
REMARK    9  A    between atoms: C_18  and  C_19
REMARK   10  A    between atoms: N_21  and  C_22
REMARK                            x       y       z     vdW  Elec       q    Type
REMARK                         _______ _______ _______ _____ _____    ______ ____
ROOT
ATOM      1  C   UNL     1       1.753   4.865  20.723  0.00  0.00    +0.000 C 
ATOM      2  O   UNL     1       0.574   4.713  20.405  0.00  0.00    +0.000 OA
ATOM      3  N   UNL     1       2.458   6.064  20.704  0.00  0.00    +0.000 N 
ATOM      4  H   UNL     1       3.468   6.007  20.758  0.00  0.00    +0.000 HD
ENDROOT
BRANCH   3   5
ATOM      5  C   UNL     1       1.901   7.329  20.416  0.00  0.00    +0.000 A 
ATOM      6  C   UNL     1       1.994   7.914  19.154  0.00  0.00    +0.000 A 
ATOM      7  C   UNL     1       1.447   9.171  18.897  0.00  0.00    +0.000 A 
ATOM      8  C   UNL     1       0.799   9.865  19.913  0.00  0.00    +0.000 A 
ATOM      9  C   UNL     1       0.701   9.300  21.191  0.00  0.00    +0.000 A 
ATOM     10  C   UNL     1       1.221   8.016  21.434  0.00  0.00    +0.000 A 
BRANCH   9  11
ATOM     11  C   UNL     1       0.046  10.046  22.305  0.00  0.00    +0.000 C 
ATOM     12  O   UNL     1       0.376   9.826  23.468  0.00  0.00    +0.000 OA
ATOM     13  N   UNL     1      -0.901  10.981  21.928  0.00  0.00    +0.000 N 
ATOM     14  H   UNL     1      -1.031  11.189  20.945  0.00  0.00    +0.000 HD
BRANCH  13  15
ATOM     15  C   UNL     1      -1.640  11.762  22.866  0.00  0.00    +0.000 C 
ATOM     16  C   UNL     1      -1.295  13.201  23.122  0.00  0.00    +0.000 C 
ATOM     17  C   UNL     1      -2.558  12.857  22.389  0.00  0.00    +0.000 C 
ENDBRANCH  13  15
ENDBRANCH   9  11
ENDBRANCH   3   5
BRANCH   1  18
ATOM     18  C   UNL     1       2.589   3.650  21.135  0.00  0.00    +0.000 C 
BRANCH  18  19
ATOM     19  N   UNL     1       2.532   2.668  20.039  0.00  0.00    +0.000 NA
ATOM     20  H   UNL     1       2.171   1.792  20.432  0.00  0.00    +0.000 HD
BRANCH  19  21
ATOM     21  C   UNL     1       3.833   2.399  19.379  0.00  0.00    +0.000 C 
ATOM     22  C   UNL     1       3.636   1.330  18.283  0.00  0.00    +0.000 C 
ATOM     23  C   UNL     1       4.759   1.790  20.457  0.00  0.00    +0.000 C 
BRANCH  21  28
ATOM     24  C   UNL     1       5.091   6.746  16.498  0.00  0.00    +0.000 C 
ATOM     25  C   UNL     1       5.056   5.620  17.466  0.00  0.00    +0.000 A 
ATOM     26  C   UNL     1       5.951   5.285  18.458  0.00  0.00    +0.000 A 
ATOM     27  N   UNL     1       5.631   4.167  19.199  0.00  0.00    +0.000 NA
ATOM     28  C   UNL     1       4.486   3.655  18.787  0.00  0.00    +0.000 A 
ATOM     29  S   UNL     1       3.767   4.494  17.454  0.00  0.00    +0.000 S 
ENDBRANCH  21  28
ENDBRANCH  19  21
ENDBRANCH  18  19
ENDBRANCH   1  18
TORSDOF 7
ENDMDL
MODEL 2
REMARK VINA RESULT:      -7.6      5.788      8.861
REMARK  Name = 
REMARK  10 active torsions:
REMARK  status: ('A' for Active; 'I' for Inactive)
REMARK    1  A    between atoms: C_1  and  C_2
REMARK    2  A    between atoms: C_5  and  C_6
REMARK    3  A    between atoms: C_6  and  C_7
REMARK    4  A    between atoms: C_6  and  C_8
REMARK    5  A    between atoms: C_6  and  N_9
REMARK    6  A    between atoms: N_9  and  C_10
REMARK    7  A    between atoms: C_10  and  C_11
REMARK    8  A    between atoms: N_13  and  C_14
REMARK    9  A    between atoms: C_18  and  C_19
REMARK   10  A    between atoms: N_21  and  C_22
REMARK                            x       y       z     vdW  Elec       q    Type
REMARK                         _______ _______ _______ _____ _____    ______ ____
ROOT
ATOM      1  C   UNL     1       7.852   8.089  17.895  0.00  0.00    +0.000 C 
ATOM      2  O   UNL     1       8.377   7.346  18.723  0.00  0.00    +0.000 OA
ATOM      3  N   UNL     1       6.861   7.733  16.987  0.00  0.00    +0.000 N 
ATOM      4  H   UNL     1       6.691   8.365  16.214  0.00  0.00    +0.000 HD
ENDROOT
BRANCH   3   5
ATOM      5  C   UNL     1       6.216   6.476  16.939  0.00  0.00    +0.000 A 
ATOM      6  C   UNL     1       6.713   5.412  16.187  0.00  0.00    +0.000 A 
ATOM      7  C   UNL     1       6.051   4.186  16.146  0.00  0.00    +0.000 A 
ATOM      8  C   UNL     1       4.871   4.011  16.860  0.00  0.00    +0.000 A 
ATOM      9  C   UNL     1       4.349   5.069  17.615  0.00  0.00    +0.000 A 
ATOM     10  C   UNL     1       5.041   6.291  17.684  0.00  0.00    +0.000 A 
BRANCH   9  11
ATOM     11  C   UNL     1       3.062   4.915  18.355  0.00  0.00    +0.000 C 
ATOM     12  O   UNL     1       1.996   5.095  17.773  0.00  0.00    +0.000 OA
ATOM     13  N   UNL     1       3.173   4.543  19.683  0.00  0.00    +0.000 N 
ATOM     14  H   UNL     1       4.081   4.298  20.057  0.00  0.00    +0.000 HD
BRANCH  13  15
ATOM     15  C   UNL     1       2.044   4.378  20.541  0.00  0.00    +0.000 C 
ATOM     16  C   UNL     1       1.191   3.144  20.472  0.00  0.00    +0.000 C 
ATOM     17  C   UNL     1       2.080   3.368  21.659  0.00  0.00    +0.000 C 
ENDBRANCH  13  15
ENDBRANCH   9  11
ENDBRANCH   3   5
BRANCH   1  18
ATOM     18  C   UNL     1       8.330   9.538  17.767  0.00  0.00    +0.000 C 
BRANCH  18  19
ATOM     19  N   UNL     1       9.071   9.881  18.993  0.00  0.00    +0.000 NA
ATOM     20  H   UNL     1       8.442   9.719  19.785  0.00  0.00    +0.000 HD
BRANCH  19  21
ATOM     21  C   UNL     1       9.565  11.278  19.048  0.00  0.00    +0.000 C 
ATOM     22  C   UNL     1       8.932  12.088  17.896  0.00  0.00    +0.000 C 
ATOM     23  C   UNL     1      11.088  11.221  18.790  0.00  0.00    +0.000 C 
BRANCH  21  28
ATOM     24  C   UNL     1       9.041  14.745  23.108  0.00  0.00    +0.000 C 
ATOM     25  C   UNL     1       9.072  13.546  22.234  0.00  0.00    +0.000 A 
ATOM     26  C   UNL     1       8.745  12.239  22.522  0.00  0.00    +0.000 A 
ATOM     27  N   UNL     1       8.880  11.345  21.481  0.00  0.00    +0.000 NA
ATOM     28  C   UNL     1       9.296  11.967  20.393  0.00  0.00    +0.000 A 
ATOM     29  S   UNL     1       9.573  13.662  20.601  0.00  0.00    +0.000 S 
ENDBRANCH  21  28
ENDBRANCH  19  21
ENDBRANCH  18  19
ENDBRANCH   1  18
TORSDOF 7
ENDMDL
MODEL 3
REMARK VINA RESULT:      -7.3      3.360      4.565
REMARK  Name = 
REMARK  10 active torsions:
REMARK  status: ('A' for Active; 'I' for Inactive)
REMARK    1  A    between atoms: C_1  and  C_2
REMARK    2  A    between atoms: C_5  and  C_6
REMARK    3  A    between atoms: C_6  and  C_7
REMARK    4  A    between atoms: C_6  and  C_8
REMARK    5  A    between atoms: C_6  and  N_9
REMARK    6  A    between atoms: N_9  and  C_10
REMARK    7  A    between atoms: C_10  and  C_11
REMARK    8  A    between atoms: N_13  and  C_14
REMARK    9  A    between atoms: C_18  and  C_19
REMARK   10  A    between atoms: N_21  and  C_22
REMARK                            x       y       z     vdW  Elec       q    Type
REMARK                         _______ _______ _______ _____ _____    ______ ____
ROOT
ATOM      1  C   UNL     1       3.207   6.374  17.816  0.00  0.00    +0.000 C 
ATOM      2  O   UNL     1       2.458   5.482  18.212  0.00  0.00    +0.000 OA
ATOM      3  N   UNL     1       3.053   7.737  18.050  0.00  0.00    +0.000 N 
ATOM      4  H   UNL     1       3.597   8.369  17.476  0.00  0.00    +0.000 HD
ENDROOT
BRANCH   3   5
ATOM      5  C   UNL     1       2.060   8.313  18.874  0.00  0.00    +0.000 A 
ATOM      6  C   UNL     1       1.911   7.965  20.216  0.00  0.00    +0.000 A 
ATOM      7  C   UNL     1       0.915   8.538  21.005  0.00  0.00    +0.000 A 
ATOM      8  C   UNL     1       0.045   9.470  20.452  0.00  0.00    +0.000 A 
ATOM      9  C   UNL     1       0.170   9.828  19.104  0.00  0.00    +0.000 A 
ATOM     10  C   UNL     1       1.200   9.276  18.323  0.00  0.00    +0.000 A 
BRANCH   9  11
ATOM     11  C   UNL     1      -0.780  10.796  18.482  0.00  0.00    +0.000 C 
ATOM     12  O   UNL     1      -0.944  11.904  18.985  0.00  0.00    +0.000 OA
ATOM     13  N   UNL     1      -1.409  10.364  17.327  0.00  0.00    +0.000 N 
ATOM     14  H   UNL     1      -1.132   9.485  16.909  0.00  0.00    +0.000 HD
BRANCH  13  15
ATOM     15  C   UNL     1      -2.366  11.154  16.621  0.00  0.00    +0.000 C 
ATOM     16  C   UNL     1      -2.939  10.692  15.312  0.00  0.00    +0.000 C 
ATOM     17  C   UNL     1      -3.804  10.711  16.538  0.00  0.00    +0.000 C 
ENDBRANCH  13  15
ENDBRANCH   9  11
ENDBRANCH   3   5
BRANCH   1  18
ATOM     18  C   UNL     1       4.409   6.019  16.937  0.00  0.00    +0.000 C 
BRANCH  18  19
ATOM     19  N   UNL     1       5.471   5.493  17.810  0.00  0.00    +0.000 NA
ATOM     20  H   UNL     1       5.489   6.074  18.654  0.00  0.00    +0.000 HD
BRANCH  19  21
ATOM     21  C   UNL     1       6.824   5.482  17.204  0.00  0.00    +0.000 C 
ATOM     22  C   UNL     1       7.743   4.552  18.026  0.00  0.00    +0.000 C 
ATOM     23  C   UNL     1       7.381   6.918  17.337  0.00  0.00    +0.000 C 
BRANCH  21  28
ATOM     24  C   UNL     1       5.923   3.171  12.447  0.00  0.00    +0.000 C 
ATOM     25  C   UNL     1       6.420   4.000  13.574  0.00  0.00    +0.000 A 
ATOM     26  C   UNL     1       7.390   4.978  13.586  0.00  0.00    +0.000 A 
ATOM     27  N   UNL     1       7.625   5.573  14.808  0.00  0.00    +0.000 NA
ATOM     28  C   UNL     1       6.827   5.063  15.728  0.00  0.00    +0.000 A 
ATOM     29  S   UNL     1       5.779   3.812  15.151  0.00  0.00    +0.000 S 
ENDBRANCH  21  28
ENDBRANCH  19  21
ENDBRANCH  18  19
ENDBRANCH   1  18
TORSDOF 7
ENDMDL
MODEL 4
REMARK VINA RESULT:      -7.3      0.912      1.070
REMARK  Name = 
REMARK  10 active torsions:
REMARK  status: ('A' for Active; 'I' for Inactive)
REMARK    1  A    between atoms: C_1  and  C_2
REMARK    2  A    between atoms: C_5  and  C_6
REMARK    3  A    between atoms: C_6  and  C_7
REMARK    4  A    between atoms: C_6  and  C_8
REMARK    5  A    between atoms: C_6  and  N_9
REMARK    6  A    between atoms: N_9  and  C_10
REMARK    7  A    between atoms: C_10  and  C_11
REMARK    8  A    between atoms: N_13  and  C_14
REMARK    9  A    between atoms: C_18  and  C_19
REMARK   10  A    between atoms: N_21  and  C_22
REMARK                            x       y       z     vdW  Elec       q    Type
REMARK                         _______ _______ _______ _____ _____    ______ ____
ROOT
ATOM      1  C   UNL     1       1.940   5.343  20.536  0.00  0.00    +0.000 C 
ATOM      2  O   UNL     1       0.734   5.102  20.505  0.00  0.00    +0.000 OA
ATOM      3  N   UNL     1       2.532   6.585  20.335  0.00  0.00    +0.000 N 
ATOM      4  H   UNL     1       3.528   6.599  20.153  0.00  0.00    +0.000 HD
ENDROOT
BRANCH   3   5
ATOM      5  C   UNL     1       1.832   7.801  20.165  0.00  0.00    +0.000 A 
ATOM      6  C   UNL     1       1.714   8.425  18.924  0.00  0.00    +0.000 A 
ATOM      7  C   UNL     1       1.029   9.631  18.784  0.00  0.00    +0.000 A 
ATOM      8  C   UNL     1       0.454  10.235  19.897  0.00  0.00    +0.000 A 
ATOM      9  C   UNL     1       0.568   9.630  21.155  0.00  0.00    +0.000 A 
ATOM     10  C   UNL     1       1.226   8.394  21.284  0.00  0.00    +0.000 A 
BRANCH   9  11
ATOM     11  C   UNL     1      -0.007  10.281  22.368  0.00  0.00    +0.000 C 
ATOM     12  O   UNL     1       0.264   9.846  23.484  0.00  0.00    +0.000 OA
ATOM     13  N   UNL     1      -0.812  11.383  22.136  0.00  0.00    +0.000 N 
ATOM     14  H   UNL     1      -0.890  11.751  21.196  0.00  0.00    +0.000 HD
BRANCH  13  15
ATOM     15  C   UNL     1      -1.460  12.106  23.181  0.00  0.00    +0.000 C 
ATOM     16  C   UNL     1      -2.195  13.386  22.900  0.00  0.00    +0.000 C 
ATOM     17  C   UNL     1      -2.965  12.148  23.256  0.00  0.00    +0.000 C 
ENDBRANCH  13  15
ENDBRANCH   9  11
ENDBRANCH   3   5
BRANCH   1  18
ATOM     18  C   UNL     1       2.935   4.201  20.760  0.00  0.00    +0.000 C 
BRANCH  18  19
ATOM     19  N   UNL     1       2.557   3.089  19.872  0.00  0.00    +0.000 NA
ATOM     20  H   UNL     1       2.856   2.220  20.326  0.00  0.00    +0.000 HD
BRANCH  19  21
ATOM     21  C   UNL     1       3.150   3.151  18.514  0.00  0.00    +0.000 C 
ATOM     22  C   UNL     1       2.071   3.608  17.508  0.00  0.00    +0.000 C 
ATOM     23  C   UNL     1       3.550   1.706  18.138  0.00  0.00    +0.000 C 
BRANCH  21  28
ATOM     24  C   UNL     1       6.706   6.996  17.353  0.00  0.00    +0.000 C 
ATOM     25  C   UNL     1       5.992   5.808  17.885  0.00  0.00    +0.000 A 
ATOM     26  C   UNL     1       6.421   4.852  18.779  0.00  0.00    +0.000 A 
ATOM     27  N   UNL     1       5.510   3.861  19.078  0.00  0.00    +0.000 NA
ATOM     28  C   UNL     1       4.380   4.065  18.427  0.00  0.00    +0.000 A 
ATOM     29  S   UNL     1       4.390   5.455  17.396  0.00  0.00    +0.000 S 
ENDBRANCH  21  28
ENDBRANCH  19  21
ENDBRANCH  18  19
ENDBRANCH   1  18
TORSDOF 7
ENDMDL
MODEL 5
REMARK VINA RESULT:      -7.3      0.942      1.025
REMARK  Name = 
REMARK  10 active torsions:
REMARK  status: ('A' for Active; 'I' for Inactive)
REMARK    1  A    between atoms: C_1  and  C_2
REMARK    2  A    between atoms: C_5  and  C_6
REMARK    3  A    between atoms: C_6  and  C_7
REMARK    4  A    between atoms: C_6  and  C_8
REMARK    5  A    between atoms: C_6  and  N_9
REMARK    6  A    between atoms: N_9  and  C_10
REMARK    7  A    between atoms: C_10  and  C_11
REMARK    8  A    between atoms: N_13  and  C_14
REMARK    9  A    between atoms: C_18  and  C_19
REMARK   10  A    between atoms: N_21  and  C_22
REMARK                            x       y       z     vdW  Elec       q    Type
REMARK                         _______ _______ _______ _____ _____    ______ ____
ROOT
ATOM      1  C   UNL     1       1.673   5.156  20.608  0.00  0.00    +0.000 C 
ATOM      2  O   UNL     1       0.451   5.040  20.515  0.00  0.00    +0.000 OA
ATOM      3  N   UNL     1       2.401   6.327  20.431  0.00  0.00    +0.000 N 
ATOM      4  H   UNL     1       3.401   6.236  20.301  0.00  0.00    +0.000 HD
ENDROOT
BRANCH   3   5
ATOM      5  C   UNL     1       1.841   7.607  20.217  0.00  0.00    +0.000 A 
ATOM      6  C   UNL     1       1.875   8.236  18.973  0.00  0.00    +0.000 A 
ATOM      7  C   UNL     1       1.327   9.505  18.790  0.00  0.00    +0.000 A 
ATOM      8  C   UNL     1       0.738  10.167  19.862  0.00  0.00    +0.000 A 
ATOM      9  C   UNL     1       0.701   9.557  21.122  0.00  0.00    +0.000 A 
ATOM     10  C   UNL     1       1.220   8.262  21.292  0.00  0.00    +0.000 A 
BRANCH   9  11
ATOM     11  C   UNL     1       0.111  10.267  22.294  0.00  0.00    +0.000 C 
ATOM     12  O   UNL     1       0.340   9.867  23.433  0.00  0.00    +0.000 OA
ATOM     13  N   UNL     1      -0.659  11.378  21.999  0.00  0.00    +0.000 N 
ATOM     14  H   UNL     1      -0.703  11.714  21.045  0.00  0.00    +0.000 HD
BRANCH  13  15
ATOM     15  C   UNL     1      -1.318  12.156  22.999  0.00  0.00    +0.000 C 
ATOM     16  C   UNL     1      -2.089  13.393  22.638  0.00  0.00    +0.000 C 
ATOM     17  C   UNL     1      -2.822  12.164  23.087  0.00  0.00    +0.000 C 
ENDBRANCH  13  15
ENDBRANCH   9  11
ENDBRANCH   3   5
BRANCH   1  18
ATOM     18  C   UNL     1       2.530   3.919  20.891  0.00  0.00    +0.000 C 
BRANCH  18  19
ATOM     19  N   UNL     1       2.422   3.017  19.733  0.00  0.00    +0.000 NA
ATOM     20  H   UNL     1       2.077   2.116  20.079  0.00  0.00    +0.000 HD
BRANCH  19  21
ATOM     21  C   UNL     1       3.690   2.796  18.997  0.00  0.00    +0.000 C 
ATOM     22  C   UNL     1       3.472   1.711  17.920  0.00  0.00    +0.000 C 
ATOM     23  C   UNL     1       4.705   2.235  20.020  0.00  0.00    +0.000 C 
BRANCH  21  28
ATOM     24  C   UNL     1       6.748   6.906  17.403  0.00  0.00    +0.000 C 
ATOM     25  C   UNL     1       5.647   5.941  17.650  0.00  0.00    +0.000 A 
ATOM     26  C   UNL     1       4.346   5.958  17.197  0.00  0.00    +0.000 A 
ATOM     27  N   UNL     1       3.556   4.903  17.607  0.00  0.00    +0.000 NA
ATOM     28  C   UNL     1       4.254   4.073  18.359  0.00  0.00    +0.000 A 
ATOM     29  S   UNL     1       5.894   4.559  18.628  0.00  0.00    +0.000 S 
ENDBRANCH  21  28
ENDBRANCH  19  21
ENDBRANCH  18  19
ENDBRANCH   1  18
TORSDOF 7
ENDMDL
MODEL 6
REMARK VINA RESULT:      -7.2      5.794      8.924
REMARK  Name = 
REMARK  10 active torsions:
REMARK  status: ('A' for Active; 'I' for Inactive)
REMARK    1  A    between atoms: C_1  and  C_2
REMARK    2  A    between atoms: C_5  and  C_6
REMARK    3  A    between atoms: C_6  and  C_7
REMARK    4  A    between atoms: C_6  and  C_8
REMARK    5  A    between atoms: C_6  and  N_9
REMARK    6  A    between atoms: N_9  and  C_10
REMARK    7  A    between atoms: C_10  and  C_11
REMARK    8  A    between atoms: N_13  and  C_14
REMARK    9  A    between atoms: C_18  and  C_19
REMARK   10  A    between atoms: N_21  and  C_22
REMARK                            x       y       z     vdW  Elec       q    Type
REMARK                         _______ _______ _______ _____ _____    ______ ____
ROOT
ATOM      1  C   UNL     1       8.064   8.351  17.997  0.00  0.00    +0.000 C 
ATOM      2  O   UNL     1       8.570   7.645  18.868  0.00  0.00    +0.000 OA
ATOM      3  N   UNL     1       7.079   7.960  17.096  0.00  0.00    +0.000 N 
ATOM      4  H   UNL     1       6.926   8.555  16.290  0.00  0.00    +0.000 HD
ENDROOT
BRANCH   3   5
ATOM      5  C   UNL     1       6.419   6.711  17.105  0.00  0.00    +0.000 A 
ATOM      6  C   UNL     1       6.916   5.600  16.425  0.00  0.00    +0.000 A 
ATOM      7  C   UNL     1       6.240   4.382  16.439  0.00  0.00    +0.000 A 
ATOM      8  C   UNL     1       5.043   4.262  17.136  0.00  0.00    +0.000 A 
ATOM      9  C   UNL     1       4.519   5.367  17.819  0.00  0.00    +0.000 A 
ATOM     10  C   UNL     1       5.226   6.583  17.834  0.00  0.00    +0.000 A 
BRANCH   9  11
ATOM     11  C   UNL     1       3.215   5.271  18.538  0.00  0.00    +0.000 C 
ATOM     12  O   UNL     1       2.207   5.772  18.049  0.00  0.00    +0.000 OA
ATOM     13  N   UNL     1       3.238   4.576  19.735  0.00  0.00    +0.000 N 
ATOM     14  H   UNL     1       4.082   4.091  20.011  0.00  0.00    +0.000 HD
BRANCH  13  15
ATOM     15  C   UNL     1       2.086   4.413  20.561  0.00  0.00    +0.000 C 
ATOM     16  C   UNL     1       1.136   3.269  20.351  0.00  0.00    +0.000 C 
ATOM     17  C   UNL     1       2.022   3.288  21.562  0.00  0.00    +0.000 C 
ENDBRANCH  13  15
ENDBRANCH   9  11
ENDBRANCH   3   5
BRANCH   1  18
ATOM     18  C   UNL     1       8.562   9.785  17.801  0.00  0.00    +0.000 C 
BRANCH  18  19
ATOM     19  N   UNL     1       9.058  10.275  19.098  0.00  0.00    +0.000 NA
ATOM     20  H   UNL     1       8.242  10.429  19.698  0.00  0.00    +0.000 HD
BRANCH  19  21
ATOM     21  C   UNL     1       9.848  11.528  19.028  0.00  0.00    +0.000 C 
ATOM     22  C   UNL     1      10.729  11.504  17.760  0.00  0.00    +0.000 C 
ATOM     23  C   UNL     1      10.795  11.525  20.249  0.00  0.00    +0.000 C 
BRANCH  21  28
ATOM     24  C   UNL     1       7.069  15.910  20.390  0.00  0.00    +0.000 C 
ATOM     25  C   UNL     1       7.714  14.777  19.679  0.00  0.00    +0.000 A 
ATOM     26  C   UNL     1       7.681  14.444  18.343  0.00  0.00    +0.000 A 
ATOM     27  N   UNL     1       8.393  13.317  17.990  0.00  0.00    +0.000 NA
ATOM     28  C   UNL     1       8.982  12.795  19.050  0.00  0.00    +0.000 A 
ATOM     29  S   UNL     1       8.666  13.637  20.529  0.00  0.00    +0.000 S 
ENDBRANCH  21  28
ENDBRANCH  19  21
ENDBRANCH  18  19
ENDBRANCH   1  18
TORSDOF 7
ENDMDL
MODEL 7
REMARK VINA RESULT:      -7.1      6.321      9.390
REMARK  Name = 
REMARK  10 active torsions:
REMARK  status: ('A' for Active; 'I' for Inactive)
REMARK    1  A    between atoms: C_1  and  C_2
REMARK    2  A    between atoms: C_5  and  C_6
REMARK    3  A    between atoms: C_6  and  C_7
REMARK    4  A    between atoms: C_6  and  C_8
REMARK    5  A    between atoms: C_6  and  N_9
REMARK    6  A    between atoms: N_9  and  C_10
REMARK    7  A    between atoms: C_10  and  C_11
REMARK    8  A    between atoms: N_13  and  C_14
REMARK    9  A    between atoms: C_18  and  C_19
REMARK   10  A    between atoms: N_21  and  C_22
REMARK                            x       y       z     vdW  Elec       q    Type
REMARK                         _______ _______ _______ _____ _____    ______ ____
ROOT
ATOM      1  C   UNL     1       8.108   8.551  18.186  0.00  0.00    +0.000 C 
ATOM      2  O   UNL     1       7.393   9.052  17.318  0.00  0.00    +0.000 OA
ATOM      3  N   UNL     1       8.073   7.227  18.611  0.00  0.00    +0.000 N 
ATOM      4  H   UNL     1       8.539   7.009  19.483  0.00  0.00    +0.000 HD
ENDROOT
BRANCH   3   5
ATOM      5  C   UNL     1       7.278   6.210  18.037  0.00  0.00    +0.000 A 
ATOM      6  C   UNL     1       7.288   5.939  16.669  0.00  0.00    +0.000 A 
ATOM      7  C   UNL     1       6.485   4.938  16.125  0.00  0.00    +0.000 A 
ATOM      8  C   UNL     1       5.651   4.194  16.951  0.00  0.00    +0.000 A 
ATOM      9  C   UNL     1       5.618   4.455  18.327  0.00  0.00    +0.000 A 
ATOM     10  C   UNL     1       6.459   5.439  18.876  0.00  0.00    +0.000 A 
BRANCH   9  11
ATOM     11  C   UNL     1       4.699   3.695  19.225  0.00  0.00    +0.000 C 
ATOM     12  O   UNL     1       5.145   2.812  19.953  0.00  0.00    +0.000 OA
ATOM     13  N   UNL     1       3.369   4.075  19.184  0.00  0.00    +0.000 N 
ATOM     14  H   UNL     1       3.101   4.890  18.648  0.00  0.00    +0.000 HD
BRANCH  13  15
ATOM     15  C   UNL     1       2.354   3.436  19.958  0.00  0.00    +0.000 C 
ATOM     16  C   UNL     1       2.135   3.795  21.400  0.00  0.00    +0.000 C 
ATOM     17  C   UNL     1       1.120   4.196  20.370  0.00  0.00    +0.000 C 
ENDBRANCH  13  15
ENDBRANCH   9  11
ENDBRANCH   3   5
BRANCH   1  18
ATOM     18  C   UNL     1       9.110   9.429  18.941  0.00  0.00    +0.000 C 
BRANCH  18  19
ATOM     19  N   UNL     1       9.256  10.692  18.199  0.00  0.00    +0.000 NA
ATOM     20  H   UNL     1       9.696  10.469  17.301  0.00  0.00    +0.000 HD
BRANCH  19  21
ATOM     21  C   UNL     1      10.067  11.725  18.888  0.00  0.00    +0.000 C 
ATOM     22  C   UNL     1      11.562  11.488  18.580  0.00  0.00    +0.000 C 
ATOM     23  C   UNL     1       9.868  11.507  20.405  0.00  0.00    +0.000 C 
BRANCH  21  28
ATOM     24  C   UNL     1       9.966  16.900  17.478  0.00  0.00    +0.000 C 
ATOM     25  C   UNL     1       9.633  15.512  17.887  0.00  0.00    +0.000 A 
ATOM     26  C   UNL     1       8.406  14.942  18.143  0.00  0.00    +0.000 A 
ATOM     27  N   UNL     1       8.428  13.612  18.507  0.00  0.00    +0.000 NA
ATOM     28  C   UNL     1       9.668  13.160  18.517  0.00  0.00    +0.000 A 
ATOM     29  S   UNL     1      10.864  14.345  18.116  0.00  0.00    +0.000 S 
ENDBRANCH  21  28
ENDBRANCH  19  21
ENDBRANCH  18  19
ENDBRANCH   1  18
TORSDOF 7
ENDMDL
MODEL 8
REMARK VINA RESULT:      -7.1      2.724      3.529
REMARK  Name = 
REMARK  10 active torsions:
REMARK  status: ('A' for Active; 'I' for Inactive)
REMARK    1  A    between atoms: C_1  and  C_2
REMARK    2  A    between atoms: C_5  and  C_6
REMARK    3  A    between atoms: C_6  and  C_7
REMARK    4  A    between atoms: C_6  and  C_8
REMARK    5  A    between atoms: C_6  and  N_9
REMARK    6  A    between atoms: N_9  and  C_10
REMARK    7  A    between atoms: C_10  and  C_11
REMARK    8  A    between atoms: N_13  and  C_14
REMARK    9  A    between atoms: C_18  and  C_19
REMARK   10  A    between atoms: N_21  and  C_22
REMARK                            x       y       z     vdW  Elec       q    Type
REMARK                         _______ _______ _______ _____ _____    ______ ____
ROOT
ATOM      1  C   UNL     1       2.248   7.002  19.930  0.00  0.00    +0.000 C 
ATOM      2  O   UNL     1       2.498   7.718  18.961  0.00  0.00    +0.000 OA
ATOM      3  N   UNL     1       1.501   7.365  21.046  0.00  0.00    +0.000 N 
ATOM      4  H   UNL     1       1.573   6.772  21.864  0.00  0.00    +0.000 HD
ENDROOT
BRANCH   3   5
ATOM      5  C   UNL     1       0.815   8.590  21.200  0.00  0.00    +0.000 A 
ATOM      6  C   UNL     1       0.511   9.121  22.453  0.00  0.00    +0.000 A 
ATOM      7  C   UNL     1      -0.179  10.325  22.579  0.00  0.00    +0.000 A 
ATOM      8  C   UNL     1      -0.581  11.016  21.442  0.00  0.00    +0.000 A 
ATOM      9  C   UNL     1      -0.294  10.497  20.173  0.00  0.00    +0.000 A 
ATOM     10  C   UNL     1       0.436   9.302  20.051  0.00  0.00    +0.000 A 
BRANCH   9  11
ATOM     11  C   UNL     1      -0.753  11.202  18.940  0.00  0.00    +0.000 C 
ATOM     12  O   UNL     1      -0.140  12.185  18.533  0.00  0.00    +0.000 OA
ATOM     13  N   UNL     1      -1.860  10.658  18.313  0.00  0.00    +0.000 N 
ATOM     14  H   UNL     1      -2.236   9.778  18.643  0.00  0.00    +0.000 HD
BRANCH  13  15
ATOM     15  C   UNL     1      -2.444  11.223  17.140  0.00  0.00    +0.000 C 
ATOM     16  C   UNL     1      -2.613  10.410  15.888  0.00  0.00    +0.000 C 
ATOM     17  C   UNL     1      -3.819  10.795  16.694  0.00  0.00    +0.000 C 
ENDBRANCH  13  15
ENDBRANCH   9  11
ENDBRANCH   3   5
BRANCH   1  18
ATOM     18  C   UNL     1       2.831   5.587  19.996  0.00  0.00    +0.000 C 
BRANCH  18  19
ATOM     19  N   UNL     1       2.903   5.061  18.623  0.00  0.00    +0.000 NA
ATOM     20  H   UNL     1       2.095   4.444  18.489  0.00  0.00    +0.000 HD
BRANCH  19  21
ATOM     21  C   UNL     1       4.141   4.307  18.312  0.00  0.00    +0.000 C 
ATOM     22  C   UNL     1       4.002   3.653  16.919  0.00  0.00    +0.000 C 
ATOM     23  C   UNL     1       4.238   3.166  19.350  0.00  0.00    +0.000 C 
BRANCH  21  28
ATOM     24  C   UNL     1       7.972   7.989  17.575  0.00  0.00    +0.000 C 
ATOM     25  C   UNL     1       7.149   6.836  18.022  0.00  0.00    +0.000 A 
ATOM     26  C   UNL     1       7.426   5.870  18.963  0.00  0.00    +0.000 A 
ATOM     27  N   UNL     1       6.444   4.921  19.154  0.00  0.00    +0.000 NA
ATOM     28  C   UNL     1       5.410   5.167  18.371  0.00  0.00    +0.000 A 
ATOM     29  S   UNL     1       5.604   6.547  17.344  0.00  0.00    +0.000 S 
ENDBRANCH  21  28
ENDBRANCH  19  21
ENDBRANCH  18  19
ENDBRANCH   1  18
TORSDOF 7
ENDMDL
MODEL 9
REMARK VINA RESULT:      -7.1      4.264      8.747
REMARK  Name = 
REMARK  10 active torsions:
REMARK  status: ('A' for Active; 'I' for Inactive)
REMARK    1  A    between atoms: C_1  and  C_2
REMARK    2  A    between atoms: C_5  and  C_6
REMARK    3  A    between atoms: C_6  and  C_7
REMARK    4  A    between atoms: C_6  and  C_8
REMARK    5  A    between atoms: C_6  and  N_9
REMARK    6  A    between atoms: N_9  and  C_10
REMARK    7  A    between atoms: C_10  and  C_11
REMARK    8  A    between atoms: N_13  and  C_14
REMARK    9  A    between atoms: C_18  and  C_19
REMARK   10  A    between atoms: N_21  and  C_22
REMARK                            x       y       z     vdW  Elec       q    Type
REMARK                         _______ _______ _______ _____ _____    ______ ____
ROOT
ATOM      1  C   UNL     1       5.308   3.544  18.864  0.00  0.00    +0.000 C 
ATOM      2  O   UNL     1       6.164   4.300  19.321  0.00  0.00    +0.000 OA
ATOM      3  N   UNL     1       5.005   3.368  17.518  0.00  0.00    +0.000 N 
ATOM      4  H   UNL     1       4.132   2.905  17.296  0.00  0.00    +0.000 HD
ENDROOT
BRANCH   3   5
ATOM      5  C   UNL     1       5.708   3.957  16.443  0.00  0.00    +0.000 A 
ATOM      6  C   UNL     1       6.581   5.030  16.622  0.00  0.00    +0.000 A 
ATOM      7  C   UNL     1       7.254   5.602  15.544  0.00  0.00    +0.000 A 
ATOM      8  C   UNL     1       7.055   5.105  14.261  0.00  0.00    +0.000 A 
ATOM      9  C   UNL     1       6.177   4.033  14.056  0.00  0.00    +0.000 A 
ATOM     10  C   UNL     1       5.531   3.435  15.152  0.00  0.00    +0.000 A 
BRANCH   9  11
ATOM     11  C   UNL     1       5.918   3.512  12.682  0.00  0.00    +0.000 C 
ATOM     12  O   UNL     1       6.841   3.041  12.022  0.00  0.00    +0.000 OA
ATOM     13  N   UNL     1       4.606   3.580  12.250  0.00  0.00    +0.000 N 
ATOM     14  H   UNL     1       3.884   3.871  12.897  0.00  0.00    +0.000 HD
BRANCH  13  15
ATOM     15  C   UNL     1       4.191   3.150  10.954  0.00  0.00    +0.000 C 
ATOM     16  C   UNL     1       2.758   2.798  10.674  0.00  0.00    +0.000 C 
ATOM     17  C   UNL     1       3.345   4.049  10.089  0.00  0.00    +0.000 C 
ENDBRANCH  13  15
ENDBRANCH   9  11
ENDBRANCH   3   5
BRANCH   1  18
ATOM     18  C   UNL     1       4.425   2.734  19.818  0.00  0.00    +0.000 C 
BRANCH  18  19
ATOM     19  N   UNL     1       3.217   2.325  19.081  0.00  0.00    +0.000 NA
ATOM     20  H   UNL     1       3.384   2.519  18.089  0.00  0.00    +0.000 HD
BRANCH  19  21
ATOM     21  C   UNL     1       1.972   3.011  19.503  0.00  0.00    +0.000 C 
ATOM     22  C   UNL     1       1.649   2.627  20.963  0.00  0.00    +0.000 C 
ATOM     23  C   UNL     1       0.836   2.453  18.616  0.00  0.00    +0.000 C 
BRANCH  21  28
ATOM     24  C   UNL     1       1.799   8.323  20.236  0.00  0.00    +0.000 C 
ATOM     25  C   UNL     1       1.946   6.948  19.696  0.00  0.00    +0.000 A 
ATOM     26  C   UNL     1       2.316   6.533  18.435  0.00  0.00    +0.000 A 
ATOM     27  N   UNL     1       2.360   5.168  18.243  0.00  0.00    +0.000 NA
ATOM     28  C   UNL     1       2.038   4.538  19.357  0.00  0.00    +0.000 A 
ATOM     29  S   UNL     1       1.635   5.581  20.678  0.00  0.00    +0.000 S 
ENDBRANCH  21  28
ENDBRANCH  19  21
ENDBRANCH  18  19
ENDBRANCH   1  18
TORSDOF 7
ENDMDL
