MODEL 1
REMARK VINA RESULT:      -8.0      0.000      0.000
REMARK  Name = 
REMARK  13 active torsions:
REMARK  status: ('A' for Active; 'I' for Inactive)
REMARK    1  A    between atoms: C_2  and  C_3
REMARK    2  A    between atoms: C_3  and  C_4
REMARK    3  A    between atoms: C_3  and  C_5
REMARK    4  A    between atoms: C_3  and  C_6
REMARK    5  A    between atoms: C_8  and  C_9
REMARK    6  A    between atoms: C_14  and  O_15
REMARK    7  A    between atoms: C_16  and  C_17
REMARK    8  A    between atoms: C_17  and  C_18
REMARK    9  A    between atoms: C_19  and  C_20
REMARK   10  A    between atoms: C_19  and  C_21
REMARK   11  A    between atoms: C_22  and  O_23
REMARK   12  A    between atoms: C_27  and  O_28
REMARK   13  A    between atoms: C_30  and  O_31
REMARK                            x       y       z     vdW  Elec       q    Type
REMARK                         _______ _______ _______ _____ _____    ______ ____
ROOT
ATOM      1  C   UNL     1       2.046   8.255  19.461  0.00  0.00    +0.000 C 
ATOM      2  C   UNL     1       1.083   8.379  20.636  0.00  0.00    +0.000 C 
ATOM      3  O   UNL     1       0.992   9.787  20.966  0.00  0.00    +0.000 OA
ATOM      4  C   UNL     1       0.309  10.448  19.968  0.00  0.00    +0.000 A 
ATOM      5  C   UNL     1      -0.440  11.556  20.336  0.00  0.00    +0.000 A 
ATOM      6  C   UNL     1      -1.439  12.001  19.477  0.00  0.00    +0.000 A 
ATOM      7  C   UNL     1      -1.759  11.286  18.308  0.00  0.00    +0.000 A 
ATOM      8  C   UNL     1      -0.837  10.299  17.875  0.00  0.00    +0.000 A 
ATOM      9  C   UNL     1       0.266   9.950  18.667  0.00  0.00    +0.000 A 
ATOM     10  C   UNL     1       1.375   9.005  18.300  0.00  0.00    +0.000 C 
ATOM     11  O   UNL     1       1.851   8.996  17.167  0.00  0.00    +0.000 OA
ENDROOT
BRANCH   1  14
ATOM     12  C   UNL     1       2.795   4.407  19.535  0.00  0.00    +0.000 A 
ATOM     13  C   UNL     1       2.206   5.679  19.789  0.00  0.00    +0.000 A 
ATOM     14  C   UNL     1       2.600   6.870  19.121  0.00  0.00    +0.000 A 
ATOM     15  C   UNL     1       3.634   6.751  18.178  0.00  0.00    +0.000 A 
ATOM     16  C   UNL     1       4.226   5.526  17.883  0.00  0.00    +0.000 A 
ATOM     17  C   UNL     1       3.800   4.372  18.535  0.00  0.00    +0.000 A 
BRANCH  12  18
ATOM     18  C   UNL     1       2.395   3.109  20.282  0.00  0.00    +0.000 C 
ATOM     19  C   UNL     1       1.471   3.351  21.500  0.00  0.00    +0.000 C 
ATOM     20  C   UNL     1       3.664   2.418  20.859  0.00  0.00    +0.000 C 
BRANCH  18  22
ATOM     21  C   UNL     1       0.609   2.334  18.599  0.00  0.00    +0.000 C 
ATOM     22  C   UNL     1       1.655   2.094  19.403  0.00  0.00    +0.000 C 
ENDBRANCH  18  22
ENDBRANCH  12  18
BRANCH  15  23
ATOM     23  O   UNL     1       4.150   7.829  17.515  0.00  0.00    +0.000 OA
ATOM     24  H   UNL     1       3.496   8.108  16.842  0.00  0.00    +0.000 HD
ENDBRANCH  15  23
BRANCH  17  25
ATOM     25  O   UNL     1       4.383   3.180  18.199  0.00  0.00    +0.000 OA
ATOM     26  H   UNL     1       4.752   3.266  17.301  0.00  0.00    +0.000 HD
ENDBRANCH  17  25
ENDBRANCH   1  14
BRANCH   6  27
ATOM     27  O   UNL     1      -2.202  13.076  19.838  0.00  0.00    +0.000 OA
ATOM     28  H   UNL     1      -2.636  13.430  19.041  0.00  0.00    +0.000 HD
ENDBRANCH   6  27
BRANCH   8  29
ATOM     29  O   UNL     1      -1.071   9.538  16.764  0.00  0.00    +0.000 OA
ATOM     30  H   UNL     1      -1.012   8.600  17.008  0.00  0.00    +0.000 HD
ENDBRANCH   8  29
BRANCH   7  31
ATOM     31  C   UNL     1      -3.147  11.471  17.717  0.00  0.00    +0.000 C 
BRANCH  31  32
ATOM     32  C   UNL     1      -4.329  10.863  18.418  0.00  0.00    +0.000 C 
ATOM     33  C   UNL     1      -5.629  11.171  18.229  0.00  0.00    +0.000 C 
ATOM     34  C   UNL     1      -6.130  12.342  17.432  0.00  0.00    +0.000 C 
ATOM     35  C   UNL     1      -6.734  10.314  18.797  0.00  0.00    +0.000 C 
ENDBRANCH  31  32
ENDBRANCH   7  31
TORSDOF 9
ENDMDL
MODEL 2
REMARK VINA RESULT:      -7.9      2.560      4.600
REMARK  Name = 
REMARK  13 active torsions:
REMARK  status: ('A' for Active; 'I' for Inactive)
REMARK    1  A    between atoms: C_2  and  C_3
REMARK    2  A    between atoms: C_3  and  C_4
REMARK    3  A    between atoms: C_3  and  C_5
REMARK    4  A    between atoms: C_3  and  C_6
REMARK    5  A    between atoms: C_8  and  C_9
REMARK    6  A    between atoms: C_14  and  O_15
REMARK    7  A    between atoms: C_16  and  C_17
REMARK    8  A    between atoms: C_17  and  C_18
REMARK    9  A    between atoms: C_19  and  C_20
REMARK   10  A    between atoms: C_19  and  C_21
REMARK   11  A    between atoms: C_22  and  O_23
REMARK   12  A    between atoms: C_27  and  O_28
REMARK   13  A    between atoms: C_30  and  O_31
REMARK                            x       y       z     vdW  Elec       q    Type
REMARK                         _______ _______ _______ _____ _____    ______ ____
ROOT
ATOM      1  C   UNL     1       1.838   7.600  18.657  0.00  0.00    +0.000 C 
ATOM      2  C   UNL     1       2.041   8.750  17.677  0.00  0.00    +0.000 C 
ATOM      3  O   UNL     1       0.743   9.351  17.450  0.00  0.00    +0.000 OA
ATOM      4  C   UNL     1       0.340  10.015  18.588  0.00  0.00    +0.000 A 
ATOM      5  C   UNL     1      -0.459  11.137  18.420  0.00  0.00    +0.000 A 
ATOM      6  C   UNL     1      -0.554  12.050  19.465  0.00  0.00    +0.000 A 
ATOM      7  C   UNL     1       0.221  11.901  20.629  0.00  0.00    +0.000 A 
ATOM      8  C   UNL     1       0.849  10.645  20.837  0.00  0.00    +0.000 A 
ATOM      9  C   UNL     1       0.819   9.655  19.845  0.00  0.00    +0.000 A 
ATOM     10  C   UNL     1       1.346   8.252  19.959  0.00  0.00    +0.000 C 
ATOM     11  O   UNL     1       1.194   7.600  20.989  0.00  0.00    +0.000 OA
ENDROOT
BRANCH   1  14
ATOM     12  C   UNL     1       5.311   5.796  18.424  0.00  0.00    +0.000 A 
ATOM     13  C   UNL     1       4.292   6.789  18.361  0.00  0.00    +0.000 A 
ATOM     14  C   UNL     1       2.962   6.575  18.816  0.00  0.00    +0.000 A 
ATOM     15  C   UNL     1       2.672   5.303  19.336  0.00  0.00    +0.000 A 
ATOM     16  C   UNL     1       3.639   4.307  19.434  0.00  0.00    +0.000 A 
ATOM     17  C   UNL     1       4.940   4.556  19.005  0.00  0.00    +0.000 A 
BRANCH  12  18
ATOM     18  C   UNL     1       6.754   6.008  17.900  0.00  0.00    +0.000 C 
ATOM     19  C   UNL     1       7.151   5.043  16.757  0.00  0.00    +0.000 C 
ATOM     20  C   UNL     1       7.777   5.737  19.041  0.00  0.00    +0.000 C 
BRANCH  18  22
ATOM     21  C   UNL     1       7.984   8.262  17.723  0.00  0.00    +0.000 C 
ATOM     22  C   UNL     1       7.011   7.417  17.352  0.00  0.00    +0.000 C 
ENDBRANCH  18  22
ENDBRANCH  12  18
BRANCH  15  23
ATOM     23  O   UNL     1       1.417   4.948  19.746  0.00  0.00    +0.000 OA
ATOM     24  H   UNL     1       0.809   5.680  19.517  0.00  0.00    +0.000 HD
ENDBRANCH  15  23
BRANCH  17  25
ATOM     25  O   UNL     1       5.873   3.565  19.145  0.00  0.00    +0.000 OA
ATOM     26  H   UNL     1       5.402   2.721  19.269  0.00  0.00    +0.000 HD
ENDBRANCH  17  25
ENDBRANCH   1  14
BRANCH   6  27
ATOM     27  O   UNL     1      -1.318  13.173  19.304  0.00  0.00    +0.000 OA
ATOM     28  H   UNL     1      -2.066  13.130  19.927  0.00  0.00    +0.000 HD
ENDBRANCH   6  27
BRANCH   8  29
ATOM     29  O   UNL     1       1.641  10.413  21.926  0.00  0.00    +0.000 OA
ATOM     30  H   UNL     1       2.365  11.060  21.932  0.00  0.00    +0.000 HD
ENDBRANCH   8  29
BRANCH   7  31
ATOM     31  C   UNL     1       0.501  13.141  21.463  0.00  0.00    +0.000 C 
BRANCH  31  32
ATOM     32  C   UNL     1      -0.628  13.789  22.214  0.00  0.00    +0.000 C 
ATOM     33  C   UNL     1      -1.523  13.177  23.017  0.00  0.00    +0.000 C 
ATOM     34  C   UNL     1      -1.693  11.689  23.141  0.00  0.00    +0.000 C 
ATOM     35  C   UNL     1      -2.443  13.964  23.918  0.00  0.00    +0.000 C 
ENDBRANCH  31  32
ENDBRANCH   7  31
TORSDOF 9
ENDMDL
MODEL 3
REMARK VINA RESULT:      -7.9      2.540      5.046
REMARK  Name = 
REMARK  13 active torsions:
REMARK  status: ('A' for Active; 'I' for Inactive)
REMARK    1  A    between atoms: C_2  and  C_3
REMARK    2  A    between atoms: C_3  and  C_4
REMARK    3  A    between atoms: C_3  and  C_5
REMARK    4  A    between atoms: C_3  and  C_6
REMARK    5  A    between atoms: C_8  and  C_9
REMARK    6  A    between atoms: C_14  and  O_15
REMARK    7  A    between atoms: C_16  and  C_17
REMARK    8  A    between atoms: C_17  and  C_18
REMARK    9  A    between atoms: C_19  and  C_20
REMARK   10  A    between atoms: C_19  and  C_21
REMARK   11  A    between atoms: C_22  and  O_23
REMARK   12  A    between atoms: C_27  and  O_28
REMARK   13  A    between atoms: C_30  and  O_31
REMARK                            x       y       z     vdW  Elec       q    Type
REMARK                         _______ _______ _______ _____ _____    ______ ____
ROOT
ATOM      1  C   UNL     1       1.804   7.588  18.694  0.00  0.00    +0.000 C 
ATOM      2  C   UNL     1       1.985   8.699  17.666  0.00  0.00    +0.000 C 
ATOM      3  O   UNL     1       0.680   9.285  17.438  0.00  0.00    +0.000 OA
ATOM      4  C   UNL     1       0.294   9.992  18.556  0.00  0.00    +0.000 A 
ATOM      5  C   UNL     1      -0.513  11.103  18.359  0.00  0.00    +0.000 A 
ATOM      6  C   UNL     1      -0.593  12.057  19.367  0.00  0.00    +0.000 A 
ATOM      7  C   UNL     1       0.204  11.957  20.522  0.00  0.00    +0.000 A 
ATOM      8  C   UNL     1       0.841  10.714  20.769  0.00  0.00    +0.000 A 
ATOM      9  C   UNL     1       0.798   9.684  19.818  0.00  0.00    +0.000 A 
ATOM     10  C   UNL     1       1.333   8.289  19.977  0.00  0.00    +0.000 C 
ATOM     11  O   UNL     1       1.203   7.677  21.036  0.00  0.00    +0.000 OA
ENDROOT
BRANCH   1  14
ATOM     12  C   UNL     1       5.280   5.787  18.468  0.00  0.00    +0.000 A 
ATOM     13  C   UNL     1       4.256   6.774  18.385  0.00  0.00    +0.000 A 
ATOM     14  C   UNL     1       2.936   6.574  18.873  0.00  0.00    +0.000 A 
ATOM     15  C   UNL     1       2.661   5.323  19.450  0.00  0.00    +0.000 A 
ATOM     16  C   UNL     1       3.634   4.336  19.571  0.00  0.00    +0.000 A 
ATOM     17  C   UNL     1       4.926   4.572  19.107  0.00  0.00    +0.000 A 
BRANCH  12  18
ATOM     18  C   UNL     1       6.712   5.983  17.909  0.00  0.00    +0.000 C 
ATOM     19  C   UNL     1       7.098   4.961  16.812  0.00  0.00    +0.000 C 
ATOM     20  C   UNL     1       7.756   5.783  19.044  0.00  0.00    +0.000 C 
BRANCH  18  22
ATOM     21  C   UNL     1       7.828   8.291  17.680  0.00  0.00    +0.000 C 
ATOM     22  C   UNL     1       6.946   7.363  17.281  0.00  0.00    +0.000 C 
ENDBRANCH  18  22
ENDBRANCH  12  18
BRANCH  15  23
ATOM     23  O   UNL     1       1.415   4.981  19.899  0.00  0.00    +0.000 OA
ATOM     24  H   UNL     1       1.382   4.006  19.973  0.00  0.00    +0.000 HD
ENDBRANCH  15  23
BRANCH  17  25
ATOM     25  O   UNL     1       5.865   3.590  19.269  0.00  0.00    +0.000 OA
ATOM     26  H   UNL     1       6.500   3.652  18.532  0.00  0.00    +0.000 HD
ENDBRANCH  17  25
ENDBRANCH   1  14
BRANCH   6  27
ATOM     27  O   UNL     1      -1.364  13.170  19.177  0.00  0.00    +0.000 OA
ATOM     28  H   UNL     1      -2.018  13.221  19.897  0.00  0.00    +0.000 HD
ENDBRANCH   6  27
BRANCH   8  29
ATOM     29  O   UNL     1       1.654  10.528  21.852  0.00  0.00    +0.000 OA
ATOM     30  H   UNL     1       2.000  11.389  22.136  0.00  0.00    +0.000 HD
ENDBRANCH   8  29
BRANCH   7  31
ATOM     31  C   UNL     1       0.493  13.231  21.301  0.00  0.00    +0.000 C 
BRANCH  31  32
ATOM     32  C   UNL     1       1.803  13.936  21.093  0.00  0.00    +0.000 C 
ATOM     33  C   UNL     1       2.043  14.972  20.264  0.00  0.00    +0.000 C 
ATOM     34  C   UNL     1       1.086  15.481  19.223  0.00  0.00    +0.000 C 
ATOM     35  C   UNL     1       3.328  15.760  20.335  0.00  0.00    +0.000 C 
ENDBRANCH  31  32
ENDBRANCH   7  31
TORSDOF 9
ENDMDL
MODEL 4
REMARK VINA RESULT:      -7.8      2.538      4.907
REMARK  Name = 
REMARK  13 active torsions:
REMARK  status: ('A' for Active; 'I' for Inactive)
REMARK    1  A    between atoms: C_2  and  C_3
REMARK    2  A    between atoms: C_3  and  C_4
REMARK    3  A    between atoms: C_3  and  C_5
REMARK    4  A    between atoms: C_3  and  C_6
REMARK    5  A    between atoms: C_8  and  C_9
REMARK    6  A    between atoms: C_14  and  O_15
REMARK    7  A    between atoms: C_16  and  C_17
REMARK    8  A    between atoms: C_17  and  C_18
REMARK    9  A    between atoms: C_19  and  C_20
REMARK   10  A    between atoms: C_19  and  C_21
REMARK   11  A    between atoms: C_22  and  O_23
REMARK   12  A    between atoms: C_27  and  O_28
REMARK   13  A    between atoms: C_30  and  O_31
REMARK                            x       y       z     vdW  Elec       q    Type
REMARK                         _______ _______ _______ _____ _____    ______ ____
ROOT
ATOM      1  C   UNL     1       1.789   7.565  18.703  0.00  0.00    +0.000 C 
ATOM      2  C   UNL     1       1.988   8.674  17.676  0.00  0.00    +0.000 C 
ATOM      3  O   UNL     1       0.692   9.278  17.444  0.00  0.00    +0.000 OA
ATOM      4  C   UNL     1       0.312   9.989  18.562  0.00  0.00    +0.000 A 
ATOM      5  C   UNL     1      -0.480  11.111  18.363  0.00  0.00    +0.000 A 
ATOM      6  C   UNL     1      -0.551  12.065  19.372  0.00  0.00    +0.000 A 
ATOM      7  C   UNL     1       0.241  11.953  20.529  0.00  0.00    +0.000 A 
ATOM      8  C   UNL     1       0.861  10.701  20.777  0.00  0.00    +0.000 A 
ATOM      9  C   UNL     1       0.806   9.673  19.825  0.00  0.00    +0.000 A 
ATOM     10  C   UNL     1       1.323   8.271  19.985  0.00  0.00    +0.000 C 
ATOM     11  O   UNL     1       1.181   7.660  21.042  0.00  0.00    +0.000 OA
ENDROOT
BRANCH   1  14
ATOM     12  C   UNL     1       5.241   5.717  18.484  0.00  0.00    +0.000 A 
ATOM     13  C   UNL     1       4.230   6.717  18.398  0.00  0.00    +0.000 A 
ATOM     14  C   UNL     1       2.907   6.536  18.884  0.00  0.00    +0.000 A 
ATOM     15  C   UNL     1       2.613   5.290  19.462  0.00  0.00    +0.000 A 
ATOM     16  C   UNL     1       3.573   4.289  19.585  0.00  0.00    +0.000 A 
ATOM     17  C   UNL     1       4.868   4.507  19.123  0.00  0.00    +0.000 A 
BRANCH  12  18
ATOM     18  C   UNL     1       6.675   5.893  17.927  0.00  0.00    +0.000 C 
ATOM     19  C   UNL     1       7.778   5.833  19.013  0.00  0.00    +0.000 C 
ATOM     20  C   UNL     1       6.821   7.296  17.271  0.00  0.00    +0.000 C 
BRANCH  18  22
ATOM     21  C   UNL     1       6.372   4.478  15.799  0.00  0.00    +0.000 C 
ATOM     22  C   UNL     1       7.069   4.836  16.887  0.00  0.00    +0.000 C 
ENDBRANCH  18  22
ENDBRANCH  12  18
BRANCH  15  23
ATOM     23  O   UNL     1       1.363   4.965  19.908  0.00  0.00    +0.000 OA
ATOM     24  H   UNL     1       1.305   5.223  20.851  0.00  0.00    +0.000 HD
ENDBRANCH  15  23
BRANCH  17  25
ATOM     25  O   UNL     1       5.794   3.513  19.288  0.00  0.00    +0.000 OA
ATOM     26  H   UNL     1       5.528   2.755  18.736  0.00  0.00    +0.000 HD
ENDBRANCH  17  25
ENDBRANCH   1  14
BRANCH   6  27
ATOM     27  O   UNL     1      -1.307  13.188  19.180  0.00  0.00    +0.000 OA
ATOM     28  H   UNL     1      -2.198  12.917  18.896  0.00  0.00    +0.000 HD
ENDBRANCH   6  27
BRANCH   8  29
ATOM     29  O   UNL     1       1.667  10.503  21.863  0.00  0.00    +0.000 OA
ATOM     30  H   UNL     1       1.483  11.194  22.520  0.00  0.00    +0.000 HD
ENDBRANCH   8  29
BRANCH   7  31
ATOM     31  C   UNL     1       0.544  13.222  21.311  0.00  0.00    +0.000 C 
BRANCH  31  32
ATOM     32  C   UNL     1       1.875  13.895  21.128  0.00  0.00    +0.000 C 
ATOM     33  C   UNL     1       2.164  14.900  20.274  0.00  0.00    +0.000 C 
ATOM     34  C   UNL     1       1.254  15.392  19.184  0.00  0.00    +0.000 C 
ATOM     35  C   UNL     1       3.461  15.665  20.366  0.00  0.00    +0.000 C 
ENDBRANCH  31  32
ENDBRANCH   7  31
TORSDOF 9
ENDMDL
MODEL 5
REMARK VINA RESULT:      -7.8      0.559      1.100
REMARK  Name = 
REMARK  13 active torsions:
REMARK  status: ('A' for Active; 'I' for Inactive)
REMARK    1  A    between atoms: C_2  and  C_3
REMARK    2  A    between atoms: C_3  and  C_4
REMARK    3  A    between atoms: C_3  and  C_5
REMARK    4  A    between atoms: C_3  and  C_6
REMARK    5  A    between atoms: C_8  and  C_9
REMARK    6  A    between atoms: C_14  and  O_15
REMARK    7  A    between atoms: C_16  and  C_17
REMARK    8  A    between atoms: C_17  and  C_18
REMARK    9  A    between atoms: C_19  and  C_20
REMARK   10  A    between atoms: C_19  and  C_21
REMARK   11  A    between atoms: C_22  and  O_23
REMARK   12  A    between atoms: C_27  and  O_28
REMARK   13  A    between atoms: C_30  and  O_31
REMARK                            x       y       z     vdW  Elec       q    Type
REMARK                         _______ _______ _______ _____ _____    ______ ____
ROOT
ATOM      1  C   UNL     1       2.046   8.215  19.368  0.00  0.00    +0.000 C 
ATOM      2  C   UNL     1       1.071   8.176  20.539  0.00  0.00    +0.000 C 
ATOM      3  O   UNL     1       0.958   9.530  21.044  0.00  0.00    +0.000 OA
ATOM      4  C   UNL     1       0.276  10.303  20.131  0.00  0.00    +0.000 A 
ATOM      5  C   UNL     1      -0.492  11.346  20.630  0.00  0.00    +0.000 A 
ATOM      6  C   UNL     1      -1.489  11.885  19.824  0.00  0.00    +0.000 A 
ATOM      7  C   UNL     1      -1.789  11.322  18.570  0.00  0.00    +0.000 A 
ATOM      8  C   UNL     1      -0.850  10.408  18.024  0.00  0.00    +0.000 A 
ATOM      9  C   UNL     1       0.251   9.975  18.778  0.00  0.00    +0.000 A 
ATOM     10  C   UNL     1       1.375   9.098  18.305  0.00  0.00    +0.000 C 
ATOM     11  O   UNL     1       1.861   9.239  17.184  0.00  0.00    +0.000 OA
ENDROOT
BRANCH   1  14
ATOM     12  C   UNL     1       2.791   4.392  18.912  0.00  0.00    +0.000 A 
ATOM     13  C   UNL     1       2.186   5.617  19.315  0.00  0.00    +0.000 A 
ATOM     14  C   UNL     1       2.622   6.891  18.860  0.00  0.00    +0.000 A 
ATOM     15  C   UNL     1       3.714   6.905  17.977  0.00  0.00    +0.000 A 
ATOM     16  C   UNL     1       4.325   5.733  17.541  0.00  0.00    +0.000 A 
ATOM     17  C   UNL     1       3.858   4.498  17.984  0.00  0.00    +0.000 A 
BRANCH  12  18
ATOM     18  C   UNL     1       2.345   3.001  19.429  0.00  0.00    +0.000 C 
ATOM     19  C   UNL     1       3.503   2.150  20.005  0.00  0.00    +0.000 C 
ATOM     20  C   UNL     1       1.762   2.162  18.256  0.00  0.00    +0.000 C 
BRANCH  18  22
ATOM     21  C   UNL     1       1.454   2.718  21.827  0.00  0.00    +0.000 C 
ATOM     22  C   UNL     1       1.292   3.064  20.542  0.00  0.00    +0.000 C 
ENDBRANCH  18  22
ENDBRANCH  12  18
BRANCH  15  23
ATOM     23  O   UNL     1       4.271   8.066  17.517  0.00  0.00    +0.000 OA
ATOM     24  H   UNL     1       4.448   7.954  16.561  0.00  0.00    +0.000 HD
ENDBRANCH  15  23
BRANCH  17  25
ATOM     25  O   UNL     1       4.462   3.365  17.510  0.00  0.00    +0.000 OA
ATOM     26  H   UNL     1       5.389   3.581  17.300  0.00  0.00    +0.000 HD
ENDBRANCH  17  25
ENDBRANCH   1  14
BRANCH   6  27
ATOM     27  O   UNL     1      -2.270  12.896  20.311  0.00  0.00    +0.000 OA
ATOM     28  H   UNL     1      -2.511  12.687  21.231  0.00  0.00    +0.000 HD
ENDBRANCH   6  27
BRANCH   8  29
ATOM     29  O   UNL     1      -1.064   9.793  16.824  0.00  0.00    +0.000 OA
ATOM     30  H   UNL     1      -0.799   8.862  16.897  0.00  0.00    +0.000 HD
ENDBRANCH   8  29
BRANCH   7  31
ATOM     31  C   UNL     1      -3.175  11.563  17.993  0.00  0.00    +0.000 C 
BRANCH  31  32
ATOM     32  C   UNL     1      -4.326  10.726  18.475  0.00  0.00    +0.000 C 
ATOM     33  C   UNL     1      -5.592  11.137  18.692  0.00  0.00    +0.000 C 
ATOM     34  C   UNL     1      -6.042  12.571  18.699  0.00  0.00    +0.000 C 
ATOM     35  C   UNL     1      -6.713  10.154  18.922  0.00  0.00    +0.000 C 
ENDBRANCH  31  32
ENDBRANCH   7  31
TORSDOF 9
ENDMDL
MODEL 6
REMARK VINA RESULT:      -7.8      2.545      4.468
REMARK  Name = 
REMARK  13 active torsions:
REMARK  status: ('A' for Active; 'I' for Inactive)
REMARK    1  A    between atoms: C_2  and  C_3
REMARK    2  A    between atoms: C_3  and  C_4
REMARK    3  A    between atoms: C_3  and  C_5
REMARK    4  A    between atoms: C_3  and  C_6
REMARK    5  A    between atoms: C_8  and  C_9
REMARK    6  A    between atoms: C_14  and  O_15
REMARK    7  A    between atoms: C_16  and  C_17
REMARK    8  A    between atoms: C_17  and  C_18
REMARK    9  A    between atoms: C_19  and  C_20
REMARK   10  A    between atoms: C_19  and  C_21
REMARK   11  A    between atoms: C_22  and  O_23
REMARK   12  A    between atoms: C_27  and  O_28
REMARK   13  A    between atoms: C_30  and  O_31
REMARK                            x       y       z     vdW  Elec       q    Type
REMARK                         _______ _______ _______ _____ _____    ______ ____
ROOT
ATOM      1  C   UNL     1       1.825   7.565  18.698  0.00  0.00    +0.000 C 
ATOM      2  C   UNL     1       2.059   8.724  17.737  0.00  0.00    +0.000 C 
ATOM      3  O   UNL     1       0.767   9.326  17.472  0.00  0.00    +0.000 OA
ATOM      4  C   UNL     1       0.326   9.978  18.603  0.00  0.00    +0.000 A 
ATOM      5  C   UNL     1      -0.468  11.101  18.421  0.00  0.00    +0.000 A 
ATOM      6  C   UNL     1      -0.599  12.004  19.470  0.00  0.00    +0.000 A 
ATOM      7  C   UNL     1       0.138  11.844  20.657  0.00  0.00    +0.000 A 
ATOM      8  C   UNL     1       0.761  10.587  20.874  0.00  0.00    +0.000 A 
ATOM      9  C   UNL     1       0.765   9.606  19.872  0.00  0.00    +0.000 A 
ATOM     10  C   UNL     1       1.290   8.204  19.989  0.00  0.00    +0.000 C 
ATOM     11  O   UNL     1       1.105   7.541  21.008  0.00  0.00    +0.000 OA
ENDROOT
BRANCH   1  14
ATOM     12  C   UNL     1       5.289   5.737  18.508  0.00  0.00    +0.000 A 
ATOM     13  C   UNL     1       4.274   6.734  18.419  0.00  0.00    +0.000 A 
ATOM     14  C   UNL     1       2.945   6.539  18.884  0.00  0.00    +0.000 A 
ATOM     15  C   UNL     1       2.650   5.284  19.441  0.00  0.00    +0.000 A 
ATOM     16  C   UNL     1       3.613   4.288  19.566  0.00  0.00    +0.000 A 
ATOM     17  C   UNL     1       4.914   4.518  19.126  0.00  0.00    +0.000 A 
BRANCH  12  18
ATOM     18  C   UNL     1       6.731   5.928  17.974  0.00  0.00    +0.000 C 
ATOM     19  C   UNL     1       7.810   5.935  19.084  0.00  0.00    +0.000 C 
ATOM     20  C   UNL     1       6.857   7.309  17.269  0.00  0.00    +0.000 C 
BRANCH  18  22
ATOM     21  C   UNL     1       6.675   4.621  15.758  0.00  0.00    +0.000 C 
ATOM     22  C   UNL     1       7.171   4.843  16.983  0.00  0.00    +0.000 C 
ENDBRANCH  18  22
ENDBRANCH  12  18
BRANCH  15  23
ATOM     23  O   UNL     1       1.394   4.948  19.865  0.00  0.00    +0.000 OA
ATOM     24  H   UNL     1       1.333   5.162  20.818  0.00  0.00    +0.000 HD
ENDBRANCH  15  23
BRANCH  17  25
ATOM     25  O   UNL     1       5.842   3.526  19.292  0.00  0.00    +0.000 OA
ATOM     26  H   UNL     1       5.407   2.774  19.734  0.00  0.00    +0.000 HD
ENDBRANCH  17  25
ENDBRANCH   1  14
BRANCH   6  27
ATOM     27  O   UNL     1      -1.358  13.127  19.296  0.00  0.00    +0.000 OA
ATOM     28  H   UNL     1      -1.494  13.265  18.341  0.00  0.00    +0.000 HD
ENDBRANCH   6  27
BRANCH   8  29
ATOM     29  O   UNL     1       1.517  10.345  21.986  0.00  0.00    +0.000 OA
ATOM     30  H   UNL     1       1.064  10.717  22.760  0.00  0.00    +0.000 HD
ENDBRANCH   8  29
BRANCH   7  31
ATOM     31  C   UNL     1       0.389  13.076  21.512  0.00  0.00    +0.000 C 
BRANCH  31  32
ATOM     32  C   UNL     1      -0.532  13.370  22.662  0.00  0.00    +0.000 C 
ATOM     33  C   UNL     1      -1.377  14.416  22.777  0.00  0.00    +0.000 C 
ATOM     34  C   UNL     1      -1.398  15.610  21.865  0.00  0.00    +0.000 C 
ATOM     35  C   UNL     1      -2.434  14.463  23.853  0.00  0.00    +0.000 C 
ENDBRANCH  31  32
ENDBRANCH   7  31
TORSDOF 9
ENDMDL
MODEL 7
REMARK VINA RESULT:      -7.6      0.495      1.141
REMARK  Name = 
REMARK  13 active torsions:
REMARK  status: ('A' for Active; 'I' for Inactive)
REMARK    1  A    between atoms: C_2  and  C_3
REMARK    2  A    between atoms: C_3  and  C_4
REMARK    3  A    between atoms: C_3  and  C_5
REMARK    4  A    between atoms: C_3  and  C_6
REMARK    5  A    between atoms: C_8  and  C_9
REMARK    6  A    between atoms: C_14  and  O_15
REMARK    7  A    between atoms: C_16  and  C_17
REMARK    8  A    between atoms: C_17  and  C_18
REMARK    9  A    between atoms: C_19  and  C_20
REMARK   10  A    between atoms: C_19  and  C_21
REMARK   11  A    between atoms: C_22  and  O_23
REMARK   12  A    between atoms: C_27  and  O_28
REMARK   13  A    between atoms: C_30  and  O_31
REMARK                            x       y       z     vdW  Elec       q    Type
REMARK                         _______ _______ _______ _____ _____    ______ ____
ROOT
ATOM      1  C   UNL     1       1.989   8.255  19.435  0.00  0.00    +0.000 C 
ATOM      2  C   UNL     1       1.068   8.283  20.649  0.00  0.00    +0.000 C 
ATOM      3  O   UNL     1       1.049   9.647  21.138  0.00  0.00    +0.000 OA
ATOM      4  C   UNL     1       0.367  10.444  20.245  0.00  0.00    +0.000 A 
ATOM      5  C   UNL     1      -0.321  11.533  20.762  0.00  0.00    +0.000 A 
ATOM      6  C   UNL     1      -1.325  12.113  19.994  0.00  0.00    +0.000 A 
ATOM      7  C   UNL     1      -1.711  11.550  18.764  0.00  0.00    +0.000 A 
ATOM      8  C   UNL     1      -0.847  10.582  18.190  0.00  0.00    +0.000 A 
ATOM      9  C   UNL     1       0.263  10.100  18.899  0.00  0.00    +0.000 A 
ATOM     10  C   UNL     1       1.317   9.159  18.390  0.00  0.00    +0.000 C 
ATOM     11  O   UNL     1       1.758   9.259  17.246  0.00  0.00    +0.000 OA
ENDROOT
BRANCH   1  14
ATOM     12  C   UNL     1       2.511   4.392  19.005  0.00  0.00    +0.000 A 
ATOM     13  C   UNL     1       1.991   5.653  19.417  0.00  0.00    +0.000 A 
ATOM     14  C   UNL     1       2.470   6.896  18.921  0.00  0.00    +0.000 A 
ATOM     15  C   UNL     1       3.519   6.840  17.989  0.00  0.00    +0.000 A 
ATOM     16  C   UNL     1       4.047   5.632  17.543  0.00  0.00    +0.000 A 
ATOM     17  C   UNL     1       3.538   4.430  18.027  0.00  0.00    +0.000 A 
BRANCH  12  18
ATOM     18  C   UNL     1       2.019   3.034  19.564  0.00  0.00    +0.000 C 
ATOM     19  C   UNL     1       1.008   2.310  18.641  0.00  0.00    +0.000 C 
ATOM     20  C   UNL     1       1.264   3.255  20.906  0.00  0.00    +0.000 C 
BRANCH  18  22
ATOM     21  C   UNL     1       4.092   2.084  20.757  0.00  0.00    +0.000 C 
ATOM     22  C   UNL     1       3.145   2.022  19.810  0.00  0.00    +0.000 C 
ENDBRANCH  18  22
ENDBRANCH  12  18
BRANCH  15  23
ATOM     23  O   UNL     1       4.113   7.964  17.486  0.00  0.00    +0.000 OA
ATOM     24  H   UNL     1       5.081   7.862  17.586  0.00  0.00    +0.000 HD
ENDBRANCH  15  23
BRANCH  17  25
ATOM     25  O   UNL     1       4.059   3.260  17.544  0.00  0.00    +0.000 OA
ATOM     26  H   UNL     1       3.474   2.937  16.835  0.00  0.00    +0.000 HD
ENDBRANCH  17  25
ENDBRANCH   1  14
BRANCH   6  27
ATOM     27  O   UNL     1      -2.028  13.171  20.500  0.00  0.00    +0.000 OA
ATOM     28  H   UNL     1      -2.958  13.086  20.223  0.00  0.00    +0.000 HD
ENDBRANCH   6  27
BRANCH   8  29
ATOM     29  O   UNL     1      -1.148   9.963  17.010  0.00  0.00    +0.000 OA
ATOM     30  H   UNL     1      -1.992  10.311  16.679  0.00  0.00    +0.000 HD
ENDBRANCH   8  29
BRANCH   7  31
ATOM     31  C   UNL     1      -3.107  11.858  18.246  0.00  0.00    +0.000 C 
BRANCH  31  32
ATOM     32  C   UNL     1      -4.275  11.079  18.781  0.00  0.00    +0.000 C 
ATOM     33  C   UNL     1      -5.578  11.264  18.482  0.00  0.00    +0.000 C 
ATOM     34  C   UNL     1      -6.127  12.435  17.716  0.00  0.00    +0.000 C 
ATOM     35  C   UNL     1      -6.630  10.257  18.877  0.00  0.00    +0.000 C 
ENDBRANCH  31  32
ENDBRANCH   7  31
TORSDOF 9
ENDMDL
MODEL 8
REMARK VINA RESULT:      -7.5      2.494      4.995
REMARK  Name = 
REMARK  13 active torsions:
REMARK  status: ('A' for Active; 'I' for Inactive)
REMARK    1  A    between atoms: C_2  and  C_3
REMARK    2  A    between atoms: C_3  and  C_4
REMARK    3  A    between atoms: C_3  and  C_5
REMARK    4  A    between atoms: C_3  and  C_6
REMARK    5  A    between atoms: C_8  and  C_9
REMARK    6  A    between atoms: C_14  and  O_15
REMARK    7  A    between atoms: C_16  and  C_17
REMARK    8  A    between atoms: C_17  and  C_18
REMARK    9  A    between atoms: C_19  and  C_20
REMARK   10  A    between atoms: C_19  and  C_21
REMARK   11  A    between atoms: C_22  and  O_23
REMARK   12  A    between atoms: C_27  and  O_28
REMARK   13  A    between atoms: C_30  and  O_31
REMARK                            x       y       z     vdW  Elec       q    Type
REMARK                         _______ _______ _______ _____ _____    ______ ____
ROOT
ATOM      1  C   UNL     1       1.648   7.638  18.723  0.00  0.00    +0.000 C 
ATOM      2  C   UNL     1       1.797   8.731  17.670  0.00  0.00    +0.000 C 
ATOM      3  O   UNL     1       0.492   9.337  17.499  0.00  0.00    +0.000 OA
ATOM      4  C   UNL     1       0.175  10.066  18.624  0.00  0.00    +0.000 A 
ATOM      5  C   UNL     1      -0.622  11.189  18.450  0.00  0.00    +0.000 A 
ATOM      6  C   UNL     1      -0.636  12.158  19.447  0.00  0.00    +0.000 A 
ATOM      7  C   UNL     1       0.216  12.060  20.563  0.00  0.00    +0.000 A 
ATOM      8  C   UNL     1       0.843  10.809  20.796  0.00  0.00    +0.000 A 
ATOM      9  C   UNL     1       0.734   9.767  19.864  0.00  0.00    +0.000 A 
ATOM     10  C   UNL     1       1.253   8.365  20.017  0.00  0.00    +0.000 C 
ATOM     11  O   UNL     1       1.165   7.770  21.089  0.00  0.00    +0.000 OA
ENDROOT
BRANCH   1  14
ATOM     12  C   UNL     1       5.044   5.727  18.283  0.00  0.00    +0.000 A 
ATOM     13  C   UNL     1       4.038   6.735  18.231  0.00  0.00    +0.000 A 
ATOM     14  C   UNL     1       2.770   6.606  18.860  0.00  0.00    +0.000 A 
ATOM     15  C   UNL     1       2.527   5.406  19.548  0.00  0.00    +0.000 A 
ATOM     16  C   UNL     1       3.486   4.402  19.642  0.00  0.00    +0.000 A 
ATOM     17  C   UNL     1       4.729   4.569  19.038  0.00  0.00    +0.000 A 
BRANCH  12  18
ATOM     18  C   UNL     1       6.416   5.844  17.573  0.00  0.00    +0.000 C 
ATOM     19  C   UNL     1       6.802   7.295  17.197  0.00  0.00    +0.000 C 
ATOM     20  C   UNL     1       6.383   5.065  16.226  0.00  0.00    +0.000 C 
BRANCH  18  22
ATOM     21  C   UNL     1       8.150   5.894  19.473  0.00  0.00    +0.000 C 
ATOM     22  C   UNL     1       7.590   5.311  18.404  0.00  0.00    +0.000 C 
ENDBRANCH  18  22
ENDBRANCH  12  18
BRANCH  15  23
ATOM     23  O   UNL     1       1.326   5.131  20.141  0.00  0.00    +0.000 OA
ATOM     24  H   UNL     1       0.913   5.983  20.391  0.00  0.00    +0.000 HD
ENDBRANCH  15  23
BRANCH  17  25
ATOM     25  O   UNL     1       5.659   3.574  19.176  0.00  0.00    +0.000 OA
ATOM     26  H   UNL     1       6.202   3.552  18.367  0.00  0.00    +0.000 HD
ENDBRANCH  17  25
ENDBRANCH   1  14
BRANCH   6  27
ATOM     27  O   UNL     1      -1.397  13.281  19.279  0.00  0.00    +0.000 OA
ATOM     28  H   UNL     1      -1.102  13.737  18.470  0.00  0.00    +0.000 HD
ENDBRANCH   6  27
BRANCH   8  29
ATOM     29  O   UNL     1       1.705  10.623  21.840  0.00  0.00    +0.000 OA
ATOM     30  H   UNL     1       2.402  10.005  21.566  0.00  0.00    +0.000 HD
ENDBRANCH   8  29
BRANCH   7  31
ATOM     31  C   UNL     1       0.565  13.339  21.308  0.00  0.00    +0.000 C 
BRANCH  31  32
ATOM     32  C   UNL     1       1.903  13.981  21.075  0.00  0.00    +0.000 C 
ATOM     33  C   UNL     1       2.200  14.925  20.157  0.00  0.00    +0.000 C 
ATOM     34  C   UNL     1       1.289  15.359  19.043  0.00  0.00    +0.000 C 
ATOM     35  C   UNL     1       3.507  15.677  20.193  0.00  0.00    +0.000 C 
ENDBRANCH  31  32
ENDBRANCH   7  31
TORSDOF 9
ENDMDL
MODEL 9
REMARK VINA RESULT:      -7.4      2.520      4.928
REMARK  Name = 
REMARK  13 active torsions:
REMARK  status: ('A' for Active; 'I' for Inactive)
REMARK    1  A    between atoms: C_2  and  C_3
REMARK    2  A    between atoms: C_3  and  C_4
REMARK    3  A    between atoms: C_3  and  C_5
REMARK    4  A    between atoms: C_3  and  C_6
REMARK    5  A    between atoms: C_8  and  C_9
REMARK    6  A    between atoms: C_14  and  O_15
REMARK    7  A    between atoms: C_16  and  C_17
REMARK    8  A    between atoms: C_17  and  C_18
REMARK    9  A    between atoms: C_19  and  C_20
REMARK   10  A    between atoms: C_19  and  C_21
REMARK   11  A    between atoms: C_22  and  O_23
REMARK   12  A    between atoms: C_27  and  O_28
REMARK   13  A    between atoms: C_30  and  O_31
REMARK                            x       y       z     vdW  Elec       q    Type
REMARK                         _______ _______ _______ _____ _____    ______ ____
ROOT
ATOM      1  C   UNL     1       1.411   8.045  18.865  0.00  0.00    +0.000 C 
ATOM      2  C   UNL     1       1.245   8.908  17.619  0.00  0.00    +0.000 C 
ATOM      3  O   UNL     1      -0.085   9.481  17.671  0.00  0.00    +0.000 OA
ATOM      4  C   UNL     1      -0.139  10.420  18.677  0.00  0.00    +0.000 A 
ATOM      5  C   UNL     1      -1.000  11.494  18.498  0.00  0.00    +0.000 A 
ATOM      6  C   UNL     1      -0.802  12.641  19.259  0.00  0.00    +0.000 A 
ATOM      7  C   UNL     1       0.305  12.757  20.119  0.00  0.00    +0.000 A 
ATOM      8  C   UNL     1       1.022  11.570  20.422  0.00  0.00    +0.000 A 
ATOM      9  C   UNL     1       0.726  10.366  19.767  0.00  0.00    +0.000 A 
ATOM     10  C   UNL     1       1.324   9.018  20.051  0.00  0.00    +0.000 C 
ATOM     11  O   UNL     1       1.533   8.647  21.205  0.00  0.00    +0.000 OA
ENDROOT
BRANCH   1  14
ATOM     12  C   UNL     1       4.617   5.998  17.913  0.00  0.00    +0.000 A 
ATOM     13  C   UNL     1       3.593   6.987  17.920  0.00  0.00    +0.000 A 
ATOM     14  C   UNL     1       2.574   7.051  18.909  0.00  0.00    +0.000 A 
ATOM     15  C   UNL     1       2.603   6.065  19.908  0.00  0.00    +0.000 A 
ATOM     16  C   UNL     1       3.596   5.090  19.954  0.00  0.00    +0.000 A 
ATOM     17  C   UNL     1       4.596   5.070  18.986  0.00  0.00    +0.000 A 
BRANCH  12  18
ATOM     18  C   UNL     1       5.712   5.900  16.821  0.00  0.00    +0.000 C 
ATOM     19  C   UNL     1       5.397   6.722  15.548  0.00  0.00    +0.000 C 
ATOM     20  C   UNL     1       5.847   4.428  16.337  0.00  0.00    +0.000 C 
BRANCH  18  22
ATOM     21  C   UNL     1       7.482   7.647  17.484  0.00  0.00    +0.000 C 
ATOM     22  C   UNL     1       7.093   6.379  17.286  0.00  0.00    +0.000 C 
ENDBRANCH  18  22
ENDBRANCH  12  18
BRANCH  15  23
ATOM     23  O   UNL     1       1.645   5.975  20.879  0.00  0.00    +0.000 OA
ATOM     24  H   UNL     1       1.537   6.864  21.276  0.00  0.00    +0.000 HD
ENDBRANCH  15  23
BRANCH  17  25
ATOM     25  O   UNL     1       5.573   4.116  19.078  0.00  0.00    +0.000 OA
ATOM     26  H   UNL     1       5.946   4.150  19.978  0.00  0.00    +0.000 HD
ENDBRANCH  17  25
ENDBRANCH   1  14
BRANCH   6  27
ATOM     27  O   UNL     1      -1.627  13.716  19.076  0.00  0.00    +0.000 OA
ATOM     28  H   UNL     1      -1.882  13.755  18.137  0.00  0.00    +0.000 HD
ENDBRANCH   6  27
BRANCH   8  29
ATOM     29  O   UNL     1       2.126  11.587  21.228  0.00  0.00    +0.000 OA
ATOM     30  H   UNL     1       2.382  10.672  21.427  0.00  0.00    +0.000 HD
ENDBRANCH   8  29
BRANCH   7  31
ATOM     31  C   UNL     1       0.777  14.154  20.489  0.00  0.00    +0.000 C 
BRANCH  31  32
ATOM     32  C   UNL     1       1.724  14.875  19.572  0.00  0.00    +0.000 C 
ATOM     33  C   UNL     1       1.458  15.972  18.832  0.00  0.00    +0.000 C 
ATOM     34  C   UNL     1       0.090  16.556  18.619  0.00  0.00    +0.000 C 
ATOM     35  C   UNL     1       2.557  16.754  18.156  0.00  0.00    +0.000 C 
ENDBRANCH  31  32
ENDBRANCH   7  31
TORSDOF 9
ENDMDL
