MODEL 1
REMARK VINA RESULT:      -7.6      0.000      0.000
REMARK  Name = 
REMARK  6 active torsions:
REMARK  status: ('A' for Active; 'I' for Inactive)
REMARK    1  A    between atoms: C_1  and  C_2
REMARK    2  A    between atoms: C_2  and  O_3
REMARK    3  A    between atoms: O_3  and  C_4
REMARK    4  A    between atoms: C_4  and  C_6
REMARK    5  A    between atoms: N_9  and  C_10
REMARK    6  A    between atoms: C_22  and  N_23
REMARK                            x       y       z     vdW  Elec       q    Type
REMARK                         _______ _______ _______ _____ _____    ______ ____
ROOT
ATOM      1  C   UNL     1       1.189   9.512  19.720  0.00  0.00    +0.000 A 
ATOM      2  C   UNL     1       1.281   9.853  18.367  0.00  0.00    +0.000 A 
ATOM      3  N   UNL     1       1.887   8.925  17.634  0.00  0.00    +0.000 NA
ATOM      4  N   UNL     1       2.176   7.877  18.494  0.00  0.00    +0.000 N 
ATOM      5  C   UNL     1       1.734   8.211  19.787  0.00  0.00    +0.000 A 
ENDROOT
BRANCH   4   6
ATOM      6  C   UNL     1       2.830   6.685  17.906  0.00  0.00    +0.000 A 
ATOM      7  N   UNL     1       2.081   5.564  18.156  0.00  0.00    +0.000 NA
ATOM      8  C   UNL     1       2.465   4.896  19.247  0.00  0.00    +0.000 A 
ATOM      9  N   UNL     1       3.675   4.952  19.806  0.00  0.00    +0.000 NA
ATOM     10  C   UNL     1       4.555   5.513  18.960  0.00  0.00    +0.000 A 
ATOM     11  S   UNL     1       6.145   4.868  18.915  0.00  0.00    +0.000 S 
ATOM     12  C   UNL     1       6.160   5.128  17.269  0.00  0.00    +0.000 A 
ATOM     13  C   UNL     1       5.219   6.052  16.842  0.00  0.00    +0.000 A 
ATOM     14  C   UNL     1       4.241   6.393  17.898  0.00  0.00    +0.000 A 
ATOM     15  C   UNL     1       5.386   6.167  15.346  0.00  0.00    +0.000 C 
ATOM     16  C   UNL     1       6.016   4.780  14.964  0.00  0.00    +0.000 C 
ATOM     17  C   UNL     1       6.874   4.375  16.199  0.00  0.00    +0.000 C 
ENDBRANCH   4   6
BRANCH   5  18
ATOM     18  N   UNL     1       1.826   7.431  20.881  0.00  0.00    +0.000 N 
ATOM     19  H   UNL     1       1.611   7.756  21.815  0.00  0.00    +0.000 HD
ATOM     20  H   UNL     1       1.678   6.421  20.755  0.00  0.00    +0.000 HD
ENDBRANCH   5  18
BRANCH   1  21
ATOM     21  C   UNL     1       0.681  10.285  20.849  0.00  0.00    +0.000 C 
ATOM     22  O   UNL     1       1.177  11.378  21.152  0.00  0.00    +0.000 OA
BRANCH  21  23
ATOM     23  O   UNL     1      -0.377   9.748  21.529  0.00  0.00    +0.000 OA
BRANCH  23  25
ATOM     24  C   UNL     1      -1.502  11.211  23.167  0.00  0.00    +0.000 C 
ATOM     25  C   UNL     1      -0.466  10.121  22.930  0.00  0.00    +0.000 C 
ENDBRANCH  23  25
ENDBRANCH  21  23
ENDBRANCH   1  21
TORSDOF 5
ENDMDL
MODEL 2
REMARK VINA RESULT:      -7.2      0.939      1.275
REMARK  Name = 
REMARK  6 active torsions:
REMARK  status: ('A' for Active; 'I' for Inactive)
REMARK    1  A    between atoms: C_1  and  C_2
REMARK    2  A    between atoms: C_2  and  O_3
REMARK    3  A    between atoms: O_3  and  C_4
REMARK    4  A    between atoms: C_4  and  C_6
REMARK    5  A    between atoms: N_9  and  C_10
REMARK    6  A    between atoms: C_22  and  N_23
REMARK                            x       y       z     vdW  Elec       q    Type
REMARK                         _______ _______ _______ _____ _____    ______ ____
ROOT
ATOM      1  C   UNL     1       1.203   9.556  19.715  0.00  0.00    +0.000 A 
ATOM      2  C   UNL     1       1.226   9.859  18.350  0.00  0.00    +0.000 A 
ATOM      3  N   UNL     1       1.817   8.922  17.615  0.00  0.00    +0.000 NA
ATOM      4  N   UNL     1       2.165   7.905  18.491  0.00  0.00    +0.000 N 
ATOM      5  C   UNL     1       1.777   8.268  19.793  0.00  0.00    +0.000 A 
ENDROOT
BRANCH   4   6
ATOM      6  C   UNL     1       2.816   6.708  17.907  0.00  0.00    +0.000 A 
ATOM      7  N   UNL     1       2.067   5.589  18.167  0.00  0.00    +0.000 NA
ATOM      8  C   UNL     1       2.456   4.928  19.261  0.00  0.00    +0.000 A 
ATOM      9  N   UNL     1       3.669   4.987  19.814  0.00  0.00    +0.000 NA
ATOM     10  C   UNL     1       4.545   5.542  18.959  0.00  0.00    +0.000 A 
ATOM     11  S   UNL     1       6.135   4.896  18.911  0.00  0.00    +0.000 S 
ATOM     12  C   UNL     1       6.141   5.146  17.263  0.00  0.00    +0.000 A 
ATOM     13  C   UNL     1       5.200   6.068  16.835  0.00  0.00    +0.000 A 
ATOM     14  C   UNL     1       4.226   6.416  17.893  0.00  0.00    +0.000 A 
ATOM     15  C   UNL     1       5.359   6.173  15.338  0.00  0.00    +0.000 C 
ATOM     16  C   UNL     1       5.986   4.784  14.961  0.00  0.00    +0.000 C 
ATOM     17  C   UNL     1       6.850   4.386  16.194  0.00  0.00    +0.000 C 
ENDBRANCH   4   6
BRANCH   5  18
ATOM     18  N   UNL     1       1.935   7.523  20.904  0.00  0.00    +0.000 N 
ATOM     19  H   UNL     1       1.757   6.527  20.936  0.00  0.00    +0.000 HD
ATOM     20  H   UNL     1       2.640   7.835  21.584  0.00  0.00    +0.000 HD
ENDBRANCH   5  18
BRANCH   1  21
ATOM     21  C   UNL     1       0.732  10.352  20.844  0.00  0.00    +0.000 C 
ATOM     22  O   UNL     1       1.124  10.124  21.996  0.00  0.00    +0.000 OA
BRANCH  21  23
ATOM     23  O   UNL     1      -0.138  11.366  20.554  0.00  0.00    +0.000 OA
BRANCH  23  25
ATOM     24  C   UNL     1       1.496  13.205  20.354  0.00  0.00    +0.000 C 
ATOM     25  C   UNL     1       0.251  12.674  21.051  0.00  0.00    +0.000 C 
ENDBRANCH  23  25
ENDBRANCH  21  23
ENDBRANCH   1  21
TORSDOF 5
ENDMDL
MODEL 3
REMARK VINA RESULT:      -7.2      5.386      7.921
REMARK  Name = 
REMARK  6 active torsions:
REMARK  status: ('A' for Active; 'I' for Inactive)
REMARK    1  A    between atoms: C_1  and  C_2
REMARK    2  A    between atoms: C_2  and  O_3
REMARK    3  A    between atoms: O_3  and  C_4
REMARK    4  A    between atoms: C_4  and  C_6
REMARK    5  A    between atoms: N_9  and  C_10
REMARK    6  A    between atoms: C_22  and  N_23
REMARK                            x       y       z     vdW  Elec       q    Type
REMARK                         _______ _______ _______ _____ _____    ______ ____
ROOT
ATOM      1  C   UNL     1       6.072   4.780  14.258  0.00  0.00    +0.000 A 
ATOM      2  C   UNL     1       5.749   6.124  14.475  0.00  0.00    +0.000 A 
ATOM      3  N   UNL     1       5.103   6.328  15.619  0.00  0.00    +0.000 NA
ATOM      4  N   UNL     1       5.025   5.094  16.247  0.00  0.00    +0.000 N 
ATOM      5  C   UNL     1       5.637   4.125  15.431  0.00  0.00    +0.000 A 
ENDROOT
BRANCH   4   6
ATOM      6  C   UNL     1       4.373   5.056  17.577  0.00  0.00    +0.000 A 
ATOM      7  N   UNL     1       4.982   5.944  18.427  0.00  0.00    +0.000 NA
ATOM      8  C   UNL     1       5.935   5.393  19.183  0.00  0.00    +0.000 A 
ATOM      9  N   UNL     1       6.030   4.098  19.491  0.00  0.00    +0.000 NA
ATOM     10  C   UNL     1       4.878   3.466  19.212  0.00  0.00    +0.000 A 
ATOM     11  S   UNL     1       4.351   2.246  20.299  0.00  0.00    +0.000 S 
ATOM     12  C   UNL     1       2.785   2.756  20.047  0.00  0.00    +0.000 A 
ATOM     13  C   UNL     1       2.617   3.491  18.884  0.00  0.00    +0.000 A 
ATOM     14  C   UNL     1       3.906   3.885  18.273  0.00  0.00    +0.000 A 
ATOM     15  C   UNL     1       1.154   3.852  18.817  0.00  0.00    +0.000 C 
ATOM     16  C   UNL     1       0.722   3.815  20.326  0.00  0.00    +0.000 C 
ATOM     17  C   UNL     1       1.617   2.717  20.973  0.00  0.00    +0.000 C 
ENDBRANCH   4   6
BRANCH   5  18
ATOM     18  N   UNL     1       5.770   2.816  15.718  0.00  0.00    +0.000 N 
ATOM     19  H   UNL     1       5.230   2.346  16.433  0.00  0.00    +0.000 HD
ATOM     20  H   UNL     1       6.070   2.195  14.956  0.00  0.00    +0.000 HD
ENDBRANCH   5  18
BRANCH   1  21
ATOM     21  C   UNL     1       6.693   4.141  13.102  0.00  0.00    +0.000 C 
ATOM     22  O   UNL     1       7.505   4.750  12.392  0.00  0.00    +0.000 OA
BRANCH  21  23
ATOM     23  O   UNL     1       6.348   2.839  12.867  0.00  0.00    +0.000 OA
BRANCH  23  25
ATOM     24  C   UNL     1       4.339   3.307  11.512  0.00  0.00    +0.000 C 
ATOM     25  C   UNL     1       5.682   2.595  11.600  0.00  0.00    +0.000 C 
ENDBRANCH  23  25
ENDBRANCH  21  23
ENDBRANCH   1  21
TORSDOF 5
ENDMDL
MODEL 4
REMARK VINA RESULT:      -6.9      0.811      1.500
REMARK  Name = 
REMARK  6 active torsions:
REMARK  status: ('A' for Active; 'I' for Inactive)
REMARK    1  A    between atoms: C_1  and  C_2
REMARK    2  A    between atoms: C_2  and  O_3
REMARK    3  A    between atoms: O_3  and  C_4
REMARK    4  A    between atoms: C_4  and  C_6
REMARK    5  A    between atoms: N_9  and  C_10
REMARK    6  A    between atoms: C_22  and  N_23
REMARK                            x       y       z     vdW  Elec       q    Type
REMARK                         _______ _______ _______ _____ _____    ______ ____
ROOT
ATOM      1  C   UNL     1       1.098   9.456  19.983  0.00  0.00    +0.000 A 
ATOM      2  C   UNL     1       1.326   8.445  20.922  0.00  0.00    +0.000 A 
ATOM      3  N   UNL     1       1.843   7.343  20.387  0.00  0.00    +0.000 NA
ATOM      4  N   UNL     1       2.036   7.617  19.042  0.00  0.00    +0.000 N 
ATOM      5  C   UNL     1       1.600   8.927  18.774  0.00  0.00    +0.000 A 
ENDROOT
BRANCH   4   6
ATOM      6  C   UNL     1       2.644   6.546  18.218  0.00  0.00    +0.000 A 
ATOM      7  N   UNL     1       1.842   5.434  18.222  0.00  0.00    +0.000 NA
ATOM      8  C   UNL     1       2.181   4.533  19.149  0.00  0.00    +0.000 A 
ATOM      9  N   UNL     1       3.384   4.414  19.712  0.00  0.00    +0.000 NA
ATOM     10  C   UNL     1       4.300   5.099  19.007  0.00  0.00    +0.000 A 
ATOM     11  S   UNL     1       5.861   4.405  18.833  0.00  0.00    +0.000 S 
ATOM     12  C   UNL     1       5.909   5.006  17.279  0.00  0.00    +0.000 A 
ATOM     13  C   UNL     1       5.017   6.042  17.054  0.00  0.00    +0.000 A 
ATOM     14  C   UNL     1       4.040   6.198  18.154  0.00  0.00    +0.000 A 
ATOM     15  C   UNL     1       5.209   6.462  15.617  0.00  0.00    +0.000 C 
ATOM     16  C   UNL     1       5.783   5.160  14.953  0.00  0.00    +0.000 C 
ATOM     17  C   UNL     1       6.604   4.463  16.077  0.00  0.00    +0.000 C 
ENDBRANCH   4   6
BRANCH   5  18
ATOM     18  N   UNL     1       1.648   9.550  17.581  0.00  0.00    +0.000 N 
ATOM     19  H   UNL     1       0.879   9.553  16.924  0.00  0.00    +0.000 HD
ATOM     20  H   UNL     1       2.255  10.377  17.505  0.00  0.00    +0.000 HD
ENDBRANCH   5  18
BRANCH   1  21
ATOM     21  C   UNL     1       0.472  10.764  20.149  0.00  0.00    +0.000 C 
ATOM     22  O   UNL     1      -0.155  11.296  19.223  0.00  0.00    +0.000 OA
BRANCH  21  23
ATOM     23  O   UNL     1       0.596  11.348  21.379  0.00  0.00    +0.000 OA
BRANCH  23  25
ATOM     24  C   UNL     1      -0.983  10.495  23.074  0.00  0.00    +0.000 C 
ATOM     25  C   UNL     1      -0.655  11.596  22.074  0.00  0.00    +0.000 C 
ENDBRANCH  23  25
ENDBRANCH  21  23
ENDBRANCH   1  21
TORSDOF 5
ENDMDL
MODEL 5
REMARK VINA RESULT:      -6.9      1.416      2.121
REMARK  Name = 
REMARK  6 active torsions:
REMARK  status: ('A' for Active; 'I' for Inactive)
REMARK    1  A    between atoms: C_1  and  C_2
REMARK    2  A    between atoms: C_2  and  O_3
REMARK    3  A    between atoms: O_3  and  C_4
REMARK    4  A    between atoms: C_4  and  C_6
REMARK    5  A    between atoms: N_9  and  C_10
REMARK    6  A    between atoms: C_22  and  N_23
REMARK                            x       y       z     vdW  Elec       q    Type
REMARK                         _______ _______ _______ _____ _____    ______ ____
ROOT
ATOM      1  C   UNL     1       1.647   7.525  20.265  0.00  0.00    +0.000 A 
ATOM      2  C   UNL     1       1.663   6.284  20.911  0.00  0.00    +0.000 A 
ATOM      3  N   UNL     1       2.307   5.345  20.226  0.00  0.00    +0.000 NA
ATOM      4  N   UNL     1       2.807   5.966  19.092  0.00  0.00    +0.000 N 
ATOM      5  C   UNL     1       2.427   7.320  19.105  0.00  0.00    +0.000 A 
ENDROOT
BRANCH   4   6
ATOM      6  C   UNL     1       3.608   5.132  18.166  0.00  0.00    +0.000 A 
ATOM      7  N   UNL     1       3.462   3.805  18.479  0.00  0.00    +0.000 NA
ATOM      8  C   UNL     1       4.417   3.338  19.288  0.00  0.00    +0.000 A 
ATOM      9  N   UNL     1       5.633   3.864  19.438  0.00  0.00    +0.000 NA
ATOM     10  C   UNL     1       5.893   4.731  18.444  0.00  0.00    +0.000 A 
ATOM     11  S   UNL     1       7.488   4.766  17.809  0.00  0.00    +0.000 S 
ATOM     12  C   UNL     1       6.834   5.019  16.297  0.00  0.00    +0.000 A 
ATOM     13  C   UNL     1       5.535   5.499  16.323  0.00  0.00    +0.000 A 
ATOM     14  C   UNL     1       4.930   5.421  17.671  0.00  0.00    +0.000 A 
ATOM     15  C   UNL     1       5.119   5.677  14.884  0.00  0.00    +0.000 C 
ATOM     16  C   UNL     1       6.041   4.653  14.131  0.00  0.00    +0.000 C 
ATOM     17  C   UNL     1       7.358   4.614  14.961  0.00  0.00    +0.000 C 
ENDBRANCH   4   6
BRANCH   5  18
ATOM     18  N   UNL     1       2.745   8.242  18.177  0.00  0.00    +0.000 N 
ATOM     19  H   UNL     1       2.061   8.695  17.586  0.00  0.00    +0.000 HD
ATOM     20  H   UNL     1       3.582   8.816  18.349  0.00  0.00    +0.000 HD
ENDBRANCH   5  18
BRANCH   1  21
ATOM     21  C   UNL     1       0.980   8.768  20.638  0.00  0.00    +0.000 C 
ATOM     22  O   UNL     1       0.426   9.478  19.789  0.00  0.00    +0.000 OA
BRANCH  21  23
ATOM     23  O   UNL     1       0.982   9.085  21.969  0.00  0.00    +0.000 OA
BRANCH  23  25
ATOM     24  C   UNL     1      -0.717  10.596  22.927  0.00  0.00    +0.000 C 
ATOM     25  C   UNL     1      -0.330   9.163  22.587  0.00  0.00    +0.000 C 
ENDBRANCH  23  25
ENDBRANCH  21  23
ENDBRANCH   1  21
TORSDOF 5
ENDMDL
MODEL 6
REMARK VINA RESULT:      -6.9      1.223      2.096
REMARK  Name = 
REMARK  6 active torsions:
REMARK  status: ('A' for Active; 'I' for Inactive)
REMARK    1  A    between atoms: C_1  and  C_2
REMARK    2  A    between atoms: C_2  and  O_3
REMARK    3  A    between atoms: O_3  and  C_4
REMARK    4  A    between atoms: C_4  and  C_6
REMARK    5  A    between atoms: N_9  and  C_10
REMARK    6  A    between atoms: C_22  and  N_23
REMARK                            x       y       z     vdW  Elec       q    Type
REMARK                         _______ _______ _______ _____ _____    ______ ____
ROOT
ATOM      1  C   UNL     1       1.078   9.544  19.879  0.00  0.00    +0.000 A 
ATOM      2  C   UNL     1       1.221   8.534  20.837  0.00  0.00    +0.000 A 
ATOM      3  N   UNL     1       1.768   7.425  20.349  0.00  0.00    +0.000 NA
ATOM      4  N   UNL     1       2.069   7.691  19.022  0.00  0.00    +0.000 N 
ATOM      5  C   UNL     1       1.669   9.004  18.715  0.00  0.00    +0.000 A 
ENDROOT
BRANCH   4   6
ATOM      6  C   UNL     1       2.729   6.611  18.252  0.00  0.00    +0.000 A 
ATOM      7  N   UNL     1       2.021   5.443  18.375  0.00  0.00    +0.000 NA
ATOM      8  C   UNL     1       2.469   4.646  19.350  0.00  0.00    +0.000 A 
ATOM      9  N   UNL     1       3.699   4.665  19.865  0.00  0.00    +0.000 NA
ATOM     10  C   UNL     1       4.527   5.363  19.070  0.00  0.00    +0.000 A 
ATOM     11  S   UNL     1       6.132   4.782  18.877  0.00  0.00    +0.000 S 
ATOM     12  C   UNL     1       6.069   5.263  17.282  0.00  0.00    +0.000 A 
ATOM     13  C   UNL     1       5.088   6.205  17.021  0.00  0.00    +0.000 A 
ATOM     14  C   UNL     1       4.146   6.369  18.151  0.00  0.00    +0.000 A 
ATOM     15  C   UNL     1       5.188   6.526  15.551  0.00  0.00    +0.000 C 
ATOM     16  C   UNL     1       5.838   5.225  14.959  0.00  0.00    +0.000 C 
ATOM     17  C   UNL     1       6.758   4.685  16.094  0.00  0.00    +0.000 C 
ENDBRANCH   4   6
BRANCH   5  18
ATOM     18  N   UNL     1       1.817   9.621  17.528  0.00  0.00    +0.000 N 
ATOM     19  H   UNL     1       2.714   9.759  17.081  0.00  0.00    +0.000 HD
ATOM     20  H   UNL     1       1.034   9.559  16.864  0.00  0.00    +0.000 HD
ENDBRANCH   5  18
BRANCH   1  21
ATOM     21  C   UNL     1       0.454  10.859  19.990  0.00  0.00    +0.000 C 
ATOM     22  O   UNL     1       0.560  11.533  21.023  0.00  0.00    +0.000 OA
BRANCH  21  23
ATOM     23  O   UNL     1      -0.224  11.306  18.891  0.00  0.00    +0.000 OA
BRANCH  23  25
ATOM     24  C   UNL     1      -1.806  10.090  17.437  0.00  0.00    +0.000 C 
ATOM     25  C   UNL     1      -1.584  10.812  18.760  0.00  0.00    +0.000 C 
ENDBRANCH  23  25
ENDBRANCH  21  23
ENDBRANCH   1  21
TORSDOF 5
ENDMDL
MODEL 7
REMARK VINA RESULT:      -6.8      4.897      6.775
REMARK  Name = 
REMARK  6 active torsions:
REMARK  status: ('A' for Active; 'I' for Inactive)
REMARK    1  A    between atoms: C_1  and  C_2
REMARK    2  A    between atoms: C_2  and  O_3
REMARK    3  A    between atoms: O_3  and  C_4
REMARK    4  A    between atoms: C_4  and  C_6
REMARK    5  A    between atoms: N_9  and  C_10
REMARK    6  A    between atoms: C_22  and  N_23
REMARK                            x       y       z     vdW  Elec       q    Type
REMARK                         _______ _______ _______ _____ _____    ______ ____
ROOT
ATOM      1  C   UNL     1       7.661   7.023  18.537  0.00  0.00    +0.000 A 
ATOM      2  C   UNL     1       8.155   6.165  19.525  0.00  0.00    +0.000 A 
ATOM      3  N   UNL     1       7.311   5.186  19.837  0.00  0.00    +0.000 NA
ATOM      4  N   UNL     1       6.217   5.333  18.999  0.00  0.00    +0.000 N 
ATOM      5  C   UNL     1       6.422   6.452  18.171  0.00  0.00    +0.000 A 
ENDROOT
BRANCH   4   6
ATOM      6  C   UNL     1       5.134   4.330  19.124  0.00  0.00    +0.000 A 
ATOM      7  N   UNL     1       5.415   3.234  18.349  0.00  0.00    +0.000 NA
ATOM      8  C   UNL     1       4.858   3.279  17.136  0.00  0.00    +0.000 A 
ATOM      9  N   UNL     1       3.787   3.999  16.800  0.00  0.00    +0.000 NA
ATOM     10  C   UNL     1       3.146   4.425  17.901  0.00  0.00    +0.000 A 
ATOM     11  S   UNL     1       1.429   4.445  17.871  0.00  0.00    +0.000 S 
ATOM     12  C   UNL     1       1.438   3.970  19.469  0.00  0.00    +0.000 A 
ATOM     13  C   UNL     1       2.636   4.217  20.118  0.00  0.00    +0.000 A 
ATOM     14  C   UNL     1       3.720   4.594  19.183  0.00  0.00    +0.000 A 
ATOM     15  C   UNL     1       2.456   3.740  21.538  0.00  0.00    +0.000 C 
ATOM     16  C   UNL     1       1.331   2.654  21.395  0.00  0.00    +0.000 C 
ATOM     17  C   UNL     1       0.443   3.149  20.216  0.00  0.00    +0.000 C 
ENDBRANCH   4   6
BRANCH   5  18
ATOM     18  N   UNL     1       5.582   6.895  17.216  0.00  0.00    +0.000 N 
ATOM     19  H   UNL     1       5.194   7.830  17.206  0.00  0.00    +0.000 HD
ATOM     20  H   UNL     1       5.672   6.479  16.280  0.00  0.00    +0.000 HD
ENDBRANCH   5  18
BRANCH   1  21
ATOM     21  C   UNL     1       8.233   8.248  17.987  0.00  0.00    +0.000 C 
ATOM     22  O   UNL     1       8.075   8.551  16.798  0.00  0.00    +0.000 OA
BRANCH  21  23
ATOM     23  O   UNL     1       8.925   9.042  18.859  0.00  0.00    +0.000 OA
BRANCH  23  25
ATOM     24  C   UNL     1      10.280  11.102  18.977  0.00  0.00    +0.000 C 
ATOM     25  C   UNL     1       8.992  10.447  18.496  0.00  0.00    +0.000 C 
ENDBRANCH  23  25
ENDBRANCH  21  23
ENDBRANCH   1  21
TORSDOF 5
ENDMDL
MODEL 8
REMARK VINA RESULT:      -6.8      1.103      1.213
REMARK  Name = 
REMARK  6 active torsions:
REMARK  status: ('A' for Active; 'I' for Inactive)
REMARK    1  A    between atoms: C_1  and  C_2
REMARK    2  A    between atoms: C_2  and  O_3
REMARK    3  A    between atoms: O_3  and  C_4
REMARK    4  A    between atoms: C_4  and  C_6
REMARK    5  A    between atoms: N_9  and  C_10
REMARK    6  A    between atoms: C_22  and  N_23
REMARK                            x       y       z     vdW  Elec       q    Type
REMARK                         _______ _______ _______ _____ _____    ______ ____
ROOT
ATOM      1  C   UNL     1       1.488   8.518  20.063  0.00  0.00    +0.000 A 
ATOM      2  C   UNL     1       1.698   9.062  18.792  0.00  0.00    +0.000 A 
ATOM      3  N   UNL     1       2.417   8.275  17.998  0.00  0.00    +0.000 NA
ATOM      4  N   UNL     1       2.666   7.118  18.720  0.00  0.00    +0.000 N 
ATOM      5  C   UNL     1       2.083   7.238  19.994  0.00  0.00    +0.000 A 
ENDROOT
BRANCH   4   6
ATOM      6  C   UNL     1       3.429   6.048  18.035  0.00  0.00    +0.000 A 
ATOM      7  N   UNL     1       3.099   4.824  18.558  0.00  0.00    +0.000 NA
ATOM      8  C   UNL     1       3.926   4.415  19.525  0.00  0.00    +0.000 A 
ATOM      9  N   UNL     1       5.181   4.829  19.699  0.00  0.00    +0.000 NA
ATOM     10  C   UNL     1       5.620   5.467  18.601  0.00  0.00    +0.000 A 
ATOM     11  S   UNL     1       7.252   5.218  18.129  0.00  0.00    +0.000 S 
ATOM     12  C   UNL     1       6.753   5.257  16.539  0.00  0.00    +0.000 A 
ATOM     13  C   UNL     1       5.523   5.867  16.354  0.00  0.00    +0.000 A 
ATOM     14  C   UNL     1       4.810   6.102  17.630  0.00  0.00    +0.000 A 
ATOM     15  C   UNL     1       5.244   5.822  14.872  0.00  0.00    +0.000 C 
ATOM     16  C   UNL     1       6.092   4.587  14.401  0.00  0.00    +0.000 C 
ATOM     17  C   UNL     1       7.326   4.562  15.351  0.00  0.00    +0.000 C 
ENDBRANCH   4   6
BRANCH   5  18
ATOM     18  N   UNL     1       2.100   6.305  20.966  0.00  0.00    +0.000 N 
ATOM     19  H   UNL     1       1.893   6.508  21.935  0.00  0.00    +0.000 HD
ATOM     20  H   UNL     1       1.882   5.338  20.694  0.00  0.00    +0.000 HD
ENDBRANCH   5  18
BRANCH   1  21
ATOM     21  C   UNL     1       0.835   9.095  21.234  0.00  0.00    +0.000 C 
ATOM     22  O   UNL     1       1.313   8.957  22.367  0.00  0.00    +0.000 OA
BRANCH  21  23
ATOM     23  O   UNL     1      -0.308   9.809  21.004  0.00  0.00    +0.000 OA
BRANCH  23  25
ATOM     24  C   UNL     1      -0.949  11.513  22.670  0.00  0.00    +0.000 C 
ATOM     25  C   UNL     1      -0.239  11.217  21.356  0.00  0.00    +0.000 C 
ENDBRANCH  23  25
ENDBRANCH  21  23
ENDBRANCH   1  21
TORSDOF 5
ENDMDL
MODEL 9
REMARK VINA RESULT:      -6.8      4.732      8.023
REMARK  Name = 
REMARK  6 active torsions:
REMARK  status: ('A' for Active; 'I' for Inactive)
REMARK    1  A    between atoms: C_1  and  C_2
REMARK    2  A    between atoms: C_2  and  O_3
REMARK    3  A    between atoms: O_3  and  C_4
REMARK    4  A    between atoms: C_4  and  C_6
REMARK    5  A    between atoms: N_9  and  C_10
REMARK    6  A    between atoms: C_22  and  N_23
REMARK                            x       y       z     vdW  Elec       q    Type
REMARK                         _______ _______ _______ _____ _____    ______ ____
ROOT
ATOM      1  C   UNL     1       6.543   4.514  14.000  0.00  0.00    +0.000 A 
ATOM      2  C   UNL     1       7.594   5.305  14.478  0.00  0.00    +0.000 A 
ATOM      3  N   UNL     1       7.310   5.912  15.625  0.00  0.00    +0.000 NA
ATOM      4  N   UNL     1       6.043   5.485  15.990  0.00  0.00    +0.000 N 
ATOM      5  C   UNL     1       5.557   4.603  15.008  0.00  0.00    +0.000 A 
ENDROOT
BRANCH   4   6
ATOM      6  C   UNL     1       5.502   5.997  17.271  0.00  0.00    +0.000 A 
ATOM      7  N   UNL     1       6.521   6.189  18.169  0.00  0.00    +0.000 NA
ATOM      8  C   UNL     1       6.718   5.150  18.985  0.00  0.00    +0.000 A 
ATOM      9  N   UNL     1       5.814   4.217  19.286  0.00  0.00    +0.000 NA
ATOM     10  C   UNL     1       4.585   4.622  18.921  0.00  0.00    +0.000 A 
ATOM     11  S   UNL     1       3.273   4.230  19.958  0.00  0.00    +0.000 S 
ATOM     12  C   UNL     1       2.605   5.715  19.602  0.00  0.00    +0.000 A 
ATOM     13  C   UNL     1       3.095   6.284  18.438  0.00  0.00    +0.000 A 
ATOM     14  C   UNL     1       4.288   5.577  17.921  0.00  0.00    +0.000 A 
ATOM     15  C   UNL     1       2.376   7.600  18.273  0.00  0.00    +0.000 C 
ATOM     16  C   UNL     1       1.975   7.959  19.748  0.00  0.00    +0.000 C 
ATOM     17  C   UNL     1       1.737   6.587  20.444  0.00  0.00    +0.000 C 
ENDBRANCH   4   6
BRANCH   5  18
ATOM     18  N   UNL     1       4.368   3.971  15.028  0.00  0.00    +0.000 N 
ATOM     19  H   UNL     1       4.198   3.123  15.552  0.00  0.00    +0.000 HD
ATOM     20  H   UNL     1       3.526   4.547  14.897  0.00  0.00    +0.000 HD
ENDBRANCH   5  18
BRANCH   1  21
ATOM     21  C   UNL     1       6.425   3.766  12.752  0.00  0.00    +0.000 C 
ATOM     22  O   UNL     1       7.257   3.898  11.845  0.00  0.00    +0.000 OA
BRANCH  21  23
ATOM     23  O   UNL     1       5.369   2.904  12.656  0.00  0.00    +0.000 OA
BRANCH  23  25
ATOM     24  C   UNL     1       3.625   3.268  10.948  0.00  0.00    +0.000 C 
ATOM     25  C   UNL     1       4.944   2.595  11.302  0.00  0.00    +0.000 C 
ENDBRANCH  23  25
ENDBRANCH  21  23
ENDBRANCH   1  21
TORSDOF 5
ENDMDL
