MODEL 1
REMARK VINA RESULT:      -8.8      0.000      0.000
REMARK  Name = 
REMARK  3 active torsions:
REMARK  status: ('A' for Active; 'I' for Inactive)
REMARK    1  A    between atoms: N_3  and  C_4
REMARK    2  A    between atoms: N_12  and  C_13
REMARK    3  A    between atoms: C_20  and  N_21
REMARK                            x       y       z     vdW  Elec       q    Type
REMARK                         _______ _______ _______ _____ _____    ______ ____
ROOT
ATOM      1  C   UNL     1       1.923   6.025  20.412  0.00  0.00    +0.000 A 
ATOM      2  C   UNL     1       1.011   5.060  20.807  0.00  0.00    +0.000 A 
ATOM      3  C   UNL     1       1.102   3.763  20.294  0.00  0.00    +0.000 A 
ATOM      4  C   UNL     1       2.105   3.384  19.416  0.00  0.00    +0.000 A 
ATOM      5  N   UNL     1       2.103   2.114  18.996  0.00  0.00    +0.000 NA
ATOM      6  C   UNL     1       3.066   1.739  18.140  0.00  0.00    +0.000 A 
ATOM      7  C   UNL     1       4.053   2.589  17.679  0.00  0.00    +0.000 A 
ATOM      8  C   UNL     1       4.084   3.926  18.092  0.00  0.00    +0.000 A 
ATOM      9  C   UNL     1       3.057   4.345  18.994  0.00  0.00    +0.000 A 
ATOM     10  C   UNL     1       2.890   5.670  19.471  0.00  0.00    +0.000 A 
ENDROOT
BRANCH   8  11
ATOM     11  N   UNL     1       5.053   4.781  17.586  0.00  0.00    +0.000 N 
ATOM     12  C   UNL     1       6.237   5.169  18.371  0.00  0.00    +0.000 C 
ATOM     13  C   UNL     1       7.484   5.060  17.463  0.00  0.00    +0.000 C 
ATOM     14  N   UNL     1       7.387   5.842  16.211  0.00  0.00    +0.000 NA
ATOM     15  C   UNL     1       6.130   5.514  15.507  0.00  0.00    +0.000 C 
ATOM     16  C   UNL     1       4.868   5.639  16.403  0.00  0.00    +0.000 C 
ATOM     17  H   UNL     1       8.176   5.598  15.614  0.00  0.00    +0.000 HD
ENDBRANCH   8  11
BRANCH   1  21
ATOM     18  O   UNL     1      -0.304   7.765  21.148  0.00  0.00    +0.000 OA
ATOM     19  C   UNL     1       0.861   8.141  21.201  0.00  0.00    +0.000 C 
ATOM     20  N   UNL     1       1.251   9.429  21.539  0.00  0.00    +0.000 N 
ATOM     21  N   UNL     1       1.953   7.353  20.893  0.00  0.00    +0.000 N 
ATOM     22  H   UNL     1       2.219   9.663  21.380  0.00  0.00    +0.000 HD
ATOM     23  H   UNL     1       2.858   7.713  21.153  0.00  0.00    +0.000 HD
BRANCH  20  24
ATOM     24  C   UNL     1       0.382  10.506  21.827  0.00  0.00    +0.000 A 
ATOM     25  C   UNL     1      -0.537  10.496  22.880  0.00  0.00    +0.000 A 
ATOM     26  C   UNL     1      -1.418  11.564  23.071  0.00  0.00    +0.000 A 
ATOM     27  C   UNL     1      -1.384  12.662  22.214  0.00  0.00    +0.000 A 
ATOM     28 CL   UNL     1      -2.517  13.934  22.492  0.00  0.00    +0.000 Cl
ATOM     29  C   UNL     1      -0.451  12.695  21.174  0.00  0.00    +0.000 A 
ATOM     30 CL   UNL     1      -0.351  14.018  20.065  0.00  0.00    +0.000 Cl
ATOM     31  C   UNL     1       0.436  11.626  20.990  0.00  0.00    +0.000 A 
ENDBRANCH  20  24
ENDBRANCH   1  21
TORSDOF 3
ENDMDL
MODEL 2
REMARK VINA RESULT:      -8.7      0.549      1.094
REMARK  Name = 
REMARK  3 active torsions:
REMARK  status: ('A' for Active; 'I' for Inactive)
REMARK    1  A    between atoms: N_3  and  C_4
REMARK    2  A    between atoms: N_12  and  C_13
REMARK    3  A    between atoms: C_20  and  N_21
REMARK                            x       y       z     vdW  Elec       q    Type
REMARK                         _______ _______ _______ _____ _____    ______ ____
ROOT
ATOM      1  C   UNL     1       1.965   5.936  20.387  0.00  0.00    +0.000 A 
ATOM      2  C   UNL     1       1.082   4.956  20.809  0.00  0.00    +0.000 A 
ATOM      3  C   UNL     1       1.213   3.648  20.333  0.00  0.00    +0.000 A 
ATOM      4  C   UNL     1       2.228   3.274  19.467  0.00  0.00    +0.000 A 
ATOM      5  N   UNL     1       2.264   1.994  19.084  0.00  0.00    +0.000 NA
ATOM      6  C   UNL     1       3.240   1.623  18.240  0.00  0.00    +0.000 A 
ATOM      7  C   UNL     1       4.202   2.488  17.755  0.00  0.00    +0.000 A 
ATOM      8  C   UNL     1       4.192   3.837  18.130  0.00  0.00    +0.000 A 
ATOM      9  C   UNL     1       3.151   4.251  19.019  0.00  0.00    +0.000 A 
ATOM     10  C   UNL     1       2.944   5.583  19.458  0.00  0.00    +0.000 A 
ENDROOT
BRANCH   8  11
ATOM     11  N   UNL     1       5.136   4.706  17.601  0.00  0.00    +0.000 N 
ATOM     12  C   UNL     1       4.862   5.521  16.406  0.00  0.00    +0.000 C 
ATOM     13  C   UNL     1       5.351   6.964  16.674  0.00  0.00    +0.000 C 
ATOM     14  N   UNL     1       6.773   7.052  17.072  0.00  0.00    +0.000 NA
ATOM     15  C   UNL     1       7.040   6.133  18.198  0.00  0.00    +0.000 C 
ATOM     16  C   UNL     1       6.570   4.677  17.934  0.00  0.00    +0.000 C 
ATOM     17  H   UNL     1       6.969   8.007  17.369  0.00  0.00    +0.000 HD
ENDBRANCH   8  11
BRANCH   1  21
ATOM     18  O   UNL     1      -0.308   7.601  21.155  0.00  0.00    +0.000 OA
ATOM     19  C   UNL     1       0.841   8.028  21.156  0.00  0.00    +0.000 C 
ATOM     20  N   UNL     1       1.186   9.340  21.443  0.00  0.00    +0.000 N 
ATOM     21  N   UNL     1       1.955   7.278  20.830  0.00  0.00    +0.000 N 
ATOM     22  H   UNL     1       2.137   9.610  21.242  0.00  0.00    +0.000 HD
ATOM     23  H   UNL     1       2.851   7.683  21.046  0.00  0.00    +0.000 HD
BRANCH  20  24
ATOM     24  C   UNL     1       0.282  10.387  21.732  0.00  0.00    +0.000 A 
ATOM     25  C   UNL     1      -0.490  10.441  22.897  0.00  0.00    +0.000 A 
ATOM     26  C   UNL     1      -1.418  11.467  23.093  0.00  0.00    +0.000 A 
ATOM     27  C   UNL     1      -1.579  12.461  22.130  0.00  0.00    +0.000 A 
ATOM     28 CL   UNL     1      -2.760  13.684  22.425  0.00  0.00    +0.000 Cl
ATOM     29  C   UNL     1      -0.793  12.433  20.974  0.00  0.00    +0.000 A 
ATOM     30 CL   UNL     1      -0.938  13.624  19.729  0.00  0.00    +0.000 Cl
ATOM     31  C   UNL     1       0.142  11.405  20.783  0.00  0.00    +0.000 A 
ENDBRANCH  20  24
ENDBRANCH   1  21
TORSDOF 3
ENDMDL
MODEL 3
REMARK VINA RESULT:      -8.4      0.614      1.325
REMARK  Name = 
REMARK  3 active torsions:
REMARK  status: ('A' for Active; 'I' for Inactive)
REMARK    1  A    between atoms: N_3  and  C_4
REMARK    2  A    between atoms: N_12  and  C_13
REMARK    3  A    between atoms: C_20  and  N_21
REMARK                            x       y       z     vdW  Elec       q    Type
REMARK                         _______ _______ _______ _____ _____    ______ ____
ROOT
ATOM      1  C   UNL     1       1.897   6.051  20.463  0.00  0.00    +0.000 A 
ATOM      2  C   UNL     1       0.952   5.101  20.813  0.00  0.00    +0.000 A 
ATOM      3  C   UNL     1       1.007   3.822  20.252  0.00  0.00    +0.000 A 
ATOM      4  C   UNL     1       2.006   3.445  19.369  0.00  0.00    +0.000 A 
ATOM      5  N   UNL     1       1.968   2.193  18.901  0.00  0.00    +0.000 NA
ATOM      6  C   UNL     1       2.928   1.820  18.040  0.00  0.00    +0.000 A 
ATOM      7  C   UNL     1       3.946   2.654  17.620  0.00  0.00    +0.000 A 
ATOM      8  C   UNL     1       4.014   3.973  18.083  0.00  0.00    +0.000 A 
ATOM      9  C   UNL     1       2.992   4.390  18.992  0.00  0.00    +0.000 A 
ATOM     10  C   UNL     1       2.862   5.701  19.518  0.00  0.00    +0.000 A 
ENDROOT
BRANCH   8  11
ATOM     11  N   UNL     1       5.015   4.816  17.619  0.00  0.00    +0.000 N 
ATOM     12  C   UNL     1       6.225   5.097  18.409  0.00  0.00    +0.000 C 
ATOM     13  C   UNL     1       7.454   4.992  17.475  0.00  0.00    +0.000 C 
ATOM     14  N   UNL     1       7.376   5.860  16.279  0.00  0.00    +0.000 NA
ATOM     15  C   UNL     1       6.096   5.636  15.576  0.00  0.00    +0.000 C 
ATOM     16  C   UNL     1       4.853   5.758  16.498  0.00  0.00    +0.000 C 
ATOM     17  H   UNL     1       8.145   5.621  15.654  0.00  0.00    +0.000 HD
ENDBRANCH   8  11
BRANCH   1  21
ATOM     18  O   UNL     1      -0.176   8.105  20.558  0.00  0.00    +0.000 OA
ATOM     19  C   UNL     1       0.955   8.301  20.988  0.00  0.00    +0.000 C 
ATOM     20  N   UNL     1       1.398   9.515  21.492  0.00  0.00    +0.000 N 
ATOM     21  N   UNL     1       1.964   7.358  20.995  0.00  0.00    +0.000 N 
ATOM     22  H   UNL     1       2.391   9.600  21.652  0.00  0.00    +0.000 HD
ATOM     23  H   UNL     1       2.784   7.577  21.539  0.00  0.00    +0.000 HD
BRANCH  20  24
ATOM     24  C   UNL     1       0.646  10.710  21.550  0.00  0.00    +0.000 A 
ATOM     25  C   UNL     1       0.997  11.877  20.866  0.00  0.00    +0.000 A 
ATOM     26  C   UNL     1       0.250  13.048  21.019  0.00  0.00    +0.000 A 
ATOM     27  C   UNL     1      -0.866  13.064  21.853  0.00  0.00    +0.000 A 
ATOM     28 CL   UNL     1      -1.728  14.550  22.016  0.00  0.00    +0.000 Cl
ATOM     29  C   UNL     1      -1.243  11.895  22.520  0.00  0.00    +0.000 A 
ATOM     30 CL   UNL     1      -2.610  11.835  23.577  0.00  0.00    +0.000 Cl
ATOM     31  C   UNL     1      -0.495  10.720  22.359  0.00  0.00    +0.000 A 
ENDBRANCH  20  24
ENDBRANCH   1  21
TORSDOF 3
ENDMDL
MODEL 4
REMARK VINA RESULT:      -8.3      2.364      2.760
REMARK  Name = 
REMARK  3 active torsions:
REMARK  status: ('A' for Active; 'I' for Inactive)
REMARK    1  A    between atoms: N_3  and  C_4
REMARK    2  A    between atoms: N_12  and  C_13
REMARK    3  A    between atoms: C_20  and  N_21
REMARK                            x       y       z     vdW  Elec       q    Type
REMARK                         _______ _______ _______ _____ _____    ______ ____
ROOT
ATOM      1  C   UNL     1       2.321   7.054  19.114  0.00  0.00    +0.000 A 
ATOM      2  C   UNL     1       1.485   6.580  20.112  0.00  0.00    +0.000 A 
ATOM      3  C   UNL     1       1.680   5.297  20.633  0.00  0.00    +0.000 A 
ATOM      4  C   UNL     1       2.713   4.476  20.210  0.00  0.00    +0.000 A 
ATOM      5  N   UNL     1       2.812   3.273  20.784  0.00  0.00    +0.000 NA
ATOM      6  C   UNL     1       3.804   2.467  20.376  0.00  0.00    +0.000 A 
ATOM      7  C   UNL     1       4.725   2.817  19.406  0.00  0.00    +0.000 A 
ATOM      8  C   UNL     1       4.649   4.066  18.779  0.00  0.00    +0.000 A 
ATOM      9  C   UNL     1       3.589   4.932  19.193  0.00  0.00    +0.000 A 
ATOM     10  C   UNL     1       3.317   6.205  18.631  0.00  0.00    +0.000 A 
ENDROOT
BRANCH   8  11
ATOM     11  N   UNL     1       5.551   4.389  17.774  0.00  0.00    +0.000 N 
ATOM     12  C   UNL     1       5.305   4.040  16.365  0.00  0.00    +0.000 C 
ATOM     13  C   UNL     1       5.636   5.272  15.491  0.00  0.00    +0.000 C 
ATOM     14  N   UNL     1       7.005   5.798  15.686  0.00  0.00    +0.000 NA
ATOM     15  C   UNL     1       7.259   6.025  17.124  0.00  0.00    +0.000 C 
ATOM     16  C   UNL     1       6.948   4.789  18.010  0.00  0.00    +0.000 C 
ATOM     17  H   UNL     1       7.086   6.684  15.189  0.00  0.00    +0.000 HD
ENDBRANCH   8  11
BRANCH   1  21
ATOM     18  O   UNL     1       1.234   9.511  20.258  0.00  0.00    +0.000 OA
ATOM     19  C   UNL     1       1.693   9.470  19.123  0.00  0.00    +0.000 C 
ATOM     20  N   UNL     1       1.687  10.539  18.239  0.00  0.00    +0.000 N 
ATOM     21  N   UNL     1       2.245   8.345  18.542  0.00  0.00    +0.000 N 
ATOM     22  H   UNL     1       1.934  10.334  17.282  0.00  0.00    +0.000 HD
ATOM     23  H   UNL     1       2.754   8.482  17.683  0.00  0.00    +0.000 HD
BRANCH  20  24
ATOM     24  C   UNL     1       1.121  11.810  18.484  0.00  0.00    +0.000 A 
ATOM     25  C   UNL     1      -0.253  12.032  18.615  0.00  0.00    +0.000 A 
ATOM     26  C   UNL     1      -0.756  13.324  18.787  0.00  0.00    +0.000 A 
ATOM     27  C   UNL     1       0.111  14.413  18.841  0.00  0.00    +0.000 A 
ATOM     28 CL   UNL     1      -0.579  15.983  19.031  0.00  0.00    +0.000 Cl
ATOM     29  C   UNL     1       1.489  14.200  18.739  0.00  0.00    +0.000 A 
ATOM     30 CL   UNL     1       2.630  15.499  18.790  0.00  0.00    +0.000 Cl
ATOM     31  C   UNL     1       1.991  12.902  18.573  0.00  0.00    +0.000 A 
ENDBRANCH  20  24
ENDBRANCH   1  21
TORSDOF 3
ENDMDL
MODEL 5
REMARK VINA RESULT:      -8.2      5.315      7.865
REMARK  Name = 
REMARK  3 active torsions:
REMARK  status: ('A' for Active; 'I' for Inactive)
REMARK    1  A    between atoms: N_3  and  C_4
REMARK    2  A    between atoms: N_12  and  C_13
REMARK    3  A    between atoms: C_20  and  N_21
REMARK                            x       y       z     vdW  Elec       q    Type
REMARK                         _______ _______ _______ _____ _____    ______ ____
ROOT
ATOM      1  C   UNL     1       6.357   6.618  17.132  0.00  0.00    +0.000 A 
ATOM      2  C   UNL     1       6.964   5.448  16.708  0.00  0.00    +0.000 A 
ATOM      3  C   UNL     1       6.269   4.237  16.780  0.00  0.00    +0.000 A 
ATOM      4  C   UNL     1       4.963   4.160  17.234  0.00  0.00    +0.000 A 
ATOM      5  N   UNL     1       4.391   2.951  17.251  0.00  0.00    +0.000 NA
ATOM      6  C   UNL     1       3.128   2.865  17.696  0.00  0.00    +0.000 A 
ATOM      7  C   UNL     1       2.393   3.952  18.129  0.00  0.00    +0.000 A 
ATOM      8  C   UNL     1       2.960   5.232  18.132  0.00  0.00    +0.000 A 
ATOM      9  C   UNL     1       4.310   5.339  17.672  0.00  0.00    +0.000 A 
ATOM     10  C   UNL     1       5.069   6.537  17.660  0.00  0.00    +0.000 A 
ENDROOT
BRANCH   8  11
ATOM     11  N   UNL     1       2.229   6.309  18.612  0.00  0.00    +0.000 N 
ATOM     12  C   UNL     1       1.646   6.315  19.963  0.00  0.00    +0.000 C 
ATOM     13  C   UNL     1       1.940   7.685  20.618  0.00  0.00    +0.000 C 
ATOM     14  N   UNL     1       1.475   8.844  19.825  0.00  0.00    +0.000 NA
ATOM     15  C   UNL     1       1.982   8.744  18.441  0.00  0.00    +0.000 C 
ATOM     16  C   UNL     1       1.675   7.380  17.765  0.00  0.00    +0.000 C 
ATOM     17  H   UNL     1       1.836   9.695  20.252  0.00  0.00    +0.000 HD
ENDBRANCH   8  11
BRANCH   1  21
ATOM     18  O   UNL     1       8.573   7.704  18.694  0.00  0.00    +0.000 OA
ATOM     19  C   UNL     1       7.979   8.372  17.855  0.00  0.00    +0.000 C 
ATOM     20  N   UNL     1       8.231   9.713  17.603  0.00  0.00    +0.000 N 
ATOM     21  N   UNL     1       6.945   7.902  17.069  0.00  0.00    +0.000 N 
ATOM     22  H   UNL     1       7.566  10.194  17.018  0.00  0.00    +0.000 HD
ATOM     23  H   UNL     1       6.666   8.483  16.295  0.00  0.00    +0.000 HD
BRANCH  20  24
ATOM     24  C   UNL     1       9.166  10.520  18.290  0.00  0.00    +0.000 A 
ATOM     25  C   UNL     1       9.212  10.635  19.683  0.00  0.00    +0.000 A 
ATOM     26  C   UNL     1      10.114  11.504  20.301  0.00  0.00    +0.000 A 
ATOM     27  C   UNL     1      10.992  12.266  19.531  0.00  0.00    +0.000 A 
ATOM     28 CL   UNL     1      12.062  13.338  20.357  0.00  0.00    +0.000 Cl
ATOM     29  C   UNL     1      10.974  12.139  18.140  0.00  0.00    +0.000 A 
ATOM     30 CL   UNL     1      12.026  13.053  17.116  0.00  0.00    +0.000 Cl
ATOM     31  C   UNL     1      10.072  11.260  17.524  0.00  0.00    +0.000 A 
ENDBRANCH  20  24
ENDBRANCH   1  21
TORSDOF 3
ENDMDL
MODEL 6
REMARK VINA RESULT:      -8.1      1.979      2.399
REMARK  Name = 
REMARK  3 active torsions:
REMARK  status: ('A' for Active; 'I' for Inactive)
REMARK    1  A    between atoms: N_3  and  C_4
REMARK    2  A    between atoms: N_12  and  C_13
REMARK    3  A    between atoms: C_20  and  N_21
REMARK                            x       y       z     vdW  Elec       q    Type
REMARK                         _______ _______ _______ _____ _____    ______ ____
ROOT
ATOM      1  C   UNL     1       2.256   6.816  19.396  0.00  0.00    +0.000 A 
ATOM      2  C   UNL     1       1.496   6.263  20.414  0.00  0.00    +0.000 A 
ATOM      3  C   UNL     1       1.772   4.969  20.866  0.00  0.00    +0.000 A 
ATOM      4  C   UNL     1       2.814   4.214  20.353  0.00  0.00    +0.000 A 
ATOM      5  N   UNL     1       2.994   2.992  20.867  0.00  0.00    +0.000 NA
ATOM      6  C   UNL     1       3.997   2.250  20.373  0.00  0.00    +0.000 A 
ATOM      7  C   UNL     1       4.848   2.681  19.373  0.00  0.00    +0.000 A 
ATOM      8  C   UNL     1       4.686   3.951  18.807  0.00  0.00    +0.000 A 
ATOM      9  C   UNL     1       3.614   4.750  19.314  0.00  0.00    +0.000 A 
ATOM     10  C   UNL     1       3.259   6.033  18.825  0.00  0.00    +0.000 A 
ENDROOT
BRANCH   8  11
ATOM     11  N   UNL     1       5.518   4.356  17.772  0.00  0.00    +0.000 N 
ATOM     12  C   UNL     1       5.198   4.079  16.362  0.00  0.00    +0.000 C 
ATOM     13  C   UNL     1       5.445   5.368  15.543  0.00  0.00    +0.000 C 
ATOM     14  N   UNL     1       6.809   5.922  15.688  0.00  0.00    +0.000 NA
ATOM     15  C   UNL     1       7.141   6.076  17.120  0.00  0.00    +0.000 C 
ATOM     16  C   UNL     1       6.917   4.783  17.950  0.00  0.00    +0.000 C 
ATOM     17  H   UNL     1       6.837   6.836  15.239  0.00  0.00    +0.000 HD
ENDBRANCH   8  11
BRANCH   1  21
ATOM     18  O   UNL     1       1.011   9.138  20.656  0.00  0.00    +0.000 OA
ATOM     19  C   UNL     1       1.472   9.182  19.521  0.00  0.00    +0.000 C 
ATOM     20  N   UNL     1       1.395  10.290  18.689  0.00  0.00    +0.000 N 
ATOM     21  N   UNL     1       2.096   8.125  18.887  0.00  0.00    +0.000 N 
ATOM     22  H   UNL     1       1.654  10.148  17.725  0.00  0.00    +0.000 HD
ATOM     23  H   UNL     1       2.593   8.337  18.037  0.00  0.00    +0.000 HD
BRANCH  20  24
ATOM     24  C   UNL     1       0.747  11.508  18.995  0.00  0.00    +0.000 A 
ATOM     25  C   UNL     1       1.421  12.720  19.166  0.00  0.00    +0.000 A 
ATOM     26  C   UNL     1       0.732  13.878  19.536  0.00  0.00    +0.000 A 
ATOM     27  C   UNL     1      -0.647  13.839  19.732  0.00  0.00    +0.000 A 
ATOM     28 CL   UNL     1      -1.433  15.299  20.212  0.00  0.00    +0.000 Cl
ATOM     29  C   UNL     1      -1.337  12.639  19.536  0.00  0.00    +0.000 A 
ATOM     30 CL   UNL     1      -3.046  12.508  19.765  0.00  0.00    +0.000 Cl
ATOM     31  C   UNL     1      -0.643  11.482  19.158  0.00  0.00    +0.000 A 
ENDBRANCH  20  24
ENDBRANCH   1  21
TORSDOF 3
ENDMDL
MODEL 7
REMARK VINA RESULT:      -8.1      1.378      1.731
REMARK  Name = 
REMARK  3 active torsions:
REMARK  status: ('A' for Active; 'I' for Inactive)
REMARK    1  A    between atoms: N_3  and  C_4
REMARK    2  A    between atoms: N_12  and  C_13
REMARK    3  A    between atoms: C_20  and  N_21
REMARK                            x       y       z     vdW  Elec       q    Type
REMARK                         _______ _______ _______ _____ _____    ______ ____
ROOT
ATOM      1  C   UNL     1       1.984   6.750  19.946  0.00  0.00    +0.000 A 
ATOM      2  C   UNL     1       1.361   5.920  20.863  0.00  0.00    +0.000 A 
ATOM      3  C   UNL     1       1.779   4.593  20.999  0.00  0.00    +0.000 A 
ATOM      4  C   UNL     1       2.832   4.071  20.266  0.00  0.00    +0.000 A 
ATOM      5  N   UNL     1       3.155   2.792  20.485  0.00  0.00    +0.000 NA
ATOM      6  C   UNL     1       4.170   2.275  19.775  0.00  0.00    +0.000 A 
ATOM      7  C   UNL     1       4.895   2.992  18.842  0.00  0.00    +0.000 A 
ATOM      8  C   UNL     1       4.582   4.332  18.583  0.00  0.00    +0.000 A 
ATOM      9  C   UNL     1       3.495   4.894  19.322  0.00  0.00    +0.000 A 
ATOM     10  C   UNL     1       2.996   6.211  19.152  0.00  0.00    +0.000 A 
ENDROOT
BRANCH   8  11
ATOM     11  N   UNL     1       5.288   5.028  17.611  0.00  0.00    +0.000 N 
ATOM     12  C   UNL     1       6.042   6.253  17.924  0.00  0.00    +0.000 C 
ATOM     13  C   UNL     1       7.428   6.162  17.244  0.00  0.00    +0.000 C 
ATOM     14  N   UNL     1       7.368   5.923  15.785  0.00  0.00    +0.000 NA
ATOM     15  C   UNL     1       6.507   4.756  15.500  0.00  0.00    +0.000 C 
ATOM     16  C   UNL     1       5.105   4.845  16.161  0.00  0.00    +0.000 C 
ATOM     17  H   UNL     1       8.311   5.731  15.449  0.00  0.00    +0.000 HD
ENDBRANCH   8  11
BRANCH   1  21
ATOM     18  O   UNL     1       1.218   8.762  21.919  0.00  0.00    +0.000 OA
ATOM     19  C   UNL     1       1.290   9.019  20.722  0.00  0.00    +0.000 C 
ATOM     20  N   UNL     1       0.955  10.244  20.165  0.00  0.00    +0.000 N 
ATOM     21  N   UNL     1       1.674   8.115  19.750  0.00  0.00    +0.000 N 
ATOM     22  H   UNL     1       0.891  10.278  19.159  0.00  0.00    +0.000 HD
ATOM     23  H   UNL     1       1.874   8.491  18.837  0.00  0.00    +0.000 HD
BRANCH  20  24
ATOM     24  C   UNL     1       0.445  11.358  20.867  0.00  0.00    +0.000 A 
ATOM     25  C   UNL     1       1.035  12.626  20.839  0.00  0.00    +0.000 A 
ATOM     26  C   UNL     1       0.522  13.671  21.611  0.00  0.00    +0.000 A 
ATOM     27  C   UNL     1      -0.597  13.465  22.416  0.00  0.00    +0.000 A 
ATOM     28 CL   UNL     1      -1.162  14.793  23.362  0.00  0.00    +0.000 Cl
ATOM     29  C   UNL     1      -1.212  12.210  22.430  0.00  0.00    +0.000 A 
ATOM     30 CL   UNL     1      -2.599  11.873  23.406  0.00  0.00    +0.000 Cl
ATOM     31  C   UNL     1      -0.699  11.165  21.649  0.00  0.00    +0.000 A 
ENDBRANCH  20  24
ENDBRANCH   1  21
TORSDOF 3
ENDMDL
MODEL 8
REMARK VINA RESULT:      -8.1      7.381     11.084
REMARK  Name = 
REMARK  3 active torsions:
REMARK  status: ('A' for Active; 'I' for Inactive)
REMARK    1  A    between atoms: N_3  and  C_4
REMARK    2  A    between atoms: N_12  and  C_13
REMARK    3  A    between atoms: C_20  and  N_21
REMARK                            x       y       z     vdW  Elec       q    Type
REMARK                         _______ _______ _______ _____ _____    ______ ____
ROOT
ATOM      1  C   UNL     1       9.648  10.861  18.988  0.00  0.00    +0.000 A 
ATOM      2  C   UNL     1      10.346  11.466  17.956  0.00  0.00    +0.000 A 
ATOM      3  C   UNL     1      10.581  12.844  17.988  0.00  0.00    +0.000 A 
ATOM      4  C   UNL     1      10.167  13.641  19.043  0.00  0.00    +0.000 A 
ATOM      5  N   UNL     1      10.454  14.945  18.973  0.00  0.00    +0.000 NA
ATOM      6  C   UNL     1      10.051  15.727  19.987  0.00  0.00    +0.000 A 
ATOM      7  C   UNL     1       9.366  15.256  21.091  0.00  0.00    +0.000 A 
ATOM      8  C   UNL     1       9.043  13.898  21.196  0.00  0.00    +0.000 A 
ATOM      9  C   UNL     1       9.453  13.054  20.117  0.00  0.00    +0.000 A 
ATOM     10  C   UNL     1       9.163  11.669  20.017  0.00  0.00    +0.000 A 
ENDROOT
BRANCH   8  11
ATOM     11  N   UNL     1       8.314  13.445  22.287  0.00  0.00    +0.000 N 
ATOM     12  C   UNL     1       7.014  14.030  22.653  0.00  0.00    +0.000 C 
ATOM     13  C   UNL     1       6.028  12.879  22.959  0.00  0.00    +0.000 C 
ATOM     14  N   UNL     1       6.506  11.936  23.994  0.00  0.00    +0.000 NA
ATOM     15  C   UNL     1       7.862  11.459  23.654  0.00  0.00    +0.000 C 
ATOM     16  C   UNL     1       8.868  12.606  23.363  0.00  0.00    +0.000 C 
ATOM     17  H   UNL     1       5.871  11.140  24.026  0.00  0.00    +0.000 HD
ENDBRANCH   8  11
BRANCH   1  21
ATOM     18  O   UNL     1       7.635   9.270  17.594  0.00  0.00    +0.000 OA
ATOM     19  C   UNL     1       8.399   8.777  18.417  0.00  0.00    +0.000 C 
ATOM     20  N   UNL     1       8.353   7.454  18.830  0.00  0.00    +0.000 N 
ATOM     21  N   UNL     1       9.387   9.475  19.084  0.00  0.00    +0.000 N 
ATOM     22  H   UNL     1       8.916   7.213  19.632  0.00  0.00    +0.000 HD
ATOM     23  H   UNL     1      10.064   8.928  19.590  0.00  0.00    +0.000 HD
BRANCH  20  24
ATOM     24  C   UNL     1       7.410   6.490  18.410  0.00  0.00    +0.000 A 
ATOM     25  C   UNL     1       6.678   5.689  19.292  0.00  0.00    +0.000 A 
ATOM     26  C   UNL     1       5.811   4.704  18.814  0.00  0.00    +0.000 A 
ATOM     27  C   UNL     1       5.656   4.512  17.442  0.00  0.00    +0.000 A 
ATOM     28 CL   UNL     1       4.588   3.262  16.920  0.00  0.00    +0.000 Cl
ATOM     29  C   UNL     1       6.361   5.326  16.550  0.00  0.00    +0.000 A 
ATOM     30 CL   UNL     1       6.229   5.147  14.835  0.00  0.00    +0.000 Cl
ATOM     31  C   UNL     1       7.225   6.318  17.034  0.00  0.00    +0.000 A 
ENDBRANCH  20  24
ENDBRANCH   1  21
TORSDOF 3
ENDMDL
MODEL 9
REMARK VINA RESULT:      -8.1      0.800      1.708
REMARK  Name = 
REMARK  3 active torsions:
REMARK  status: ('A' for Active; 'I' for Inactive)
REMARK    1  A    between atoms: N_3  and  C_4
REMARK    2  A    between atoms: N_12  and  C_13
REMARK    3  A    between atoms: C_20  and  N_21
REMARK                            x       y       z     vdW  Elec       q    Type
REMARK                         _______ _______ _______ _____ _____    ______ ____
ROOT
ATOM      1  C   UNL     1       1.997   6.016  20.426  0.00  0.00    +0.000 A 
ATOM      2  C   UNL     1       1.058   5.063  20.785  0.00  0.00    +0.000 A 
ATOM      3  C   UNL     1       1.125   3.779  20.236  0.00  0.00    +0.000 A 
ATOM      4  C   UNL     1       2.127   3.401  19.358  0.00  0.00    +0.000 A 
ATOM      5  N   UNL     1       2.099   2.144  18.903  0.00  0.00    +0.000 NA
ATOM      6  C   UNL     1       3.062   1.769  18.046  0.00  0.00    +0.000 A 
ATOM      7  C   UNL     1       4.075   2.607  17.619  0.00  0.00    +0.000 A 
ATOM      8  C   UNL     1       4.133   3.931  18.069  0.00  0.00    +0.000 A 
ATOM      9  C   UNL     1       3.106   4.350  18.973  0.00  0.00    +0.000 A 
ATOM     10  C   UNL     1       2.965   5.665  19.485  0.00  0.00    +0.000 A 
ENDROOT
BRANCH   8  11
ATOM     11  N   UNL     1       5.127   4.777  17.598  0.00  0.00    +0.000 N 
ATOM     12  C   UNL     1       4.942   5.600  16.391  0.00  0.00    +0.000 C 
ATOM     13  C   UNL     1       5.452   7.030  16.691  0.00  0.00    +0.000 C 
ATOM     14  N   UNL     1       6.851   7.081  17.171  0.00  0.00    +0.000 NA
ATOM     15  C   UNL     1       7.029   6.154  18.308  0.00  0.00    +0.000 C 
ATOM     16  C   UNL     1       6.539   4.711  18.013  0.00  0.00    +0.000 C 
ATOM     17  H   UNL     1       7.053   8.030  17.480  0.00  0.00    +0.000 HD
ENDBRANCH   8  11
BRANCH   1  21
ATOM     18  O   UNL     1      -0.087   8.061  20.483  0.00  0.00    +0.000 OA
ATOM     19  C   UNL     1       1.040   8.268  20.920  0.00  0.00    +0.000 C 
ATOM     20  N   UNL     1       1.474   9.489  21.415  0.00  0.00    +0.000 N 
ATOM     21  N   UNL     1       2.054   7.330  20.944  0.00  0.00    +0.000 N 
ATOM     22  H   UNL     1       2.464   9.581  21.582  0.00  0.00    +0.000 HD
ATOM     23  H   UNL     1       2.868   7.558  21.493  0.00  0.00    +0.000 HD
BRANCH  20  24
ATOM     24  C   UNL     1       0.715  10.680  21.454  0.00  0.00    +0.000 A 
ATOM     25  C   UNL     1       1.052  11.835  20.741  0.00  0.00    +0.000 A 
ATOM     26  C   UNL     1       0.300  13.005  20.876  0.00  0.00    +0.000 A 
ATOM     27  C   UNL     1      -0.807  13.033  21.721  0.00  0.00    +0.000 A 
ATOM     28 CL   UNL     1      -1.676  14.517  21.860  0.00  0.00    +0.000 Cl
ATOM     29  C   UNL     1      -1.170  11.877  22.418  0.00  0.00    +0.000 A 
ATOM     30 CL   UNL     1      -2.526  11.832  23.490  0.00  0.00    +0.000 Cl
ATOM     31  C   UNL     1      -0.418  10.702  22.275  0.00  0.00    +0.000 A 
ENDBRANCH  20  24
ENDBRANCH   1  21
TORSDOF 3
ENDMDL
