MODEL 1
REMARK VINA RESULT:      -7.2      0.000      0.000
REMARK  Name = 
REMARK  8 active torsions:
REMARK  status: ('A' for Active; 'I' for Inactive)
REMARK    1  A    between atoms: C_1  and  O_2
REMARK    2  A    between atoms: O_2  and  C_3
REMARK    3  A    between atoms: C_8  and  C_9
REMARK    4  A    between atoms: N_11  and  C_12
REMARK    5  A    between atoms: C_12  and  C_13
REMARK    6  A    between atoms: C_13  and  C_14
REMARK    7  A    between atoms: C_13  and  O_15
REMARK    8  A    between atoms: O_15  and  C_16
REMARK                            x       y       z     vdW  Elec       q    Type
REMARK                         _______ _______ _______ _____ _____    ______ ____
ROOT
ATOM      1  C   UNL     1       4.246   3.766  17.909  0.00  0.00    +0.000 C 
ATOM      2  O   UNL     1       4.459   2.898  18.765  0.00  0.00    +0.000 OA
ATOM      3  N   UNL     1       3.042   4.416  17.813  0.00  0.00    +0.000 N 
ATOM      4  H   UNL     1       2.881   5.043  17.030  0.00  0.00    +0.000 HD
ENDROOT
BRANCH   1  10
ATOM      5  C   UNL     1       6.614   4.476  17.266  0.00  0.00    +0.000 A 
ATOM      6  N   UNL     1       7.575   4.834  16.375  0.00  0.00    +0.000 NA
ATOM      7  C   UNL     1       7.220   4.899  15.081  0.00  0.00    +0.000 A 
ATOM      8  C   UNL     1       5.961   4.572  14.618  0.00  0.00    +0.000 A 
ATOM      9  C   UNL     1       4.997   4.162  15.545  0.00  0.00    +0.000 A 
ATOM     10  C   UNL     1       5.310   4.113  16.913  0.00  0.00    +0.000 A 
BRANCH   5  12
ATOM     11  C   UNL     1       7.479   5.814  18.944  0.00  0.00    +0.000 C 
ATOM     12  O   UNL     1       6.987   4.517  18.593  0.00  0.00    +0.000 OA
ENDBRANCH   5  12
ENDBRANCH   1  10
BRANCH   3  13
ATOM     13  C   UNL     1       1.931   4.179  18.729  0.00  0.00    +0.000 C 
BRANCH  13  14
ATOM     14  C   UNL     1       1.857   5.171  19.913  0.00  0.00    +0.000 C 
ATOM     15  C   UNL     1       2.234   4.448  21.215  0.00  0.00    +0.000 C 
BRANCH  14  16
ATOM     16  O   UNL     1       2.788   6.245  19.630  0.00  0.00    +0.000 OA
BRANCH  16  17
ATOM     17  C   UNL     1       2.257   7.472  19.344  0.00  0.00    +0.000 A 
ATOM     18  C   UNL     1       2.312   8.084  18.099  0.00  0.00    +0.000 A 
ATOM     19  C   UNL     1       1.738   9.332  17.894  0.00  0.00    +0.000 A 
ATOM     20  C   UNL     1       1.088   9.933  18.952  0.00  0.00    +0.000 A 
ATOM     21  N   UNL     1       0.977   9.367  20.177  0.00  0.00    +0.000 NA
ATOM     22  C   UNL     1       1.557   8.150  20.338  0.00  0.00    +0.000 A 
ENDBRANCH  16  17
ENDBRANCH  14  16
ENDBRANCH  13  14
ENDBRANCH   3  13
TORSDOF 6
ENDMDL
MODEL 2
REMARK VINA RESULT:      -7.0      1.236      1.316
REMARK  Name = 
REMARK  8 active torsions:
REMARK  status: ('A' for Active; 'I' for Inactive)
REMARK    1  A    between atoms: C_1  and  O_2
REMARK    2  A    between atoms: O_2  and  C_3
REMARK    3  A    between atoms: C_8  and  C_9
REMARK    4  A    between atoms: N_11  and  C_12
REMARK    5  A    between atoms: C_12  and  C_13
REMARK    6  A    between atoms: C_13  and  C_14
REMARK    7  A    between atoms: C_13  and  O_15
REMARK    8  A    between atoms: O_15  and  C_16
REMARK                            x       y       z     vdW  Elec       q    Type
REMARK                         _______ _______ _______ _____ _____    ______ ____
ROOT
ATOM      1  C   UNL     1       4.290   3.763  17.114  0.00  0.00    +0.000 C 
ATOM      2  O   UNL     1       3.126   3.655  16.707  0.00  0.00    +0.000 OA
ATOM      3  N   UNL     1       4.626   3.553  18.427  0.00  0.00    +0.000 N 
ATOM      4  H   UNL     1       5.573   3.756  18.733  0.00  0.00    +0.000 HD
ENDROOT
BRANCH   1  10
ATOM      5  C   UNL     1       6.386   5.085  16.496  0.00  0.00    +0.000 A 
ATOM      6  N   UNL     1       7.354   5.496  15.635  0.00  0.00    +0.000 NA
ATOM      7  C   UNL     1       7.292   5.033  14.375  0.00  0.00    +0.000 A 
ATOM      8  C   UNL     1       6.340   4.134  13.939  0.00  0.00    +0.000 A 
ATOM      9  C   UNL     1       5.377   3.688  14.851  0.00  0.00    +0.000 A 
ATOM     10  C   UNL     1       5.379   4.170  16.170  0.00  0.00    +0.000 A 
BRANCH   5  12
ATOM     11  C   UNL     1       7.300   6.788  17.768  0.00  0.00    +0.000 C 
ATOM     12  O   UNL     1       6.423   5.658  17.750  0.00  0.00    +0.000 OA
ENDBRANCH   5  12
ENDBRANCH   1  10
BRANCH   3  13
ATOM     13  C   UNL     1       3.661   3.140  19.442  0.00  0.00    +0.000 C 
BRANCH  13  14
ATOM     14  C   UNL     1       2.716   4.265  19.920  0.00  0.00    +0.000 C 
ATOM     15  C   UNL     1       2.165   3.919  21.312  0.00  0.00    +0.000 C 
BRANCH  14  16
ATOM     16  O   UNL     1       3.493   5.488  19.962  0.00  0.00    +0.000 OA
BRANCH  16  17
ATOM     17  C   UNL     1       2.923   6.609  19.425  0.00  0.00    +0.000 A 
ATOM     18  C   UNL     1       3.088   7.025  18.111  0.00  0.00    +0.000 A 
ATOM     19  C   UNL     1       2.464   8.175  17.645  0.00  0.00    +0.000 A 
ATOM     20  C   UNL     1       1.655   8.876  18.516  0.00  0.00    +0.000 A 
ATOM     21  N   UNL     1       1.433   8.498  19.796  0.00  0.00    +0.000 NA
ATOM     22  C   UNL     1       2.066   7.371  20.215  0.00  0.00    +0.000 A 
ENDBRANCH  16  17
ENDBRANCH  14  16
ENDBRANCH  13  14
ENDBRANCH   3  13
TORSDOF 6
ENDMDL
MODEL 3
REMARK VINA RESULT:      -7.0      1.371      1.558
REMARK  Name = 
REMARK  8 active torsions:
REMARK  status: ('A' for Active; 'I' for Inactive)
REMARK    1  A    between atoms: C_1  and  O_2
REMARK    2  A    between atoms: O_2  and  C_3
REMARK    3  A    between atoms: C_8  and  C_9
REMARK    4  A    between atoms: N_11  and  C_12
REMARK    5  A    between atoms: C_12  and  C_13
REMARK    6  A    between atoms: C_13  and  C_14
REMARK    7  A    between atoms: C_13  and  O_15
REMARK    8  A    between atoms: O_15  and  C_16
REMARK                            x       y       z     vdW  Elec       q    Type
REMARK                         _______ _______ _______ _____ _____    ______ ____
ROOT
ATOM      1  C   UNL     1       5.358   4.442  18.359  0.00  0.00    +0.000 C 
ATOM      2  O   UNL     1       5.711   5.205  19.267  0.00  0.00    +0.000 OA
ATOM      3  N   UNL     1       4.430   3.451  18.559  0.00  0.00    +0.000 N 
ATOM      4  H   UNL     1       4.252   2.786  17.812  0.00  0.00    +0.000 HD
ENDROOT
BRANCH   1  10
ATOM      5  C   UNL     1       7.043   5.414  16.704  0.00  0.00    +0.000 A 
ATOM      6  N   UNL     1       7.582   5.564  15.466  0.00  0.00    +0.000 NA
ATOM      7  C   UNL     1       7.001   4.892  14.457  0.00  0.00    +0.000 A 
ATOM      8  C   UNL     1       5.936   4.031  14.629  0.00  0.00    +0.000 A 
ATOM      9  C   UNL     1       5.423   3.854  15.918  0.00  0.00    +0.000 A 
ATOM     10  C   UNL     1       5.973   4.562  16.999  0.00  0.00    +0.000 A 
BRANCH   5  12
ATOM     11  C   UNL     1       7.514   7.583  17.358  0.00  0.00    +0.000 C 
ATOM     12  O   UNL     1       7.600   6.195  17.695  0.00  0.00    +0.000 OA
ENDBRANCH   5  12
ENDBRANCH   1  10
BRANCH   3  13
ATOM     13  C   UNL     1       3.749   3.240  19.831  0.00  0.00    +0.000 C 
BRANCH  13  14
ATOM     14  C   UNL     1       2.350   3.889  19.923  0.00  0.00    +0.000 C 
ATOM     15  C   UNL     1       1.386   2.937  20.648  0.00  0.00    +0.000 C 
BRANCH  14  16
ATOM     16  O   UNL     1       2.501   5.130  20.658  0.00  0.00    +0.000 OA
BRANCH  16  17
ATOM     17  C   UNL     1       2.284   6.292  19.972  0.00  0.00    +0.000 A 
ATOM     18  C   UNL     1       2.507   6.458  18.611  0.00  0.00    +0.000 A 
ATOM     19  C   UNL     1       2.251   7.675  17.992  0.00  0.00    +0.000 A 
ATOM     20  C   UNL     1       1.743   8.703  18.760  0.00  0.00    +0.000 A 
ATOM     21  N   UNL     1       1.477   8.586  20.082  0.00  0.00    +0.000 NA
ATOM     22  C   UNL     1       1.747   7.382  20.651  0.00  0.00    +0.000 A 
ENDBRANCH  16  17
ENDBRANCH  14  16
ENDBRANCH  13  14
ENDBRANCH   3  13
TORSDOF 6
ENDMDL
MODEL 4
REMARK VINA RESULT:      -7.0      0.653      1.087
REMARK  Name = 
REMARK  8 active torsions:
REMARK  status: ('A' for Active; 'I' for Inactive)
REMARK    1  A    between atoms: C_1  and  O_2
REMARK    2  A    between atoms: O_2  and  C_3
REMARK    3  A    between atoms: C_8  and  C_9
REMARK    4  A    between atoms: N_11  and  C_12
REMARK    5  A    between atoms: C_12  and  C_13
REMARK    6  A    between atoms: C_13  and  C_14
REMARK    7  A    between atoms: C_13  and  O_15
REMARK    8  A    between atoms: O_15  and  C_16
REMARK                            x       y       z     vdW  Elec       q    Type
REMARK                         _______ _______ _______ _____ _____    ______ ____
ROOT
ATOM      1  C   UNL     1       4.136   3.738  18.105  0.00  0.00    +0.000 C 
ATOM      2  O   UNL     1       4.299   2.815  18.915  0.00  0.00    +0.000 OA
ATOM      3  N   UNL     1       2.955   4.428  18.014  0.00  0.00    +0.000 N 
ATOM      4  H   UNL     1       2.835   5.103  17.265  0.00  0.00    +0.000 HD
ENDROOT
BRANCH   1  10
ATOM      5  C   UNL     1       6.470   4.627  17.571  0.00  0.00    +0.000 A 
ATOM      6  N   UNL     1       7.461   5.007  16.722  0.00  0.00    +0.000 NA
ATOM      7  C   UNL     1       7.204   4.932  15.405  0.00  0.00    +0.000 A 
ATOM      8  C   UNL     1       6.022   4.444  14.886  0.00  0.00    +0.000 A 
ATOM      9  C   UNL     1       5.031   4.015  15.775  0.00  0.00    +0.000 A 
ATOM     10  C   UNL     1       5.238   4.108  17.160  0.00  0.00    +0.000 A 
BRANCH   5  12
ATOM     11  C   UNL     1       7.824   5.718  19.098  0.00  0.00    +0.000 C 
ATOM     12  O   UNL     1       6.732   4.812  18.913  0.00  0.00    +0.000 OA
ENDBRANCH   5  12
ENDBRANCH   1  10
BRANCH   3  13
ATOM     13  C   UNL     1       1.812   4.173  18.885  0.00  0.00    +0.000 C 
BRANCH  13  14
ATOM     14  C   UNL     1       1.761   5.062  20.148  0.00  0.00    +0.000 C 
ATOM     15  C   UNL     1       2.188   4.240  21.374  0.00  0.00    +0.000 C 
BRANCH  14  16
ATOM     16  O   UNL     1       2.667   6.171  19.928  0.00  0.00    +0.000 OA
BRANCH  16  17
ATOM     17  C   UNL     1       2.109   7.401  19.717  0.00  0.00    +0.000 A 
ATOM     18  C   UNL     1       1.409   8.124  20.675  0.00  0.00    +0.000 A 
ATOM     19  C   UNL     1       0.880   9.373  20.377  0.00  0.00    +0.000 A 
ATOM     20  C   UNL     1       1.094   9.887  19.115  0.00  0.00    +0.000 A 
ATOM     21  N   UNL     1       1.795   9.240  18.154  0.00  0.00    +0.000 NA
ATOM     22  C   UNL     1       2.291   8.019  18.483  0.00  0.00    +0.000 A 
ENDBRANCH  16  17
ENDBRANCH  14  16
ENDBRANCH  13  14
ENDBRANCH   3  13
TORSDOF 6
ENDMDL
MODEL 5
REMARK VINA RESULT:      -6.9      1.445      1.713
REMARK  Name = 
REMARK  8 active torsions:
REMARK  status: ('A' for Active; 'I' for Inactive)
REMARK    1  A    between atoms: C_1  and  O_2
REMARK    2  A    between atoms: O_2  and  C_3
REMARK    3  A    between atoms: C_8  and  C_9
REMARK    4  A    between atoms: N_11  and  C_12
REMARK    5  A    between atoms: C_12  and  C_13
REMARK    6  A    between atoms: C_13  and  C_14
REMARK    7  A    between atoms: C_13  and  O_15
REMARK    8  A    between atoms: O_15  and  C_16
REMARK                            x       y       z     vdW  Elec       q    Type
REMARK                         _______ _______ _______ _____ _____    ______ ____
ROOT
ATOM      1  C   UNL     1       4.374   3.757  17.110  0.00  0.00    +0.000 C 
ATOM      2  O   UNL     1       3.206   3.621  16.724  0.00  0.00    +0.000 OA
ATOM      3  N   UNL     1       4.735   3.571  18.420  0.00  0.00    +0.000 N 
ATOM      4  H   UNL     1       5.683   3.796  18.707  0.00  0.00    +0.000 HD
ENDROOT
BRANCH   1  10
ATOM      5  C   UNL     1       6.404   5.146  16.422  0.00  0.00    +0.000 A 
ATOM      6  N   UNL     1       7.348   5.562  15.537  0.00  0.00    +0.000 NA
ATOM      7  C   UNL     1       7.302   5.043  14.299  0.00  0.00    +0.000 A 
ATOM      8  C   UNL     1       6.390   4.083  13.909  0.00  0.00    +0.000 A 
ATOM      9  C   UNL     1       5.454   3.633  14.846  0.00  0.00    +0.000 A 
ATOM     10  C   UNL     1       5.439   4.172  16.142  0.00  0.00    +0.000 A 
BRANCH   5  12
ATOM     11  C   UNL     1       7.377   6.836  17.666  0.00  0.00    +0.000 C 
ATOM     12  O   UNL     1       6.419   5.774  17.650  0.00  0.00    +0.000 OA
ENDBRANCH   5  12
ENDBRANCH   1  10
BRANCH   3  13
ATOM     13  C   UNL     1       3.796   3.153  19.456  0.00  0.00    +0.000 C 
BRANCH  13  14
ATOM     14  C   UNL     1       2.785   4.243  19.878  0.00  0.00    +0.000 C 
ATOM     15  C   UNL     1       2.173   3.879  21.240  0.00  0.00    +0.000 C 
BRANCH  14  16
ATOM     16  O   UNL     1       3.511   5.495  19.956  0.00  0.00    +0.000 OA
BRANCH  16  17
ATOM     17  C   UNL     1       2.885   6.611  19.478  0.00  0.00    +0.000 A 
ATOM     18  C   UNL     1       2.029   7.414  20.221  0.00  0.00    +0.000 A 
ATOM     19  C   UNL     1       1.440   8.538  19.656  0.00  0.00    +0.000 A 
ATOM     20  C   UNL     1       1.750   8.850  18.349  0.00  0.00    +0.000 A 
ATOM     21  N   UNL     1       2.602   8.121  17.590  0.00  0.00    +0.000 NA
ATOM     22  C   UNL     1       3.152   7.026  18.176  0.00  0.00    +0.000 A 
ENDBRANCH  16  17
ENDBRANCH  14  16
ENDBRANCH  13  14
ENDBRANCH   3  13
TORSDOF 6
ENDMDL
MODEL 6
REMARK VINA RESULT:      -6.8      2.496      6.091
REMARK  Name = 
REMARK  8 active torsions:
REMARK  status: ('A' for Active; 'I' for Inactive)
REMARK    1  A    between atoms: C_1  and  O_2
REMARK    2  A    between atoms: O_2  and  C_3
REMARK    3  A    between atoms: C_8  and  C_9
REMARK    4  A    between atoms: N_11  and  C_12
REMARK    5  A    between atoms: C_12  and  C_13
REMARK    6  A    between atoms: C_13  and  C_14
REMARK    7  A    between atoms: C_13  and  O_15
REMARK    8  A    between atoms: O_15  and  C_16
REMARK                            x       y       z     vdW  Elec       q    Type
REMARK                         _______ _______ _______ _____ _____    ______ ____
ROOT
ATOM      1  C   UNL     1       3.835   5.652  17.429  0.00  0.00    +0.000 C 
ATOM      2  O   UNL     1       4.013   6.870  17.307  0.00  0.00    +0.000 OA
ATOM      3  N   UNL     1       4.280   4.752  16.494  0.00  0.00    +0.000 N 
ATOM      4  H   UNL     1       4.018   3.775  16.586  0.00  0.00    +0.000 HD
ENDROOT
BRANCH   1  10
ATOM      5  C   UNL     1       2.749   3.770  18.772  0.00  0.00    +0.000 A 
ATOM      6  N   UNL     1       2.029   3.282  19.816  0.00  0.00    +0.000 NA
ATOM      7  C   UNL     1       1.560   4.170  20.709  0.00  0.00    +0.000 A 
ATOM      8  C   UNL     1       1.818   5.524  20.644  0.00  0.00    +0.000 A 
ATOM      9  C   UNL     1       2.599   6.004  19.587  0.00  0.00    +0.000 A 
ATOM     10  C   UNL     1       3.082   5.119  18.609  0.00  0.00    +0.000 A 
BRANCH   5  12
ATOM     11  C   UNL     1       3.370   1.569  18.427  0.00  0.00    +0.000 C 
ATOM     12  O   UNL     1       3.128   2.843  17.824  0.00  0.00    +0.000 OA
ENDBRANCH   5  12
ENDBRANCH   1  10
BRANCH   3  13
ATOM     13  C   UNL     1       5.036   5.141  15.308  0.00  0.00    +0.000 C 
BRANCH  13  14
ATOM     14  C   UNL     1       6.182   4.174  14.935  0.00  0.00    +0.000 C 
ATOM     15  C   UNL     1       6.112   3.845  13.436  0.00  0.00    +0.000 C 
BRANCH  14  16
ATOM     16  O   UNL     1       7.428   4.841  15.260  0.00  0.00    +0.000 OA
BRANCH  16  17
ATOM     17  C   UNL     1       7.562   5.331  16.529  0.00  0.00    +0.000 A 
ATOM     18  C   UNL     1       7.553   6.680  16.857  0.00  0.00    +0.000 A 
ATOM     19  C   UNL     1       7.688   7.091  18.177  0.00  0.00    +0.000 A 
ATOM     20  C   UNL     1       7.803   6.123  19.153  0.00  0.00    +0.000 A 
ATOM     21  N   UNL     1       7.785   4.795  18.892  0.00  0.00    +0.000 NA
ATOM     22  C   UNL     1       7.658   4.434  17.589  0.00  0.00    +0.000 A 
ENDBRANCH  16  17
ENDBRANCH  14  16
ENDBRANCH  13  14
ENDBRANCH   3  13
TORSDOF 6
ENDMDL
MODEL 7
REMARK VINA RESULT:      -6.7      1.935      3.596
REMARK  Name = 
REMARK  8 active torsions:
REMARK  status: ('A' for Active; 'I' for Inactive)
REMARK    1  A    between atoms: C_1  and  O_2
REMARK    2  A    between atoms: O_2  and  C_3
REMARK    3  A    between atoms: C_8  and  C_9
REMARK    4  A    between atoms: N_11  and  C_12
REMARK    5  A    between atoms: C_12  and  C_13
REMARK    6  A    between atoms: C_13  and  C_14
REMARK    7  A    between atoms: C_13  and  O_15
REMARK    8  A    between atoms: O_15  and  C_16
REMARK                            x       y       z     vdW  Elec       q    Type
REMARK                         _______ _______ _______ _____ _____    ______ ____
ROOT
ATOM      1  C   UNL     1       4.907   4.421  17.555  0.00  0.00    +0.000 C 
ATOM      2  O   UNL     1       4.426   3.338  17.914  0.00  0.00    +0.000 OA
ATOM      3  N   UNL     1       4.726   5.574  18.274  0.00  0.00    +0.000 N 
ATOM      4  H   UNL     1       5.050   6.455  17.884  0.00  0.00    +0.000 HD
ENDROOT
BRANCH   1  10
ATOM      5  C   UNL     1       6.911   5.171  16.160  0.00  0.00    +0.000 A 
ATOM      6  N   UNL     1       7.605   5.294  14.999  0.00  0.00    +0.000 NA
ATOM      7  C   UNL     1       7.038   4.794  13.888  0.00  0.00    +0.000 A 
ATOM      8  C   UNL     1       5.830   4.126  13.883  0.00  0.00    +0.000 A 
ATOM      9  C   UNL     1       5.150   3.970  15.096  0.00  0.00    +0.000 A 
ATOM     10  C   UNL     1       5.685   4.507  16.278  0.00  0.00    +0.000 A 
BRANCH   5  12
ATOM     11  C   UNL     1       7.453   7.207  17.117  0.00  0.00    +0.000 C 
ATOM     12  O   UNL     1       7.476   5.784  17.259  0.00  0.00    +0.000 OA
ENDBRANCH   5  12
ENDBRANCH   1  10
BRANCH   3  13
ATOM     13  C   UNL     1       4.000   5.621  19.539  0.00  0.00    +0.000 C 
BRANCH  13  14
ATOM     14  C   UNL     1       2.881   6.685  19.595  0.00  0.00    +0.000 C 
ATOM     15  C   UNL     1       2.703   7.320  18.207  0.00  0.00    +0.000 C 
BRANCH  14  16
ATOM     16  O   UNL     1       1.669   6.010  20.013  0.00  0.00    +0.000 OA
BRANCH  16  17
ATOM     17  C   UNL     1       1.610   4.657  19.822  0.00  0.00    +0.000 A 
ATOM     18  C   UNL     1       1.801   3.711  20.820  0.00  0.00    +0.000 A 
ATOM     19  C   UNL     1       1.714   2.353  20.538  0.00  0.00    +0.000 A 
ATOM     20  C   UNL     1       1.408   1.973  19.248  0.00  0.00    +0.000 A 
ATOM     21  N   UNL     1       1.181   2.853  18.245  0.00  0.00    +0.000 NA
ATOM     22  C   UNL     1       1.280   4.171  18.560  0.00  0.00    +0.000 A 
ENDBRANCH  16  17
ENDBRANCH  14  16
ENDBRANCH  13  14
ENDBRANCH   3  13
TORSDOF 6
ENDMDL
MODEL 8
REMARK VINA RESULT:      -6.7      1.979      3.859
REMARK  Name = 
REMARK  8 active torsions:
REMARK  status: ('A' for Active; 'I' for Inactive)
REMARK    1  A    between atoms: C_1  and  O_2
REMARK    2  A    between atoms: O_2  and  C_3
REMARK    3  A    between atoms: C_8  and  C_9
REMARK    4  A    between atoms: N_11  and  C_12
REMARK    5  A    between atoms: C_12  and  C_13
REMARK    6  A    between atoms: C_13  and  C_14
REMARK    7  A    between atoms: C_13  and  O_15
REMARK    8  A    between atoms: O_15  and  C_16
REMARK                            x       y       z     vdW  Elec       q    Type
REMARK                         _______ _______ _______ _____ _____    ______ ____
ROOT
ATOM      1  C   UNL     1       4.657   6.007  18.064  0.00  0.00    +0.000 C 
ATOM      2  O   UNL     1       5.032   5.911  19.240  0.00  0.00    +0.000 OA
ATOM      3  N   UNL     1       3.441   6.545  17.728  0.00  0.00    +0.000 N 
ATOM      4  H   UNL     1       3.135   6.506  16.760  0.00  0.00    +0.000 HD
ENDROOT
BRANCH   1  10
ATOM      5  C   UNL     1       6.605   6.205  16.425  0.00  0.00    +0.000 A 
ATOM      6  N   UNL     1       7.374   5.769  15.392  0.00  0.00    +0.000 NA
ATOM      7  C   UNL     1       7.025   4.607  14.815  0.00  0.00    +0.000 A 
ATOM      8  C   UNL     1       5.975   3.824  15.250  0.00  0.00    +0.000 A 
ATOM      9  C   UNL     1       5.222   4.267  16.343  0.00  0.00    +0.000 A 
ATOM     10  C   UNL     1       5.526   5.493  16.957  0.00  0.00    +0.000 A 
BRANCH   5  12
ATOM     11  C   UNL     1       7.916   7.337  17.959  0.00  0.00    +0.000 C 
ATOM     12  O   UNL     1       6.931   7.448  16.927  0.00  0.00    +0.000 OA
ENDBRANCH   5  12
ENDBRANCH   1  10
BRANCH   3  13
ATOM     13  C   UNL     1       2.511   7.092  18.710  0.00  0.00    +0.000 C 
BRANCH  13  14
ATOM     14  C   UNL     1       2.239   6.167  19.917  0.00  0.00    +0.000 C 
ATOM     15  C   UNL     1       1.510   6.955  21.016  0.00  0.00    +0.000 C 
BRANCH  14  16
ATOM     16  O   UNL     1       1.422   5.069  19.440  0.00  0.00    +0.000 OA
BRANCH  16  17
ATOM     17  C   UNL     1       2.065   3.907  19.116  0.00  0.00    +0.000 A 
ATOM     18  C   UNL     1       1.934   3.245  17.902  0.00  0.00    +0.000 A 
ATOM     19  C   UNL     1       2.632   2.071  17.654  0.00  0.00    +0.000 A 
ATOM     20  C   UNL     1       3.478   1.595  18.634  0.00  0.00    +0.000 A 
ATOM     21  N   UNL     1       3.667   2.217  19.822  0.00  0.00    +0.000 NA
ATOM     22  C   UNL     1       2.962   3.359  20.028  0.00  0.00    +0.000 A 
ENDBRANCH  16  17
ENDBRANCH  14  16
ENDBRANCH  13  14
ENDBRANCH   3  13
TORSDOF 6
ENDMDL
MODEL 9
REMARK VINA RESULT:      -6.7      2.165      6.729
REMARK  Name = 
REMARK  8 active torsions:
REMARK  status: ('A' for Active; 'I' for Inactive)
REMARK    1  A    between atoms: C_1  and  O_2
REMARK    2  A    between atoms: O_2  and  C_3
REMARK    3  A    between atoms: C_8  and  C_9
REMARK    4  A    between atoms: N_11  and  C_12
REMARK    5  A    between atoms: C_12  and  C_13
REMARK    6  A    between atoms: C_13  and  C_14
REMARK    7  A    between atoms: C_13  and  O_15
REMARK    8  A    between atoms: O_15  and  C_16
REMARK                            x       y       z     vdW  Elec       q    Type
REMARK                         _______ _______ _______ _____ _____    ______ ____
ROOT
ATOM      1  C   UNL     1       4.572   3.900  18.287  0.00  0.00    +0.000 C 
ATOM      2  O   UNL     1       4.234   3.704  17.112  0.00  0.00    +0.000 OA
ATOM      3  N   UNL     1       5.852   4.257  18.628  0.00  0.00    +0.000 N 
ATOM      4  H   UNL     1       6.106   4.302  19.610  0.00  0.00    +0.000 HD
ENDROOT
BRANCH   1  10
ATOM      5  C   UNL     1       2.541   4.610  19.663  0.00  0.00    +0.000 A 
ATOM      6  N   UNL     1       1.661   4.474  20.689  0.00  0.00    +0.000 NA
ATOM      7  C   UNL     1       1.849   3.441  21.527  0.00  0.00    +0.000 A 
ATOM      8  C   UNL     1       2.844   2.498  21.364  0.00  0.00    +0.000 A 
ATOM      9  C   UNL     1       3.714   2.629  20.276  0.00  0.00    +0.000 A 
ATOM     10  C   UNL     1       3.579   3.712  19.393  0.00  0.00    +0.000 A 
BRANCH   5  12
ATOM     11  C   UNL     1       2.425   6.920  19.684  0.00  0.00    +0.000 C 
ATOM     12  O   UNL     1       2.377   5.736  18.883  0.00  0.00    +0.000 OA
ENDBRANCH   5  12
ENDBRANCH   1  10
BRANCH   3  13
ATOM     13  C   UNL     1       6.906   4.483  17.645  0.00  0.00    +0.000 C 
BRANCH  13  14
ATOM     14  C   UNL     1       6.566   5.547  16.577  0.00  0.00    +0.000 C 
ATOM     15  C   UNL     1       6.574   6.943  17.219  0.00  0.00    +0.000 C 
BRANCH  14  16
ATOM     16  O   UNL     1       7.575   5.450  15.540  0.00  0.00    +0.000 OA
BRANCH  16  17
ATOM     17  C   UNL     1       7.192   4.907  14.345  0.00  0.00    +0.000 A 
ATOM     18  C   UNL     1       7.828   5.143  13.133  0.00  0.00    +0.000 A 
ATOM     19  C   UNL     1       7.376   4.542  11.965  0.00  0.00    +0.000 A 
ATOM     20  C   UNL     1       6.298   3.686  12.047  0.00  0.00    +0.000 A 
ATOM     21  N   UNL     1       5.661   3.397  13.206  0.00  0.00    +0.000 NA
ATOM     22  C   UNL     1       6.130   4.008  14.325  0.00  0.00    +0.000 A 
ENDBRANCH  16  17
ENDBRANCH  14  16
ENDBRANCH  13  14
ENDBRANCH   3  13
TORSDOF 6
ENDMDL
