MODEL 1
REMARK VINA RESULT:      -8.1      0.000      0.000
REMARK  Name = 
REMARK  4 active torsions:
REMARK  status: ('A' for Active; 'I' for Inactive)
REMARK    1  A    between atoms: C_2  and  C_3
REMARK    2  A    between atoms: C_3  and  N_4
REMARK    3  A    between atoms: C_6  and  C_7
REMARK    4  A    between atoms: C_7  and  C_8
REMARK                            x       y       z     vdW  Elec       q    Type
REMARK                         _______ _______ _______ _____ _____    ______ ____
ROOT
ATOM      1  N   UNL     1       5.899   6.012  18.170  0.00  0.00    +0.000 N 
ATOM      2  N   UNL     1       4.932   6.964  17.953  0.00  0.00    +0.000 NA
ATOM      3  C   UNL     1       3.688   6.603  17.844  0.00  0.00    +0.000 A 
ATOM      4  C   UNL     1       3.244   5.197  17.956  0.00  0.00    +0.000 A 
ATOM      5  C   UNL     1       1.914   4.793  17.775  0.00  0.00    +0.000 A 
ATOM      6  C   UNL     1       1.574   3.442  17.889  0.00  0.00    +0.000 A 
ATOM      7  C   UNL     1       2.551   2.494  18.185  0.00  0.00    +0.000 A 
ATOM      8  C   UNL     1       3.874   2.893  18.358  0.00  0.00    +0.000 A 
ATOM      9  C   UNL     1       4.220   4.247  18.236  0.00  0.00    +0.000 A 
ATOM     10  C   UNL     1       5.633   4.657  18.346  0.00  0.00    +0.000 A 
ATOM     11  O   UNL     1       6.491   3.802  18.544  0.00  0.00    +0.000 OA
ENDROOT
BRANCH   1  12
ATOM     12  C   UNL     1       7.281   6.474  18.120  0.00  0.00    +0.000 C 
BRANCH  12  14
ATOM     13  C   UNL     1       8.135   8.818  17.843  0.00  0.00    +0.000 C 
ATOM     14  C   UNL     1       7.355   7.807  17.437  0.00  0.00    +0.000 C 
ENDBRANCH  12  14
ENDBRANCH   1  12
BRANCH   3  15
ATOM     15  C   UNL     1       2.681   7.702  17.531  0.00  0.00    +0.000 C 
BRANCH  15  16
ATOM     16  C   UNL     1       2.011   8.292  18.758  0.00  0.00    +0.000 A 
ATOM     17  C   UNL     1       1.999   7.619  19.990  0.00  0.00    +0.000 A 
ATOM     18  C   UNL     1       1.281   8.122  21.076  0.00  0.00    +0.000 A 
ATOM     19  C   UNL     1       0.545   9.299  20.948  0.00  0.00    +0.000 A 
ATOM     20 CL   UNL     1      -0.366   9.832  22.316  0.00  0.00    +0.000 Cl
ATOM     21  C   UNL     1       0.552   9.989  19.731  0.00  0.00    +0.000 A 
ATOM     22 CL   UNL     1      -0.336  11.451  19.494  0.00  0.00    +0.000 Cl
ATOM     23  C   UNL     1       1.281   9.486  18.644  0.00  0.00    +0.000 A 
ENDBRANCH  15  16
ENDBRANCH   3  15
TORSDOF 4
ENDMDL
MODEL 2
REMARK VINA RESULT:      -8.0      1.616      3.772
REMARK  Name = 
REMARK  4 active torsions:
REMARK  status: ('A' for Active; 'I' for Inactive)
REMARK    1  A    between atoms: C_2  and  C_3
REMARK    2  A    between atoms: C_3  and  N_4
REMARK    3  A    between atoms: C_6  and  C_7
REMARK    4  A    between atoms: C_7  and  C_8
REMARK                            x       y       z     vdW  Elec       q    Type
REMARK                         _______ _______ _______ _____ _____    ______ ____
ROOT
ATOM      1  N   UNL     1       2.449   4.249  18.204  0.00  0.00    +0.000 N 
ATOM      2  N   UNL     1       2.154   5.585  18.079  0.00  0.00    +0.000 NA
ATOM      3  C   UNL     1       3.104   6.429  17.804  0.00  0.00    +0.000 A 
ATOM      4  C   UNL     1       4.511   6.021  17.601  0.00  0.00    +0.000 A 
ATOM      5  C   UNL     1       5.551   6.932  17.368  0.00  0.00    +0.000 A 
ATOM      6  C   UNL     1       6.858   6.470  17.194  0.00  0.00    +0.000 A 
ATOM      7  C   UNL     1       7.133   5.105  17.246  0.00  0.00    +0.000 A 
ATOM      8  C   UNL     1       6.102   4.198  17.485  0.00  0.00    +0.000 A 
ATOM      9  C   UNL     1       4.791   4.661  17.669  0.00  0.00    +0.000 A 
ATOM     10  C   UNL     1       3.714   3.706  17.994  0.00  0.00    +0.000 A 
ATOM     11  O   UNL     1       3.984   2.513  18.100  0.00  0.00    +0.000 OA
ENDROOT
BRANCH   1  12
ATOM     12  C   UNL     1       1.366   3.390  18.671  0.00  0.00    +0.000 C 
BRANCH  12  14
ATOM     13  C   UNL     1       1.598   3.240  21.166  0.00  0.00    +0.000 C 
ATOM     14  C   UNL     1       0.998   3.746  20.081  0.00  0.00    +0.000 C 
ENDBRANCH  12  14
ENDBRANCH   1  12
BRANCH   3  15
ATOM     15  C   UNL     1       2.718   7.901  17.754  0.00  0.00    +0.000 C 
BRANCH  15  16
ATOM     16  C   UNL     1       1.968   8.384  18.981  0.00  0.00    +0.000 A 
ATOM     17  C   UNL     1       2.000   7.678  20.193  0.00  0.00    +0.000 A 
ATOM     18  C   UNL     1       1.213   8.073  21.276  0.00  0.00    +0.000 A 
ATOM     19  C   UNL     1       0.364   9.173  21.163  0.00  0.00    +0.000 A 
ATOM     20 CL   UNL     1      -0.623   9.571  22.524  0.00  0.00    +0.000 Cl
ATOM     21  C   UNL     1       0.325   9.896  19.967  0.00  0.00    +0.000 A 
ATOM     22 CL   UNL     1      -0.703  11.267  19.750  0.00  0.00    +0.000 Cl
ATOM     23  C   UNL     1       1.123   9.501  18.883  0.00  0.00    +0.000 A 
ENDBRANCH  15  16
ENDBRANCH   3  15
TORSDOF 4
ENDMDL
MODEL 3
REMARK VINA RESULT:      -7.7      1.493      3.862
REMARK  Name = 
REMARK  4 active torsions:
REMARK  status: ('A' for Active; 'I' for Inactive)
REMARK    1  A    between atoms: C_2  and  C_3
REMARK    2  A    between atoms: C_3  and  N_4
REMARK    3  A    between atoms: C_6  and  C_7
REMARK    4  A    between atoms: C_7  and  C_8
REMARK                            x       y       z     vdW  Elec       q    Type
REMARK                         _______ _______ _______ _____ _____    ______ ____
ROOT
ATOM      1  N   UNL     1       3.216   4.238  19.462  0.00  0.00    +0.000 N 
ATOM      2  N   UNL     1       2.606   5.356  18.946  0.00  0.00    +0.000 NA
ATOM      3  C   UNL     1       3.312   6.226  18.286  0.00  0.00    +0.000 A 
ATOM      4  C   UNL     1       4.762   6.069  18.043  0.00  0.00    +0.000 A 
ATOM      5  C   UNL     1       5.542   7.033  17.390  0.00  0.00    +0.000 A 
ATOM      6  C   UNL     1       6.909   6.817  17.205  0.00  0.00    +0.000 A 
ATOM      7  C   UNL     1       7.504   5.643  17.666  0.00  0.00    +0.000 A 
ATOM      8  C   UNL     1       6.731   4.687  18.322  0.00  0.00    +0.000 A 
ATOM      9  C   UNL     1       5.360   4.906  18.516  0.00  0.00    +0.000 A 
ATOM     10  C   UNL     1       4.560   3.926  19.277  0.00  0.00    +0.000 A 
ATOM     11  O   UNL     1       5.110   2.928  19.731  0.00  0.00    +0.000 OA
ENDROOT
BRANCH   1  12
ATOM     12  C   UNL     1       2.394   3.395  20.324  0.00  0.00    +0.000 C 
BRANCH  12  14
ATOM     13  C   UNL     1       0.674   2.262  18.889  0.00  0.00    +0.000 C 
ATOM     14  C   UNL     1       1.023   3.239  19.736  0.00  0.00    +0.000 C 
ENDBRANCH  12  14
ENDBRANCH   1  12
BRANCH   3  15
ATOM     15  C   UNL     1       2.585   7.475  17.807  0.00  0.00    +0.000 C 
BRANCH  15  16
ATOM     16  C   UNL     1       1.929   8.271  18.921  0.00  0.00    +0.000 A 
ATOM     17  C   UNL     1       1.880   7.797  20.240  0.00  0.00    +0.000 A 
ATOM     18  C   UNL     1       1.174   8.487  21.226  0.00  0.00    +0.000 A 
ATOM     19  C   UNL     1       0.487   9.658  20.909  0.00  0.00    +0.000 A 
ATOM     20 CL   UNL     1      -0.413  10.429  22.166  0.00  0.00    +0.000 Cl
ATOM     21  C   UNL     1       0.532  10.153  19.602  0.00  0.00    +0.000 A 
ATOM     22 CL   UNL     1      -0.295  11.594  19.132  0.00  0.00    +0.000 Cl
ATOM     23  C   UNL     1       1.249   9.461  18.615  0.00  0.00    +0.000 A 
ENDBRANCH  15  16
ENDBRANCH   3  15
TORSDOF 4
ENDMDL
MODEL 4
REMARK VINA RESULT:      -7.7      2.111      4.009
REMARK  Name = 
REMARK  4 active torsions:
REMARK  status: ('A' for Active; 'I' for Inactive)
REMARK    1  A    between atoms: C_2  and  C_3
REMARK    2  A    between atoms: C_3  and  N_4
REMARK    3  A    between atoms: C_6  and  C_7
REMARK    4  A    between atoms: C_7  and  C_8
REMARK                            x       y       z     vdW  Elec       q    Type
REMARK                         _______ _______ _______ _____ _____    ______ ____
ROOT
ATOM      1  N   UNL     1       2.111   4.414  18.553  0.00  0.00    +0.000 N 
ATOM      2  N   UNL     1       2.209   5.783  18.499  0.00  0.00    +0.000 NA
ATOM      3  C   UNL     1       3.170   6.332  17.818  0.00  0.00    +0.000 A 
ATOM      4  C   UNL     1       4.177   5.549  17.070  0.00  0.00    +0.000 A 
ATOM      5  C   UNL     1       5.254   6.131  16.387  0.00  0.00    +0.000 A 
ATOM      6  C   UNL     1       6.170   5.323  15.710  0.00  0.00    +0.000 A 
ATOM      7  C   UNL     1       6.018   3.938  15.708  0.00  0.00    +0.000 A 
ATOM      8  C   UNL     1       4.953   3.357  16.392  0.00  0.00    +0.000 A 
ATOM      9  C   UNL     1       4.036   4.165  17.080  0.00  0.00    +0.000 A 
ATOM     10  C   UNL     1       2.952   3.544  17.865  0.00  0.00    +0.000 A 
ATOM     11  O   UNL     1       2.869   2.320  17.906  0.00  0.00    +0.000 OA
ENDROOT
BRANCH   1  12
ATOM     12  C   UNL     1       1.109   3.874  19.465  0.00  0.00    +0.000 C 
BRANCH  12  14
ATOM     13  C   UNL     1       1.732   2.791  21.642  0.00  0.00    +0.000 C 
ATOM     14  C   UNL     1       1.633   3.881  20.870  0.00  0.00    +0.000 C 
ENDBRANCH  12  14
ENDBRANCH   1  12
BRANCH   3  15
ATOM     15  C   UNL     1       3.260   7.851  17.863  0.00  0.00    +0.000 C 
BRANCH  15  16
ATOM     16  C   UNL     1       2.067   8.520  18.521  0.00  0.00    +0.000 A 
ATOM     17  C   UNL     1       1.184   9.336  17.798  0.00  0.00    +0.000 A 
ATOM     18  C   UNL     1       0.161  10.035  18.441  0.00  0.00    +0.000 A 
ATOM     19  C   UNL     1       0.011   9.945  19.824  0.00  0.00    +0.000 A 
ATOM     20 CL   UNL     1      -1.241  10.882  20.560  0.00  0.00    +0.000 Cl
ATOM     21  C   UNL     1       0.875   9.130  20.562  0.00  0.00    +0.000 A 
ATOM     22 CL   UNL     1       0.754   8.970  22.277  0.00  0.00    +0.000 Cl
ATOM     23  C   UNL     1       1.897   8.422  19.911  0.00  0.00    +0.000 A 
ENDBRANCH  15  16
ENDBRANCH   3  15
TORSDOF 4
ENDMDL
MODEL 5
REMARK VINA RESULT:      -7.7      1.732      4.012
REMARK  Name = 
REMARK  4 active torsions:
REMARK  status: ('A' for Active; 'I' for Inactive)
REMARK    1  A    between atoms: C_2  and  C_3
REMARK    2  A    between atoms: C_3  and  N_4
REMARK    3  A    between atoms: C_6  and  C_7
REMARK    4  A    between atoms: C_7  and  C_8
REMARK                            x       y       z     vdW  Elec       q    Type
REMARK                         _______ _______ _______ _____ _____    ______ ____
ROOT
ATOM      1  N   UNL     1       2.526   4.560  18.567  0.00  0.00    +0.000 N 
ATOM      2  N   UNL     1       2.268   5.854  18.180  0.00  0.00    +0.000 NA
ATOM      3  C   UNL     1       3.248   6.617  17.797  0.00  0.00    +0.000 A 
ATOM      4  C   UNL     1       4.652   6.158  17.740  0.00  0.00    +0.000 A 
ATOM      5  C   UNL     1       5.722   6.994  17.391  0.00  0.00    +0.000 A 
ATOM      6  C   UNL     1       7.025   6.488  17.369  0.00  0.00    +0.000 A 
ATOM      7  C   UNL     1       7.266   5.153  17.689  0.00  0.00    +0.000 A 
ATOM      8  C   UNL     1       6.204   4.323  18.044  0.00  0.00    +0.000 A 
ATOM      9  C   UNL     1       4.898   4.831  18.075  0.00  0.00    +0.000 A 
ATOM     10  C   UNL     1       3.786   3.969  18.522  0.00  0.00    +0.000 A 
ATOM     11  O   UNL     1       4.023   2.814  18.863  0.00  0.00    +0.000 OA
ENDROOT
BRANCH   1  12
ATOM     12  C   UNL     1       1.404   3.821  19.134  0.00  0.00    +0.000 C 
BRANCH  12  14
ATOM     13  C   UNL     1       1.698   3.198  21.547  0.00  0.00    +0.000 C 
ATOM     14  C   UNL     1       1.314   4.074  20.609  0.00  0.00    +0.000 C 
ENDBRANCH  12  14
ENDBRANCH   1  12
BRANCH   3  15
ATOM     15  C   UNL     1       2.899   8.059  17.454  0.00  0.00    +0.000 C 
BRANCH  15  16
ATOM     16  C   UNL     1       1.845   8.670  18.358  0.00  0.00    +0.000 A 
ATOM     17  C   UNL     1       0.848   9.524  17.862  0.00  0.00    +0.000 A 
ATOM     18  C   UNL     1      -0.042  10.167  18.723  0.00  0.00    +0.000 A 
ATOM     19  C   UNL     1       0.058   9.983  20.102  0.00  0.00    +0.000 A 
ATOM     20 CL   UNL     1      -1.039  10.856  21.112  0.00  0.00    +0.000 Cl
ATOM     21  C   UNL     1       1.039   9.129  20.616  0.00  0.00    +0.000 A 
ATOM     22 CL   UNL     1       1.227   8.853  22.310  0.00  0.00    +0.000 Cl
ATOM     23  C   UNL     1       1.926   8.477  19.747  0.00  0.00    +0.000 A 
ENDBRANCH  15  16
ENDBRANCH   3  15
TORSDOF 4
ENDMDL
MODEL 6
REMARK VINA RESULT:      -7.6      2.208      4.237
REMARK  Name = 
REMARK  4 active torsions:
REMARK  status: ('A' for Active; 'I' for Inactive)
REMARK    1  A    between atoms: C_2  and  C_3
REMARK    2  A    between atoms: C_3  and  N_4
REMARK    3  A    between atoms: C_6  and  C_7
REMARK    4  A    between atoms: C_7  and  C_8
REMARK                            x       y       z     vdW  Elec       q    Type
REMARK                         _______ _______ _______ _____ _____    ______ ____
ROOT
ATOM      1  N   UNL     1       1.846   3.846  18.727  0.00  0.00    +0.000 N 
ATOM      2  N   UNL     1       1.981   5.087  19.302  0.00  0.00    +0.000 NA
ATOM      3  C   UNL     1       2.892   5.903  18.862  0.00  0.00    +0.000 A 
ATOM      4  C   UNL     1       3.803   5.568  17.747  0.00  0.00    +0.000 A 
ATOM      5  C   UNL     1       4.830   6.416  17.310  0.00  0.00    +0.000 A 
ATOM      6  C   UNL     1       5.657   6.026  16.253  0.00  0.00    +0.000 A 
ATOM      7  C   UNL     1       5.462   4.796  15.627  0.00  0.00    +0.000 A 
ATOM      8  C   UNL     1       4.446   3.949  16.064  0.00  0.00    +0.000 A 
ATOM      9  C   UNL     1       3.621   4.335  17.130  0.00  0.00    +0.000 A 
ATOM     10  C   UNL     1       2.594   3.405  17.639  0.00  0.00    +0.000 A 
ATOM     11  O   UNL     1       2.477   2.300  17.118  0.00  0.00    +0.000 OA
ENDROOT
BRANCH   1  12
ATOM     12  C   UNL     1       0.914   2.932  19.377  0.00  0.00    +0.000 C 
BRANCH  12  14
ATOM     13  C   UNL     1       1.938   2.555  21.638  0.00  0.00    +0.000 C 
ATOM     14  C   UNL     1       0.986   3.097  20.867  0.00  0.00    +0.000 C 
ENDBRANCH  12  14
ENDBRANCH   1  12
BRANCH   3  15
ATOM     15  C   UNL     1       3.033   7.231  19.594  0.00  0.00    +0.000 C 
BRANCH  15  16
ATOM     16  C   UNL     1       1.903   8.207  19.323  0.00  0.00    +0.000 A 
ATOM     17  C   UNL     1       1.628   8.680  18.031  0.00  0.00    +0.000 A 
ATOM     18  C   UNL     1       0.662   9.663  17.816  0.00  0.00    +0.000 A 
ATOM     19  C   UNL     1      -0.039  10.207  18.892  0.00  0.00    +0.000 A 
ATOM     20 CL   UNL     1      -1.180  11.461  18.559  0.00  0.00    +0.000 Cl
ATOM     21  C   UNL     1       0.214   9.742  20.187  0.00  0.00    +0.000 A 
ATOM     22 CL   UNL     1      -0.610  10.368  21.569  0.00  0.00    +0.000 Cl
ATOM     23  C   UNL     1       1.180   8.748  20.398  0.00  0.00    +0.000 A 
ENDBRANCH  15  16
ENDBRANCH   3  15
TORSDOF 4
ENDMDL
MODEL 7
REMARK VINA RESULT:      -7.6      1.391      1.486
REMARK  Name = 
REMARK  4 active torsions:
REMARK  status: ('A' for Active; 'I' for Inactive)
REMARK    1  A    between atoms: C_2  and  C_3
REMARK    2  A    between atoms: C_3  and  N_4
REMARK    3  A    between atoms: C_6  and  C_7
REMARK    4  A    between atoms: C_7  and  C_8
REMARK                            x       y       z     vdW  Elec       q    Type
REMARK                         _______ _______ _______ _____ _____    ______ ____
ROOT
ATOM      1  N   UNL     1       5.433   5.100  18.996  0.00  0.00    +0.000 N 
ATOM      2  N   UNL     1       4.679   6.144  18.516  0.00  0.00    +0.000 NA
ATOM      3  C   UNL     1       3.418   5.960  18.259  0.00  0.00    +0.000 A 
ATOM      4  C   UNL     1       2.732   4.668  18.471  0.00  0.00    +0.000 A 
ATOM      5  C   UNL     1       1.390   4.444  18.135  0.00  0.00    +0.000 A 
ATOM      6  C   UNL     1       0.814   3.191  18.358  0.00  0.00    +0.000 A 
ATOM      7  C   UNL     1       1.568   2.160  18.916  0.00  0.00    +0.000 A 
ATOM      8  C   UNL     1       2.904   2.379  19.244  0.00  0.00    +0.000 A 
ATOM      9  C   UNL     1       3.487   3.633  19.013  0.00  0.00    +0.000 A 
ATOM     10  C   UNL     1       4.921   3.840  19.292  0.00  0.00    +0.000 A 
ATOM     11  O   UNL     1       5.587   2.904  19.724  0.00  0.00    +0.000 OA
ENDROOT
BRANCH   1  12
ATOM     12  C   UNL     1       6.868   5.338  19.107  0.00  0.00    +0.000 C 
BRANCH  12  14
ATOM     13  C   UNL     1       7.077   4.678  16.694  0.00  0.00    +0.000 C 
ATOM     14  C   UNL     1       7.582   4.735  17.934  0.00  0.00    +0.000 C 
ENDBRANCH  12  14
ENDBRANCH   1  12
BRANCH   3  15
ATOM     15  C   UNL     1       2.663   7.139  17.661  0.00  0.00    +0.000 C 
BRANCH  15  16
ATOM     16  C   UNL     1       2.026   8.051  18.694  0.00  0.00    +0.000 A 
ATOM     17  C   UNL     1       1.934   7.687  20.046  0.00  0.00    +0.000 A 
ATOM     18  C   UNL     1       1.244   8.485  20.959  0.00  0.00    +0.000 A 
ATOM     19  C   UNL     1       0.616   9.656  20.536  0.00  0.00    +0.000 A 
ATOM     20 CL   UNL     1      -0.268  10.564  21.710  0.00  0.00    +0.000 Cl
ATOM     21  C   UNL     1       0.704  10.041  19.194  0.00  0.00    +0.000 A 
ATOM     22 CL   UNL     1      -0.048  11.475  18.594  0.00  0.00    +0.000 Cl
ATOM     23  C   UNL     1       1.406   9.241  18.280  0.00  0.00    +0.000 A 
ENDBRANCH  15  16
ENDBRANCH   3  15
TORSDOF 4
ENDMDL
MODEL 8
REMARK VINA RESULT:      -7.5      1.350      2.172
REMARK  Name = 
REMARK  4 active torsions:
REMARK  status: ('A' for Active; 'I' for Inactive)
REMARK    1  A    between atoms: C_2  and  C_3
REMARK    2  A    between atoms: C_3  and  N_4
REMARK    3  A    between atoms: C_6  and  C_7
REMARK    4  A    between atoms: C_7  and  C_8
REMARK                            x       y       z     vdW  Elec       q    Type
REMARK                         _______ _______ _______ _____ _____    ______ ____
ROOT
ATOM      1  N   UNL     1       4.354   5.860  17.630  0.00  0.00    +0.000 N 
ATOM      2  N   UNL     1       3.823   6.576  18.675  0.00  0.00    +0.000 NA
ATOM      3  C   UNL     1       2.860   6.063  19.382  0.00  0.00    +0.000 A 
ATOM      4  C   UNL     1       2.302   4.718  19.128  0.00  0.00    +0.000 A 
ATOM      5  C   UNL     1       1.221   4.185  19.843  0.00  0.00    +0.000 A 
ATOM      6  C   UNL     1       0.744   2.908  19.538  0.00  0.00    +0.000 A 
ATOM      7  C   UNL     1       1.340   2.158  18.526  0.00  0.00    +0.000 A 
ATOM      8  C   UNL     1       2.410   2.689  17.809  0.00  0.00    +0.000 A 
ATOM      9  C   UNL     1       2.885   3.974  18.108  0.00  0.00    +0.000 A 
ATOM     10  C   UNL     1       3.969   4.564  17.298  0.00  0.00    +0.000 A 
ATOM     11  O   UNL     1       4.442   3.916  16.368  0.00  0.00    +0.000 OA
ENDROOT
BRANCH   1  12
ATOM     12  C   UNL     1       5.315   6.563  16.788  0.00  0.00    +0.000 C 
BRANCH  12  14
ATOM     13  C   UNL     1       7.538   7.500  17.483  0.00  0.00    +0.000 C 
ATOM     14  C   UNL     1       6.688   6.469  17.384  0.00  0.00    +0.000 C 
ENDBRANCH  12  14
ENDBRANCH   1  12
BRANCH   3  15
ATOM     15  C   UNL     1       2.270   6.943  20.476  0.00  0.00    +0.000 C 
BRANCH  15  16
ATOM     16  C   UNL     1       1.543   8.169  19.956  0.00  0.00    +0.000 A 
ATOM     17  C   UNL     1       1.722   8.635  18.645  0.00  0.00    +0.000 A 
ATOM     18  C   UNL     1       1.135   9.828  18.219  0.00  0.00    +0.000 A 
ATOM     19  C   UNL     1       0.370  10.588  19.103  0.00  0.00    +0.000 A 
ATOM     20 CL   UNL     1      -0.279  12.082  18.525  0.00  0.00    +0.000 Cl
ATOM     21  C   UNL     1       0.172  10.136  20.411  0.00  0.00    +0.000 A 
ATOM     22 CL   UNL     1      -0.760  11.023  21.563  0.00  0.00    +0.000 Cl
ATOM     23  C   UNL     1       0.756   8.933  20.833  0.00  0.00    +0.000 A 
ENDBRANCH  15  16
ENDBRANCH   3  15
TORSDOF 4
ENDMDL
MODEL 9
REMARK VINA RESULT:      -7.4      1.075      1.767
REMARK  Name = 
REMARK  4 active torsions:
REMARK  status: ('A' for Active; 'I' for Inactive)
REMARK    1  A    between atoms: C_2  and  C_3
REMARK    2  A    between atoms: C_3  and  N_4
REMARK    3  A    between atoms: C_6  and  C_7
REMARK    4  A    between atoms: C_7  and  C_8
REMARK                            x       y       z     vdW  Elec       q    Type
REMARK                         _______ _______ _______ _____ _____    ______ ____
ROOT
ATOM      1  N   UNL     1       5.426   5.302  19.005  0.00  0.00    +0.000 N 
ATOM      2  N   UNL     1       4.744   6.324  18.390  0.00  0.00    +0.000 NA
ATOM      3  C   UNL     1       3.511   6.143  18.022  0.00  0.00    +0.000 A 
ATOM      4  C   UNL     1       2.781   4.877  18.246  0.00  0.00    +0.000 A 
ATOM      5  C   UNL     1       1.472   4.652  17.795  0.00  0.00    +0.000 A 
ATOM      6  C   UNL     1       0.851   3.425  18.037  0.00  0.00    +0.000 A 
ATOM      7  C   UNL     1       1.525   2.421  18.730  0.00  0.00    +0.000 A 
ATOM      8  C   UNL     1       2.828   2.640  19.173  0.00  0.00    +0.000 A 
ATOM      9  C   UNL     1       3.457   3.868  18.923  0.00  0.00    +0.000 A 
ATOM     10  C   UNL     1       4.862   4.071  19.328  0.00  0.00    +0.000 A 
ATOM     11  O   UNL     1       5.463   3.155  19.880  0.00  0.00    +0.000 OA
ENDROOT
BRANCH   1  12
ATOM     12  C   UNL     1       6.848   5.525  19.241  0.00  0.00    +0.000 C 
BRANCH  12  14
ATOM     13  C   UNL     1       7.872   7.421  17.954  0.00  0.00    +0.000 C 
ATOM     14  C   UNL     1       7.480   6.142  18.029  0.00  0.00    +0.000 C 
ENDBRANCH  12  14
ENDBRANCH   1  12
BRANCH   3  15
ATOM     15  C   UNL     1       2.842   7.293  17.281  0.00  0.00    +0.000 C 
BRANCH  15  16
ATOM     16  C   UNL     1       2.110   8.267  18.186  0.00  0.00    +0.000 A 
ATOM     17  C   UNL     1       1.760   9.556  17.757  0.00  0.00    +0.000 A 
ATOM     18  C   UNL     1       1.191  10.477  18.637  0.00  0.00    +0.000 A 
ATOM     19  C   UNL     1       0.975  10.133  19.971  0.00  0.00    +0.000 A 
ATOM     20 CL   UNL     1       0.321  11.341  21.018  0.00  0.00    +0.000 Cl
ATOM     21  C   UNL     1       1.308   8.850  20.416  0.00  0.00    +0.000 A 
ATOM     22 CL   UNL     1       1.074   8.350  22.053  0.00  0.00    +0.000 Cl
ATOM     23  C   UNL     1       1.872   7.923  19.527  0.00  0.00    +0.000 A 
ENDBRANCH  15  16
ENDBRANCH   3  15
TORSDOF 4
ENDMDL
