MODEL 1
REMARK VINA RESULT:      -8.8      0.000      0.000
REMARK  Name = 
REMARK  8 active torsions:
REMARK  status: ('A' for Active; 'I' for Inactive)
REMARK    1  A    between atoms: C_1  and  O_2
REMARK    2  A    between atoms: O_2  and  C_3
REMARK    3  A    between atoms: C_3  and  C_5
REMARK    4  A    between atoms: C_6  and  C_7
REMARK    5  A    between atoms: C_7  and  S_8
REMARK    6  A    between atoms: S_8  and  C_9
REMARK    7  A    between atoms: N_13  and  C_14
REMARK    8  A    between atoms: C_22  and  C_23
REMARK                            x       y       z     vdW  Elec       q    Type
REMARK                         _______ _______ _______ _____ _____    ______ ____
ROOT
ATOM      1  C   UNL     1       4.297   5.666  17.872  0.00  0.00    +0.000 A 
ATOM      2  C   UNL     1       4.937   4.418  17.803  0.00  0.00    +0.000 A 
ATOM      3  N   UNL     1       4.569   3.410  18.631  0.00  0.00    +0.000 NA
ATOM      4  C   UNL     1       3.589   3.586  19.517  0.00  0.00    +0.000 A 
ATOM      5  C   UNL     1       3.363   2.539  20.399  0.00  0.00    +0.000 A 
ATOM      6  C   UNL     1       2.387   2.603  21.388  0.00  0.00    +0.000 A 
ATOM      7  C   UNL     1       1.574   3.718  21.460  0.00  0.00    +0.000 A 
ATOM      8  C   UNL     1       1.763   4.765  20.556  0.00  0.00    +0.000 A 
ATOM      9  C   UNL     1       2.819   4.766  19.600  0.00  0.00    +0.000 A 
ATOM     10  C   UNL     1       3.182   5.865  18.743  0.00  0.00    +0.000 A 
ENDROOT
BRANCH  10  11
ATOM     11  C   UNL     1       2.468   7.192  18.821  0.00  0.00    +0.000 A 
ATOM     12  C   UNL     1       2.108   7.908  17.660  0.00  0.00    +0.000 A 
ATOM     13  C   UNL     1       1.444   9.139  17.721  0.00  0.00    +0.000 A 
ATOM     14  C   UNL     1       1.032   9.646  18.945  0.00  0.00    +0.000 A 
ATOM     15  C   UNL     1       1.321   8.939  20.109  0.00  0.00    +0.000 A 
ATOM     16  C   UNL     1       2.062   7.750  20.051  0.00  0.00    +0.000 A 
ENDBRANCH  10  11
BRANCH   1  17
ATOM     17  C   UNL     1       4.942   6.796  17.147  0.00  0.00    +0.000 C 
ATOM     18  O   UNL     1       4.744   7.104  15.995  0.00  0.00    +0.000 OA
BRANCH  17  20
ATOM     19  C   UNL     1       7.177   7.587  17.445  0.00  0.00    +0.000 C 
ATOM     20  O   UNL     1       5.896   7.266  17.981  0.00  0.00    +0.000 OA
ENDBRANCH  17  20
ENDBRANCH   1  17
BRANCH   2  21
ATOM     21  C   UNL     1       6.103   4.134  16.857  0.00  0.00    +0.000 C 
BRANCH  21  22
ATOM     22  S   UNL     1       5.607   3.550  15.188  0.00  0.00    +0.000 S 
BRANCH  22  23
ATOM     23  C   UNL     1       6.707   4.408  14.176  0.00  0.00    +0.000 A 
ATOM     24  N   UNL     1       7.554   5.347  14.528  0.00  0.00    +0.000 NA
ATOM     25  N   UNL     1       8.215   5.707  13.377  0.00  0.00    +0.000 NA
ATOM     26  N   UNL     1       7.786   5.005  12.339  0.00  0.00    +0.000 NA
ATOM     27  N   UNL     1       6.838   4.188  12.835  0.00  0.00    +0.000 N 
ATOM     28  C   UNL     1       6.144   3.272  11.972  0.00  0.00    +0.000 C 
ENDBRANCH  22  23
ENDBRANCH  21  22
ENDBRANCH   2  21
TORSDOF 6
ENDMDL
MODEL 2
REMARK VINA RESULT:      -8.3      2.402      4.806
REMARK  Name = 
REMARK  8 active torsions:
REMARK  status: ('A' for Active; 'I' for Inactive)
REMARK    1  A    between atoms: C_1  and  O_2
REMARK    2  A    between atoms: O_2  and  C_3
REMARK    3  A    between atoms: C_3  and  C_5
REMARK    4  A    between atoms: C_6  and  C_7
REMARK    5  A    between atoms: C_7  and  S_8
REMARK    6  A    between atoms: S_8  and  C_9
REMARK    7  A    between atoms: N_13  and  C_14
REMARK    8  A    between atoms: C_22  and  C_23
REMARK                            x       y       z     vdW  Elec       q    Type
REMARK                         _______ _______ _______ _____ _____    ______ ____
ROOT
ATOM      1  C   UNL     1       3.216   6.107  18.420  0.00  0.00    +0.000 A 
ATOM      2  C   UNL     1       3.561   7.297  17.758  0.00  0.00    +0.000 A 
ATOM      3  N   UNL     1       2.956   8.465  18.083  0.00  0.00    +0.000 NA
ATOM      4  C   UNL     1       2.031   8.503  19.041  0.00  0.00    +0.000 A 
ATOM      5  C   UNL     1       1.384   9.718  19.222  0.00  0.00    +0.000 A 
ATOM      6  C   UNL     1       0.381   9.888  20.172  0.00  0.00    +0.000 A 
ATOM      7  C   UNL     1       0.057   8.833  21.003  0.00  0.00    +0.000 A 
ATOM      8  C   UNL     1       0.724   7.615  20.860  0.00  0.00    +0.000 A 
ATOM      9  C   UNL     1       1.683   7.386  19.831  0.00  0.00    +0.000 A 
ATOM     10  C   UNL     1       2.297   6.123  19.513  0.00  0.00    +0.000 A 
ENDROOT
BRANCH  10  11
ATOM     11  C   UNL     1       1.924   4.860  20.250  0.00  0.00    +0.000 A 
ATOM     12  C   UNL     1       0.971   3.957  19.735  0.00  0.00    +0.000 A 
ATOM     13  C   UNL     1       0.619   2.782  20.409  0.00  0.00    +0.000 A 
ATOM     14  C   UNL     1       1.282   2.425  21.575  0.00  0.00    +0.000 A 
ATOM     15  C   UNL     1       2.269   3.265  22.084  0.00  0.00    +0.000 A 
ATOM     16  C   UNL     1       2.557   4.483  21.452  0.00  0.00    +0.000 A 
ENDBRANCH  10  11
BRANCH   1  17
ATOM     17  C   UNL     1       3.702   4.835  17.817  0.00  0.00    +0.000 C 
ATOM     18  O   UNL     1       3.201   4.258  16.880  0.00  0.00    +0.000 OA
BRANCH  17  20
ATOM     19  C   UNL     1       4.715   3.012  18.983  0.00  0.00    +0.000 C 
ATOM     20  O   UNL     1       4.682   4.394  18.636  0.00  0.00    +0.000 OA
ENDBRANCH  17  20
ENDBRANCH   1  17
BRANCH   2  21
ATOM     21  C   UNL     1       4.573   7.347  16.613  0.00  0.00    +0.000 C 
BRANCH  21  22
ATOM     22  S   UNL     1       6.301   7.682  17.136  0.00  0.00    +0.000 S 
BRANCH  22  23
ATOM     23  C   UNL     1       7.038   6.139  16.920  0.00  0.00    +0.000 A 
ATOM     24  N   UNL     1       7.142   5.450  15.808  0.00  0.00    +0.000 NA
ATOM     25  N   UNL     1       7.818   4.299  16.142  0.00  0.00    +0.000 NA
ATOM     26  N   UNL     1       8.125   4.281  17.430  0.00  0.00    +0.000 NA
ATOM     27  N   UNL     1       7.636   5.434  17.923  0.00  0.00    +0.000 N 
ATOM     28  C   UNL     1       7.788   5.748  19.318  0.00  0.00    +0.000 C 
ENDBRANCH  22  23
ENDBRANCH  21  22
ENDBRANCH   2  21
TORSDOF 6
ENDMDL
MODEL 3
REMARK VINA RESULT:      -8.1      2.354      4.719
REMARK  Name = 
REMARK  8 active torsions:
REMARK  status: ('A' for Active; 'I' for Inactive)
REMARK    1  A    between atoms: C_1  and  O_2
REMARK    2  A    between atoms: O_2  and  C_3
REMARK    3  A    between atoms: C_3  and  C_5
REMARK    4  A    between atoms: C_6  and  C_7
REMARK    5  A    between atoms: C_7  and  S_8
REMARK    6  A    between atoms: S_8  and  C_9
REMARK    7  A    between atoms: N_13  and  C_14
REMARK    8  A    between atoms: C_22  and  C_23
REMARK                            x       y       z     vdW  Elec       q    Type
REMARK                         _______ _______ _______ _____ _____    ______ ____
ROOT
ATOM      1  C   UNL     1       3.377   5.865  18.293  0.00  0.00    +0.000 A 
ATOM      2  C   UNL     1       3.782   7.002  17.574  0.00  0.00    +0.000 A 
ATOM      3  N   UNL     1       3.227   8.211  17.831  0.00  0.00    +0.000 NA
ATOM      4  C   UNL     1       2.294   8.341  18.774  0.00  0.00    +0.000 A 
ATOM      5  C   UNL     1       1.701   9.591  18.883  0.00  0.00    +0.000 A 
ATOM      6  C   UNL     1       0.697   9.855  19.809  0.00  0.00    +0.000 A 
ATOM      7  C   UNL     1       0.317   8.861  20.691  0.00  0.00    +0.000 A 
ATOM      8  C   UNL     1       0.930   7.608  20.619  0.00  0.00    +0.000 A 
ATOM      9  C   UNL     1       1.888   7.284  19.616  0.00  0.00    +0.000 A 
ATOM     10  C   UNL     1       2.448   5.979  19.372  0.00  0.00    +0.000 A 
ENDROOT
BRANCH  10  11
ATOM     11  C   UNL     1       2.011   4.775  20.169  0.00  0.00    +0.000 A 
ATOM     12  C   UNL     1       1.043   3.873  19.677  0.00  0.00    +0.000 A 
ATOM     13  C   UNL     1       0.632   2.752  20.406  0.00  0.00    +0.000 A 
ATOM     14  C   UNL     1       1.247   2.443  21.611  0.00  0.00    +0.000 A 
ATOM     15  C   UNL     1       2.246   3.280  22.102  0.00  0.00    +0.000 A 
ATOM     16  C   UNL     1       2.595   4.449  21.410  0.00  0.00    +0.000 A 
ENDBRANCH  10  11
BRANCH   1  17
ATOM     17  C   UNL     1       3.811   4.542  17.763  0.00  0.00    +0.000 C 
ATOM     18  O   UNL     1       3.301   3.946  16.843  0.00  0.00    +0.000 OA
BRANCH  17  20
ATOM     19  C   UNL     1       4.672   2.747  19.083  0.00  0.00    +0.000 C 
ATOM     20  O   UNL     1       4.749   4.094  18.626  0.00  0.00    +0.000 OA
ENDBRANCH  17  20
ENDBRANCH   1  17
BRANCH   2  21
ATOM     21  C   UNL     1       4.807   6.946  16.442  0.00  0.00    +0.000 C 
BRANCH  21  22
ATOM     22  S   UNL     1       6.469   7.591  16.884  0.00  0.00    +0.000 S 
BRANCH  22  23
ATOM     23  C   UNL     1       7.221   6.191  17.550  0.00  0.00    +0.000 A 
ATOM     24  N   UNL     1       7.663   6.024  18.774  0.00  0.00    +0.000 NA
ATOM     25  N   UNL     1       8.163   4.744  18.822  0.00  0.00    +0.000 NA
ATOM     26  N   UNL     1       8.029   4.135  17.654  0.00  0.00    +0.000 NA
ATOM     27  N   UNL     1       7.440   5.039  16.851  0.00  0.00    +0.000 N 
ATOM     28  C   UNL     1       7.144   4.712  15.482  0.00  0.00    +0.000 C 
ENDBRANCH  22  23
ENDBRANCH  21  22
ENDBRANCH   2  21
TORSDOF 6
ENDMDL
MODEL 4
REMARK VINA RESULT:      -8.1      2.486      6.653
REMARK  Name = 
REMARK  8 active torsions:
REMARK  status: ('A' for Active; 'I' for Inactive)
REMARK    1  A    between atoms: C_1  and  O_2
REMARK    2  A    between atoms: O_2  and  C_3
REMARK    3  A    between atoms: C_3  and  C_5
REMARK    4  A    between atoms: C_6  and  C_7
REMARK    5  A    between atoms: C_7  and  S_8
REMARK    6  A    between atoms: S_8  and  C_9
REMARK    7  A    between atoms: N_13  and  C_14
REMARK    8  A    between atoms: C_22  and  C_23
REMARK                            x       y       z     vdW  Elec       q    Type
REMARK                         _______ _______ _______ _____ _____    ______ ____
ROOT
ATOM      1  C   UNL     1       4.653   5.267  17.440  0.00  0.00    +0.000 A 
ATOM      2  C   UNL     1       3.773   4.359  16.829  0.00  0.00    +0.000 A 
ATOM      3  N   UNL     1       4.058   3.838  15.612  0.00  0.00    +0.000 NA
ATOM      4  C   UNL     1       5.182   4.174  14.979  0.00  0.00    +0.000 A 
ATOM      5  C   UNL     1       5.331   3.684  13.689  0.00  0.00    +0.000 A 
ATOM      6  C   UNL     1       6.446   3.979  12.910  0.00  0.00    +0.000 A 
ATOM      7  C   UNL     1       7.466   4.734  13.454  0.00  0.00    +0.000 A 
ATOM      8  C   UNL     1       7.350   5.204  14.764  0.00  0.00    +0.000 A 
ATOM      9  C   UNL     1       6.177   5.000  15.546  0.00  0.00    +0.000 A 
ATOM     10  C   UNL     1       5.909   5.581  16.836  0.00  0.00    +0.000 A 
ENDROOT
BRANCH  10  11
ATOM     11  C   UNL     1       6.878   6.541  17.482  0.00  0.00    +0.000 A 
ATOM     12  C   UNL     1       6.968   7.888  17.074  0.00  0.00    +0.000 A 
ATOM     13  C   UNL     1       7.861   8.788  17.667  0.00  0.00    +0.000 A 
ATOM     14  C   UNL     1       8.626   8.391  18.755  0.00  0.00    +0.000 A 
ATOM     15  C   UNL     1       8.523   7.084  19.222  0.00  0.00    +0.000 A 
ATOM     16  C   UNL     1       7.691   6.162  18.570  0.00  0.00    +0.000 A 
ENDBRANCH  10  11
BRANCH   1  17
ATOM     17  C   UNL     1       4.140   6.011  18.625  0.00  0.00    +0.000 C 
ATOM     18  O   UNL     1       4.073   5.585  19.753  0.00  0.00    +0.000 OA
BRANCH  17  20
ATOM     19  C   UNL     1       2.323   7.560  18.568  0.00  0.00    +0.000 C 
ATOM     20  O   UNL     1       3.620   7.159  18.137  0.00  0.00    +0.000 OA
ENDBRANCH  17  20
ENDBRANCH   1  17
BRANCH   2  21
ATOM     21  C   UNL     1       2.438   3.951  17.452  0.00  0.00    +0.000 C 
BRANCH  21  22
ATOM     22  S   UNL     1       2.382   2.223  18.071  0.00  0.00    +0.000 S 
BRANCH  22  23
ATOM     23  C   UNL     1       2.222   2.466  19.770  0.00  0.00    +0.000 A 
ATOM     24  N   UNL     1       1.127   2.737  20.442  0.00  0.00    +0.000 NA
ATOM     25  N   UNL     1       1.508   2.825  21.760  0.00  0.00    +0.000 NA
ATOM     26  N   UNL     1       2.807   2.610  21.898  0.00  0.00    +0.000 NA
ATOM     27  N   UNL     1       3.261   2.385  20.652  0.00  0.00    +0.000 N 
ATOM     28  C   UNL     1       4.655   2.117  20.423  0.00  0.00    +0.000 C 
ENDBRANCH  22  23
ENDBRANCH  21  22
ENDBRANCH   2  21
TORSDOF 6
ENDMDL
MODEL 5
REMARK VINA RESULT:      -8.1      2.713      4.970
REMARK  Name = 
REMARK  8 active torsions:
REMARK  status: ('A' for Active; 'I' for Inactive)
REMARK    1  A    between atoms: C_1  and  O_2
REMARK    2  A    between atoms: O_2  and  C_3
REMARK    3  A    between atoms: C_3  and  C_5
REMARK    4  A    between atoms: C_6  and  C_7
REMARK    5  A    between atoms: C_7  and  S_8
REMARK    6  A    between atoms: S_8  and  C_9
REMARK    7  A    between atoms: N_13  and  C_14
REMARK    8  A    between atoms: C_22  and  C_23
REMARK                            x       y       z     vdW  Elec       q    Type
REMARK                         _______ _______ _______ _____ _____    ______ ____
ROOT
ATOM      1  C   UNL     1       3.623   5.511  17.867  0.00  0.00    +0.000 A 
ATOM      2  C   UNL     1       4.144   6.511  17.030  0.00  0.00    +0.000 A 
ATOM      3  N   UNL     1       3.723   7.793  17.148  0.00  0.00    +0.000 NA
ATOM      4  C   UNL     1       2.814   8.125  18.064  0.00  0.00    +0.000 A 
ATOM      5  C   UNL     1       2.358   9.436  18.030  0.00  0.00    +0.000 A 
ATOM      6  C   UNL     1       1.392   9.906  18.915  0.00  0.00    +0.000 A 
ATOM      7  C   UNL     1       0.912   9.062  19.897  0.00  0.00    +0.000 A 
ATOM      8  C   UNL     1       1.387   7.751  19.969  0.00  0.00    +0.000 A 
ATOM      9  C   UNL     1       2.300   7.217  19.015  0.00  0.00    +0.000 A 
ATOM     10  C   UNL     1       2.717   5.841  18.920  0.00  0.00    +0.000 A 
ENDROOT
BRANCH  10  11
ATOM     11  C   UNL     1       2.157   4.786  19.841  0.00  0.00    +0.000 A 
ATOM     12  C   UNL     1       1.119   3.922  19.433  0.00  0.00    +0.000 A 
ATOM     13  C   UNL     1       0.593   2.938  20.278  0.00  0.00    +0.000 A 
ATOM     14  C   UNL     1       1.157   2.723  21.528  0.00  0.00    +0.000 A 
ATOM     15  C   UNL     1       2.220   3.520  21.944  0.00  0.00    +0.000 A 
ATOM     16  C   UNL     1       2.687   4.561  21.128  0.00  0.00    +0.000 A 
ENDBRANCH  10  11
BRANCH   1  17
ATOM     17  C   UNL     1       3.911   4.098  17.489  0.00  0.00    +0.000 C 
ATOM     18  O   UNL     1       3.342   3.465  16.631  0.00  0.00    +0.000 OA
BRANCH  17  20
ATOM     19  C   UNL     1       4.544   2.393  19.037  0.00  0.00    +0.000 C 
ATOM     20  O   UNL     1       4.792   3.648  18.409  0.00  0.00    +0.000 OA
ENDBRANCH  17  20
ENDBRANCH   1  17
BRANCH   2  21
ATOM     21  C   UNL     1       5.152   6.222  15.919  0.00  0.00    +0.000 C 
BRANCH  21  22
ATOM     22  S   UNL     1       6.725   5.465  16.492  0.00  0.00    +0.000 S 
BRANCH  22  23
ATOM     23  C   UNL     1       7.456   6.776  17.338  0.00  0.00    +0.000 A 
ATOM     24  N   UNL     1       7.616   8.010  16.920  0.00  0.00    +0.000 NA
ATOM     25  N   UNL     1       8.233   8.679  17.952  0.00  0.00    +0.000 NA
ATOM     26  N   UNL     1       8.447   7.875  18.982  0.00  0.00    +0.000 NA
ATOM     27  N   UNL     1       7.962   6.679  18.602  0.00  0.00    +0.000 N 
ATOM     28  C   UNL     1       8.033   5.550  19.490  0.00  0.00    +0.000 C 
ENDBRANCH  22  23
ENDBRANCH  21  22
ENDBRANCH   2  21
TORSDOF 6
ENDMDL
MODEL 6
REMARK VINA RESULT:      -7.8      2.509      6.748
REMARK  Name = 
REMARK  8 active torsions:
REMARK  status: ('A' for Active; 'I' for Inactive)
REMARK    1  A    between atoms: C_1  and  O_2
REMARK    2  A    between atoms: O_2  and  C_3
REMARK    3  A    between atoms: C_3  and  C_5
REMARK    4  A    between atoms: C_6  and  C_7
REMARK    5  A    between atoms: C_7  and  S_8
REMARK    6  A    between atoms: S_8  and  C_9
REMARK    7  A    between atoms: N_13  and  C_14
REMARK    8  A    between atoms: C_22  and  C_23
REMARK                            x       y       z     vdW  Elec       q    Type
REMARK                         _______ _______ _______ _____ _____    ______ ____
ROOT
ATOM      1  C   UNL     1       5.105   4.967  17.427  0.00  0.00    +0.000 A 
ATOM      2  C   UNL     1       4.353   3.955  16.807  0.00  0.00    +0.000 A 
ATOM      3  N   UNL     1       4.652   3.550  15.550  0.00  0.00    +0.000 NA
ATOM      4  C   UNL     1       5.668   4.100  14.885  0.00  0.00    +0.000 A 
ATOM      5  C   UNL     1       5.823   3.705  13.563  0.00  0.00    +0.000 A 
ATOM      6  C   UNL     1       6.828   4.220  12.751  0.00  0.00    +0.000 A 
ATOM      7  C   UNL     1       7.739   5.108  13.289  0.00  0.00    +0.000 A 
ATOM      8  C   UNL     1       7.621   5.487  14.628  0.00  0.00    +0.000 A 
ATOM      9  C   UNL     1       6.543   5.052  15.451  0.00  0.00    +0.000 A 
ATOM     10  C   UNL     1       6.256   5.516  16.784  0.00  0.00    +0.000 A 
ENDROOT
BRANCH  10  11
ATOM     11  C   UNL     1       7.088   6.591  17.438  0.00  0.00    +0.000 A 
ATOM     12  C   UNL     1       7.029   7.935  17.011  0.00  0.00    +0.000 A 
ATOM     13  C   UNL     1       7.794   8.941  17.611  0.00  0.00    +0.000 A 
ATOM     14  C   UNL     1       8.573   8.651  18.723  0.00  0.00    +0.000 A 
ATOM     15  C   UNL     1       8.613   7.347  19.207  0.00  0.00    +0.000 A 
ATOM     16  C   UNL     1       7.912   6.325  18.550  0.00  0.00    +0.000 A 
ENDBRANCH  10  11
BRANCH   1  17
ATOM     17  C   UNL     1       4.543   5.555  18.675  0.00  0.00    +0.000 C 
ATOM     18  O   UNL     1       4.813   5.214  19.803  0.00  0.00    +0.000 OA
BRANCH  17  20
ATOM     19  C   UNL     1       2.571   6.790  19.213  0.00  0.00    +0.000 C 
ATOM     20  O   UNL     1       3.568   6.399  18.273  0.00  0.00    +0.000 OA
ENDBRANCH  17  20
ENDBRANCH   1  17
BRANCH   2  21
ATOM     21  C   UNL     1       3.141   3.299  17.467  0.00  0.00    +0.000 C 
BRANCH  21  22
ATOM     22  S   UNL     1       3.537   1.848  18.521  0.00  0.00    +0.000 S 
BRANCH  22  23
ATOM     23  C   UNL     1       2.828   2.304  20.024  0.00  0.00    +0.000 A 
ATOM     24  N   UNL     1       3.424   2.426  21.187  0.00  0.00    +0.000 NA
ATOM     25  N   UNL     1       2.446   2.822  22.070  0.00  0.00    +0.000 NA
ATOM     26  N   UNL     1       1.275   2.943  21.464  0.00  0.00    +0.000 NA
ATOM     27  N   UNL     1       1.509   2.618  20.179  0.00  0.00    +0.000 N 
ATOM     28  C   UNL     1       0.439   2.636  19.219  0.00  0.00    +0.000 C 
ENDBRANCH  22  23
ENDBRANCH  21  22
ENDBRANCH   2  21
TORSDOF 6
ENDMDL
MODEL 7
REMARK VINA RESULT:      -7.7      2.697      4.956
REMARK  Name = 
REMARK  8 active torsions:
REMARK  status: ('A' for Active; 'I' for Inactive)
REMARK    1  A    between atoms: C_1  and  O_2
REMARK    2  A    between atoms: O_2  and  C_3
REMARK    3  A    between atoms: C_3  and  C_5
REMARK    4  A    between atoms: C_6  and  C_7
REMARK    5  A    between atoms: C_7  and  S_8
REMARK    6  A    between atoms: S_8  and  C_9
REMARK    7  A    between atoms: N_13  and  C_14
REMARK    8  A    between atoms: C_22  and  C_23
REMARK                            x       y       z     vdW  Elec       q    Type
REMARK                         _______ _______ _______ _____ _____    ______ ____
ROOT
ATOM      1  C   UNL     1       3.732   4.681  17.719  0.00  0.00    +0.000 A 
ATOM      2  C   UNL     1       4.343   5.499  16.755  0.00  0.00    +0.000 A 
ATOM      3  N   UNL     1       4.105   6.833  16.735  0.00  0.00    +0.000 NA
ATOM      4  C   UNL     1       3.294   7.389  17.634  0.00  0.00    +0.000 A 
ATOM      5  C   UNL     1       3.019   8.739  17.462  0.00  0.00    +0.000 A 
ATOM      6  C   UNL     1       2.170   9.435  18.316  0.00  0.00    +0.000 A 
ATOM      7  C   UNL     1       1.626   8.781  19.405  0.00  0.00    +0.000 A 
ATOM      8  C   UNL     1       1.923   7.432  19.615  0.00  0.00    +0.000 A 
ATOM      9  C   UNL     1       2.709   6.673  18.701  0.00  0.00    +0.000 A 
ATOM     10  C   UNL     1       2.929   5.251  18.754  0.00  0.00    +0.000 A 
ENDROOT
BRANCH  10  11
ATOM     11  C   UNL     1       2.276   4.393  19.810  0.00  0.00    +0.000 A 
ATOM     12  C   UNL     1       1.104   3.656  19.543  0.00  0.00    +0.000 A 
ATOM     13  C   UNL     1       0.490   2.856  20.514  0.00  0.00    +0.000 A 
ATOM     14  C   UNL     1       1.087   2.692  21.757  0.00  0.00    +0.000 A 
ATOM     15  C   UNL     1       2.275   3.360  22.037  0.00  0.00    +0.000 A 
ATOM     16  C   UNL     1       2.840   4.228  21.092  0.00  0.00    +0.000 A 
ENDBRANCH  10  11
BRANCH   1  17
ATOM     17  C   UNL     1       3.806   3.209  17.499  0.00  0.00    +0.000 C 
ATOM     18  O   UNL     1       3.108   2.568  16.750  0.00  0.00    +0.000 OA
BRANCH  17  20
ATOM     19  C   UNL     1       4.345   1.561  19.143  0.00  0.00    +0.000 C 
ATOM     20  O   UNL     1       4.675   2.747  18.425  0.00  0.00    +0.000 OA
ENDBRANCH  17  20
ENDBRANCH   1  17
BRANCH   2  21
ATOM     21  C   UNL     1       5.248   4.950  15.653  0.00  0.00    +0.000 C 
BRANCH  21  22
ATOM     22  S   UNL     1       6.930   5.686  15.609  0.00  0.00    +0.000 S 
BRANCH  22  23
ATOM     23  C   UNL     1       7.384   5.620  17.270  0.00  0.00    +0.000 A 
ATOM     24  N   UNL     1       7.519   4.553  18.022  0.00  0.00    +0.000 NA
ATOM     25  N   UNL     1       7.907   5.012  19.259  0.00  0.00    +0.000 NA
ATOM     26  N   UNL     1       8.011   6.333  19.268  0.00  0.00    +0.000 NA
ATOM     27  N   UNL     1       7.683   6.719  18.022  0.00  0.00    +0.000 N 
ATOM     28  C   UNL     1       7.684   8.113  17.670  0.00  0.00    +0.000 C 
ENDBRANCH  22  23
ENDBRANCH  21  22
ENDBRANCH   2  21
TORSDOF 6
ENDMDL
MODEL 8
REMARK VINA RESULT:      -7.7      7.821     11.507
REMARK  Name = 
REMARK  8 active torsions:
REMARK  status: ('A' for Active; 'I' for Inactive)
REMARK    1  A    between atoms: C_1  and  O_2
REMARK    2  A    between atoms: O_2  and  C_3
REMARK    3  A    between atoms: C_3  and  C_5
REMARK    4  A    between atoms: C_6  and  C_7
REMARK    5  A    between atoms: C_7  and  S_8
REMARK    6  A    between atoms: S_8  and  C_9
REMARK    7  A    between atoms: N_13  and  C_14
REMARK    8  A    between atoms: C_22  and  C_23
REMARK                            x       y       z     vdW  Elec       q    Type
REMARK                         _______ _______ _______ _____ _____    ______ ____
ROOT
ATOM      1  C   UNL     1      -0.933  11.516  20.215  0.00  0.00    +0.000 A 
ATOM      2  C   UNL     1      -2.064  12.342  20.314  0.00  0.00    +0.000 A 
ATOM      3  N   UNL     1      -3.026  12.308  19.359  0.00  0.00    +0.000 NA
ATOM      4  C   UNL     1      -2.915  11.485  18.317  0.00  0.00    +0.000 A 
ATOM      5  C   UNL     1      -3.887  11.605  17.334  0.00  0.00    +0.000 A 
ATOM      6  C   UNL     1      -3.875  10.823  16.183  0.00  0.00    +0.000 A 
ATOM      7  C   UNL     1      -2.901   9.854  16.038  0.00  0.00    +0.000 A 
ATOM      8  C   UNL     1      -1.938   9.694  17.036  0.00  0.00    +0.000 A 
ATOM      9  C   UNL     1      -1.869  10.547  18.174  0.00  0.00    +0.000 A 
ATOM     10  C   UNL     1      -0.822  10.556  19.163  0.00  0.00    +0.000 A 
ENDROOT
BRANCH  10  11
ATOM     11  C   UNL     1       0.376   9.646  19.047  0.00  0.00    +0.000 A 
ATOM     12  C   UNL     1       0.707   8.724  20.062  0.00  0.00    +0.000 A 
ATOM     13  C   UNL     1       1.815   7.874  19.963  0.00  0.00    +0.000 A 
ATOM     14  C   UNL     1       2.572   7.853  18.801  0.00  0.00    +0.000 A 
ATOM     15  C   UNL     1       2.242   8.710  17.755  0.00  0.00    +0.000 A 
ATOM     16  C   UNL     1       1.184   9.620  17.892  0.00  0.00    +0.000 A 
ENDBRANCH  10  11
BRANCH   1  17
ATOM     17  C   UNL     1       0.203  11.816  21.131  0.00  0.00    +0.000 C 
ATOM     18  O   UNL     1       0.312  11.433  22.272  0.00  0.00    +0.000 OA
BRANCH  17  20
ATOM     19  C   UNL     1       1.382  13.893  21.184  0.00  0.00    +0.000 C 
ATOM     20  O   UNL     1       0.963  12.725  20.483  0.00  0.00    +0.000 OA
ENDBRANCH  17  20
ENDBRANCH   1  17
BRANCH   2  21
ATOM     21  C   UNL     1      -2.258  13.353  21.443  0.00  0.00    +0.000 C 
BRANCH  21  22
ATOM     22  S   UNL     1      -3.954  14.049  21.563  0.00  0.00    +0.000 S 
BRANCH  22  23
ATOM     23  C   UNL     1      -4.617  13.130  22.861  0.00  0.00    +0.000 A 
ATOM     24  N   UNL     1      -3.970  12.400  23.739  0.00  0.00    +0.000 NA
ATOM     25  N   UNL     1      -4.930  11.880  24.576  0.00  0.00    +0.000 NA
ATOM     26  N   UNL     1      -6.141  12.283  24.222  0.00  0.00    +0.000 NA
ATOM     27  N   UNL     1      -5.951  13.067  23.146  0.00  0.00    +0.000 N 
ATOM     28  C   UNL     1      -7.071  13.682  22.488  0.00  0.00    +0.000 C 
ENDBRANCH  22  23
ENDBRANCH  21  22
ENDBRANCH   2  21
TORSDOF 6
ENDMDL
MODEL 9
REMARK VINA RESULT:      -7.5      7.818     11.486
REMARK  Name = 
REMARK  8 active torsions:
REMARK  status: ('A' for Active; 'I' for Inactive)
REMARK    1  A    between atoms: C_1  and  O_2
REMARK    2  A    between atoms: O_2  and  C_3
REMARK    3  A    between atoms: C_3  and  C_5
REMARK    4  A    between atoms: C_6  and  C_7
REMARK    5  A    between atoms: C_7  and  S_8
REMARK    6  A    between atoms: S_8  and  C_9
REMARK    7  A    between atoms: N_13  and  C_14
REMARK    8  A    between atoms: C_22  and  C_23
REMARK                            x       y       z     vdW  Elec       q    Type
REMARK                         _______ _______ _______ _____ _____    ______ ____
ROOT
ATOM      1  C   UNL     1      -0.911  11.505  20.219  0.00  0.00    +0.000 A 
ATOM      2  C   UNL     1      -2.042  12.331  20.325  0.00  0.00    +0.000 A 
ATOM      3  N   UNL     1      -3.008  12.301  19.376  0.00  0.00    +0.000 NA
ATOM      4  C   UNL     1      -2.904  11.479  18.331  0.00  0.00    +0.000 A 
ATOM      5  C   UNL     1      -3.881  11.603  17.353  0.00  0.00    +0.000 A 
ATOM      6  C   UNL     1      -3.876  10.824  16.201  0.00  0.00    +0.000 A 
ATOM      7  C   UNL     1      -2.903   9.854  16.048  0.00  0.00    +0.000 A 
ATOM      8  C   UNL     1      -1.935   9.691  17.041  0.00  0.00    +0.000 A 
ATOM      9  C   UNL     1      -1.859  10.542  18.180  0.00  0.00    +0.000 A 
ATOM     10  C   UNL     1      -0.807  10.547  19.164  0.00  0.00    +0.000 A 
ENDROOT
BRANCH  10  11
ATOM     11  C   UNL     1       0.390   9.637  19.039  0.00  0.00    +0.000 A 
ATOM     12  C   UNL     1       0.732   8.720  20.055  0.00  0.00    +0.000 A 
ATOM     13  C   UNL     1       1.838   7.870  19.949  0.00  0.00    +0.000 A 
ATOM     14  C   UNL     1       2.584   7.842  18.778  0.00  0.00    +0.000 A 
ATOM     15  C   UNL     1       2.242   8.695  17.731  0.00  0.00    +0.000 A 
ATOM     16  C   UNL     1       1.186   9.606  17.875  0.00  0.00    +0.000 A 
ENDBRANCH  10  11
BRANCH   1  17
ATOM     17  C   UNL     1       0.229  11.802  21.129  0.00  0.00    +0.000 C 
ATOM     18  O   UNL     1       0.346  11.413  22.268  0.00  0.00    +0.000 OA
BRANCH  17  20
ATOM     19  C   UNL     1       1.430  13.866  21.194  0.00  0.00    +0.000 C 
ATOM     20  O   UNL     1       0.985  12.716  20.481  0.00  0.00    +0.000 OA
ENDBRANCH  17  20
ENDBRANCH   1  17
BRANCH   2  21
ATOM     21  C   UNL     1      -2.228  13.340  21.458  0.00  0.00    +0.000 C 
BRANCH  21  22
ATOM     22  S   UNL     1      -3.788  14.307  21.370  0.00  0.00    +0.000 S 
BRANCH  22  23
ATOM     23  C   UNL     1      -4.824  13.392  22.400  0.00  0.00    +0.000 A 
ATOM     24  N   UNL     1      -5.853  12.656  22.053  0.00  0.00    +0.000 NA
ATOM     25  N   UNL     1      -6.343  12.120  23.221  0.00  0.00    +0.000 NA
ATOM     26  N   UNL     1      -5.629  12.515  24.264  0.00  0.00    +0.000 NA
ATOM     27  N   UNL     1      -4.675  13.316  23.755  0.00  0.00    +0.000 N 
ATOM     28  C   UNL     1      -3.709  13.935  24.620  0.00  0.00    +0.000 C 
ENDBRANCH  22  23
ENDBRANCH  21  22
ENDBRANCH   2  21
TORSDOF 6
ENDMDL
