MODEL 1
REMARK VINA RESULT:      -8.7      0.000      0.000
REMARK  Name = 
REMARK  8 active torsions:
REMARK  status: ('A' for Active; 'I' for Inactive)
REMARK    1  A    between atoms: C_2  and  C_3
REMARK    2  A    between atoms: C_6  and  C_7
REMARK    3  A    between atoms: C_7  and  N_8
REMARK    4  A    between atoms: C_11  and  N_12
REMARK    5  A    between atoms: C_13  and  C_15
REMARK    6  A    between atoms: C_19  and  N_20
REMARK    7  A    between atoms: C_23  and  O_24
REMARK    8  A    between atoms: C_25  and  O_26
REMARK                            x       y       z     vdW  Elec       q    Type
REMARK                         _______ _______ _______ _____ _____    ______ ____
ROOT
ATOM      1  N   UNL     1       1.813   4.870  19.361  0.00  0.00    +0.000 N 
ATOM      2  C   UNL     1       1.913   5.704  20.452  0.00  0.00    +0.000 C 
ATOM      3  O   UNL     1       2.226   5.302  21.570  0.00  0.00    +0.000 OA
ATOM      4  H   UNL     1       1.322   5.228  18.541  0.00  0.00    +0.000 HD
ENDROOT
BRANCH   2   5
ATOM      5  C   UNL     1       1.642   7.158  20.209  0.00  0.00    +0.000 A 
ATOM      6  C   UNL     1       0.992   7.826  21.182  0.00  0.00    +0.000 A 
ATOM      7  C   UNL     1       0.665   9.240  21.037  0.00  0.00    +0.000 A 
ATOM      8  C   UNL     1       0.008   9.971  22.037  0.00  0.00    +0.000 A 
ATOM      9  C   UNL     1      -0.298  11.334  21.832  0.00  0.00    +0.000 A 
ATOM     10  C   UNL     1       0.050  11.963  20.630  0.00  0.00    +0.000 A 
ATOM     11  C   UNL     1       0.706  11.224  19.644  0.00  0.00    +0.000 A 
ATOM     12  C   UNL     1       1.012   9.880  19.851  0.00  0.00    +0.000 A 
ATOM     13  O   UNL     1       1.690   9.181  18.835  0.00  0.00    +0.000 OA
ATOM     14  C   UNL     1       2.062   7.849  18.973  0.00  0.00    +0.000 A 
ATOM     15  O   UNL     1       2.707   7.274  18.100  0.00  0.00    +0.000 OA
BRANCH   9  16
ATOM     16  N   UNL     1      -0.987  12.077  22.891  0.00  0.00    +0.000 N 
ATOM     17  O   UNL     1      -2.012  11.582  23.376  0.00  0.00    +0.000 OA
ATOM     18  O   UNL     1      -0.493  13.160  23.236  0.00  0.00    +0.000 OA
ENDBRANCH   9  16
BRANCH  10  19
ATOM     19  O   UNL     1      -0.192  13.276  20.311  0.00  0.00    +0.000 OA
ATOM     20  H   UNL     1       0.139  13.861  21.029  0.00  0.00    +0.000 HD
ENDBRANCH  10  19
BRANCH  11  21
ATOM     21  O   UNL     1       1.050  11.833  18.469  0.00  0.00    +0.000 OA
ATOM     22  H   UNL     1       0.437  12.590  18.374  0.00  0.00    +0.000 HD
ENDBRANCH  11  21
ENDBRANCH   2   5
BRANCH   1  26
ATOM     23  N   UNL     1       4.279   2.948  17.513  0.00  0.00    +0.000 NA
ATOM     24  C   UNL     1       4.538   3.537  18.833  0.00  0.00    +0.000 C 
ATOM     25  C   UNL     1       3.513   3.119  19.884  0.00  0.00    +0.000 C 
ATOM     26  C   UNL     1       2.084   3.431  19.438  0.00  0.00    +0.000 C 
ATOM     27  C   UNL     1       1.830   2.719  18.111  0.00  0.00    +0.000 C 
ATOM     28  C   UNL     1       2.882   3.067  17.051  0.00  0.00    +0.000 C 
BRANCH  23  29
ATOM     29  C   UNL     1       5.215   3.487  16.499  0.00  0.00    +0.000 C 
BRANCH  29  33
ATOM     30  C   UNL     1       7.239   7.185  17.557  0.00  0.00    +0.000 A 
ATOM     31  C   UNL     1       7.741   5.957  17.989  0.00  0.00    +0.000 A 
ATOM     32  C   UNL     1       7.075   4.767  17.658  0.00  0.00    +0.000 A 
ATOM     33  C   UNL     1       5.897   4.792  16.901  0.00  0.00    +0.000 A 
ATOM     34  C   UNL     1       5.391   6.036  16.486  0.00  0.00    +0.000 A 
ATOM     35  C   UNL     1       6.058   7.225  16.811  0.00  0.00    +0.000 A 
BRANCH  30  37
ATOM     36  N   UNL     1       8.479   9.395  18.131  0.00  0.00    +0.000 NA
ATOM     37  C   UNL     1       7.913   8.410  17.867  0.00  0.00    +0.000 C 
ENDBRANCH  30  37
ENDBRANCH  29  33
ENDBRANCH  23  29
ENDBRANCH   1  26
TORSDOF 8
ENDMDL
MODEL 2
REMARK VINA RESULT:      -8.3      3.310     10.556
REMARK  Name = 
REMARK  8 active torsions:
REMARK  status: ('A' for Active; 'I' for Inactive)
REMARK    1  A    between atoms: C_2  and  C_3
REMARK    2  A    between atoms: C_6  and  C_7
REMARK    3  A    between atoms: C_7  and  N_8
REMARK    4  A    between atoms: C_11  and  N_12
REMARK    5  A    between atoms: C_13  and  C_15
REMARK    6  A    between atoms: C_19  and  N_20
REMARK    7  A    between atoms: C_23  and  O_24
REMARK    8  A    between atoms: C_25  and  O_26
REMARK                            x       y       z     vdW  Elec       q    Type
REMARK                         _______ _______ _______ _____ _____    ______ ____
ROOT
ATOM      1  N   UNL     1       0.314  10.579  19.088  0.00  0.00    +0.000 N 
ATOM      2  C   UNL     1       1.380   9.922  18.515  0.00  0.00    +0.000 C 
ATOM      3  O   UNL     1       2.055  10.411  17.613  0.00  0.00    +0.000 OA
ATOM      4  H   UNL     1      -0.333  10.023  19.648  0.00  0.00    +0.000 HD
ENDROOT
BRANCH   2   5
ATOM      5  C   UNL     1       1.703   8.566  19.065  0.00  0.00    +0.000 A 
ATOM      6  C   UNL     1       2.271   7.685  18.218  0.00  0.00    +0.000 A 
ATOM      7  C   UNL     1       2.610   6.335  18.650  0.00  0.00    +0.000 A 
ATOM      8  C   UNL     1       3.220   5.400  17.800  0.00  0.00    +0.000 A 
ATOM      9  C   UNL     1       3.508   4.100  18.270  0.00  0.00    +0.000 A 
ATOM     10  C   UNL     1       3.185   3.735  19.584  0.00  0.00    +0.000 A 
ATOM     11  C   UNL     1       2.580   4.676  20.418  0.00  0.00    +0.000 A 
ATOM     12  C   UNL     1       2.301   5.961  19.954  0.00  0.00    +0.000 A 
ATOM     13  O   UNL     1       1.707   6.881  20.838  0.00  0.00    +0.000 OA
ATOM     14  C   UNL     1       1.428   8.190  20.466  0.00  0.00    +0.000 A 
ATOM     15  O   UNL     1       0.965   8.996  21.271  0.00  0.00    +0.000 OA
BRANCH   9  16
ATOM     16  N   UNL     1       4.144   3.139  17.364  0.00  0.00    +0.000 N 
ATOM     17  O   UNL     1       3.838   1.945  17.475  0.00  0.00    +0.000 OA
ATOM     18  O   UNL     1       4.950   3.589  16.538  0.00  0.00    +0.000 OA
ENDBRANCH   9  16
BRANCH  10  19
ATOM     19  O   UNL     1       3.412   2.508  20.156  0.00  0.00    +0.000 OA
ATOM     20  H   UNL     1       2.608   1.947  20.073  0.00  0.00    +0.000 HD
ENDBRANCH  10  19
BRANCH  11  21
ATOM     21  O   UNL     1       2.263   4.327  21.702  0.00  0.00    +0.000 OA
ATOM     22  H   UNL     1       1.607   3.605  21.625  0.00  0.00    +0.000 HD
ENDBRANCH  11  21
ENDBRANCH   2   5
BRANCH   1  26
ATOM     23  N   UNL     1      -0.963  13.267  21.170  0.00  0.00    +0.000 NA
ATOM     24  C   UNL     1       0.460  13.102  20.847  0.00  0.00    +0.000 C 
ATOM     25  C   UNL     1       0.726  13.028  19.346  0.00  0.00    +0.000 C 
ATOM     26  C   UNL     1      -0.097  11.926  18.679  0.00  0.00    +0.000 C 
ATOM     27  C   UNL     1      -1.574  12.194  18.961  0.00  0.00    +0.000 C 
ATOM     28  C   UNL     1      -1.865  12.340  20.460  0.00  0.00    +0.000 C 
BRANCH  23  29
ATOM     29  C   UNL     1      -1.185  13.199  22.633  0.00  0.00    +0.000 C 
BRANCH  29  33
ATOM     30  C   UNL     1      -5.391  13.316  23.721  0.00  0.00    +0.000 A 
ATOM     31  C   UNL     1      -4.835  14.332  22.943  0.00  0.00    +0.000 A 
ATOM     32  C   UNL     1      -3.472  14.297  22.608  0.00  0.00    +0.000 A 
ATOM     33  C   UNL     1      -2.652  13.254  23.053  0.00  0.00    +0.000 A 
ATOM     34  C   UNL     1      -3.219  12.246  23.850  0.00  0.00    +0.000 A 
ATOM     35  C   UNL     1      -4.581  12.275  24.182  0.00  0.00    +0.000 A 
BRANCH  30  37
ATOM     36  N   UNL     1      -7.917  13.350  24.332  0.00  0.00    +0.000 NA
ATOM     37  C   UNL     1      -6.783  13.322  24.058  0.00  0.00    +0.000 C 
ENDBRANCH  30  37
ENDBRANCH  29  33
ENDBRANCH  23  29
ENDBRANCH   1  26
TORSDOF 8
ENDMDL
MODEL 3
REMARK VINA RESULT:      -8.0      1.216      1.444
REMARK  Name = 
REMARK  8 active torsions:
REMARK  status: ('A' for Active; 'I' for Inactive)
REMARK    1  A    between atoms: C_2  and  C_3
REMARK    2  A    between atoms: C_6  and  C_7
REMARK    3  A    between atoms: C_7  and  N_8
REMARK    4  A    between atoms: C_11  and  N_12
REMARK    5  A    between atoms: C_13  and  C_15
REMARK    6  A    between atoms: C_19  and  N_20
REMARK    7  A    between atoms: C_23  and  O_24
REMARK    8  A    between atoms: C_25  and  O_26
REMARK                            x       y       z     vdW  Elec       q    Type
REMARK                         _______ _______ _______ _____ _____    ______ ____
ROOT
ATOM      1  N   UNL     1       1.954   5.864  18.942  0.00  0.00    +0.000 N 
ATOM      2  C   UNL     1       1.722   6.783  19.941  0.00  0.00    +0.000 C 
ATOM      3  O   UNL     1       1.536   6.459  21.112  0.00  0.00    +0.000 OA
ATOM      4  H   UNL     1       1.858   6.187  17.978  0.00  0.00    +0.000 HD
ENDROOT
BRANCH   2   5
ATOM      5  C   UNL     1       1.731   8.226  19.538  0.00  0.00    +0.000 A 
ATOM      6  C   UNL     1       1.119   9.093  20.368  0.00  0.00    +0.000 A 
ATOM      7  C   UNL     1       1.057  10.517  20.059  0.00  0.00    +0.000 A 
ATOM      8  C   UNL     1       0.446  11.449  20.910  0.00  0.00    +0.000 A 
ATOM      9  C   UNL     1       0.401  12.814  20.548  0.00  0.00    +0.000 A 
ATOM     10  C   UNL     1       0.964  13.243  19.339  0.00  0.00    +0.000 A 
ATOM     11  C   UNL     1       1.570  12.304  18.503  0.00  0.00    +0.000 A 
ATOM     12  C   UNL     1       1.618  10.959  18.864  0.00  0.00    +0.000 A 
ATOM     13  O   UNL     1       2.256  10.052  17.998  0.00  0.00    +0.000 OA
ATOM     14  C   UNL     1       2.377   8.701  18.298  0.00  0.00    +0.000 A 
ATOM     15  O   UNL     1       2.992   7.937  17.558  0.00  0.00    +0.000 OA
BRANCH   9  16
ATOM     16  N   UNL     1      -0.245  13.770  21.452  0.00  0.00    +0.000 N 
ATOM     17  O   UNL     1      -1.215  14.409  21.026  0.00  0.00    +0.000 OA
ATOM     18  O   UNL     1       0.225  13.876  22.593  0.00  0.00    +0.000 OA
ENDBRANCH   9  16
BRANCH  10  19
ATOM     19  O   UNL     1       0.983  14.536  18.876  0.00  0.00    +0.000 OA
ATOM     20  H   UNL     1       1.053  14.539  17.895  0.00  0.00    +0.000 HD
ENDBRANCH  10  19
BRANCH  11  21
ATOM     21  O   UNL     1       2.122  12.717  17.322  0.00  0.00    +0.000 OA
ATOM     22  H   UNL     1       2.032  11.960  16.709  0.00  0.00    +0.000 HD
ENDBRANCH  11  21
ENDBRANCH   2   5
BRANCH   1  26
ATOM     23  N   UNL     1       4.478   3.493  17.849  0.00  0.00    +0.000 NA
ATOM     24  C   UNL     1       4.528   4.187  19.142  0.00  0.00    +0.000 C 
ATOM     25  C   UNL     1       3.258   4.000  19.969  0.00  0.00    +0.000 C 
ATOM     26  C   UNL     1       2.010   4.421  19.193  0.00  0.00    +0.000 C 
ATOM     27  C   UNL     1       1.949   3.603  17.904  0.00  0.00    +0.000 C 
ATOM     28  C   UNL     1       3.238   3.717  17.080  0.00  0.00    +0.000 C 
BRANCH  23  29
ATOM     29  C   UNL     1       5.670   3.813  17.030  0.00  0.00    +0.000 C 
BRANCH  29  33
ATOM     30  C   UNL     1       7.589   7.622  17.866  0.00  0.00    +0.000 A 
ATOM     31  C   UNL     1       8.012   6.461  18.514  0.00  0.00    +0.000 A 
ATOM     32  C   UNL     1       7.378   5.236  18.253  0.00  0.00    +0.000 A 
ATOM     33  C   UNL     1       6.312   5.161  17.348  0.00  0.00    +0.000 A 
ATOM     34  C   UNL     1       5.883   6.340  16.714  0.00  0.00    +0.000 A 
ATOM     35  C   UNL     1       6.518   7.563  16.970  0.00  0.00    +0.000 A 
BRANCH  30  37
ATOM     36  N   UNL     1       8.747   9.904  18.318  0.00  0.00    +0.000 NA
ATOM     37  C   UNL     1       8.233   8.878  18.104  0.00  0.00    +0.000 C 
ENDBRANCH  30  37
ENDBRANCH  29  33
ENDBRANCH  23  29
ENDBRANCH   1  26
TORSDOF 8
ENDMDL
MODEL 4
REMARK VINA RESULT:      -8.0      3.502     10.560
REMARK  Name = 
REMARK  8 active torsions:
REMARK  status: ('A' for Active; 'I' for Inactive)
REMARK    1  A    between atoms: C_2  and  C_3
REMARK    2  A    between atoms: C_6  and  C_7
REMARK    3  A    between atoms: C_7  and  N_8
REMARK    4  A    between atoms: C_11  and  N_12
REMARK    5  A    between atoms: C_13  and  C_15
REMARK    6  A    between atoms: C_19  and  N_20
REMARK    7  A    between atoms: C_23  and  O_24
REMARK    8  A    between atoms: C_25  and  O_26
REMARK                            x       y       z     vdW  Elec       q    Type
REMARK                         _______ _______ _______ _____ _____    ______ ____
ROOT
ATOM      1  N   UNL     1       0.602  10.170  18.426  0.00  0.00    +0.000 N 
ATOM      2  C   UNL     1       1.821   9.849  17.874  0.00  0.00    +0.000 C 
ATOM      3  O   UNL     1       2.419  10.596  17.103  0.00  0.00    +0.000 OA
ATOM      4  H   UNL     1       0.067   9.412  18.853  0.00  0.00    +0.000 HD
ENDROOT
BRANCH   2   5
ATOM      5  C   UNL     1       2.414   8.533  18.278  0.00  0.00    +0.000 A 
ATOM      6  C   UNL     1       3.340   8.004  17.455  0.00  0.00    +0.000 A 
ATOM      7  C   UNL     1       3.965   6.720  17.750  0.00  0.00    +0.000 A 
ATOM      8  C   UNL     1       4.947   6.151  16.926  0.00  0.00    +0.000 A 
ATOM      9  C   UNL     1       5.504   4.895  17.254  0.00  0.00    +0.000 A 
ATOM     10  C   UNL     1       5.078   4.210  18.399  0.00  0.00    +0.000 A 
ATOM     11  C   UNL     1       4.101   4.790  19.210  0.00  0.00    +0.000 A 
ATOM     12  C   UNL     1       3.557   6.032  18.888  0.00  0.00    +0.000 A 
ATOM     13  O   UNL     1       2.588   6.584  19.746  0.00  0.00    +0.000 OA
ATOM     14  C   UNL     1       2.020   7.832  19.517  0.00  0.00    +0.000 A 
ATOM     15  O   UNL     1       1.222   8.324  20.311  0.00  0.00    +0.000 OA
BRANCH   9  16
ATOM     16  N   UNL     1       6.528   4.318  16.377  0.00  0.00    +0.000 N 
ATOM     17  O   UNL     1       6.154   3.746  15.345  0.00  0.00    +0.000 OA
ATOM     18  O   UNL     1       7.709   4.445  16.728  0.00  0.00    +0.000 OA
ENDBRANCH   9  16
BRANCH  10  19
ATOM     19  O   UNL     1       5.538   2.988  18.822  0.00  0.00    +0.000 OA
ATOM     20  H   UNL     1       4.900   2.592  19.457  0.00  0.00    +0.000 HD
ENDBRANCH  10  19
BRANCH  11  21
ATOM     21  O   UNL     1       3.682   4.127  20.330  0.00  0.00    +0.000 OA
ATOM     22  H   UNL     1       4.046   3.222  20.253  0.00  0.00    +0.000 HD
ENDBRANCH  11  21
ENDBRANCH   2   5
BRANCH   1  26
ATOM     23  N   UNL     1      -1.289  12.246  20.730  0.00  0.00    +0.000 NA
ATOM     24  C   UNL     1       0.144  12.430  20.467  0.00  0.00    +0.000 C 
ATOM     25  C   UNL     1       0.463  12.599  18.984  0.00  0.00    +0.000 C 
ATOM     26  C   UNL     1      -0.081  11.438  18.152  0.00  0.00    +0.000 C 
ATOM     27  C   UNL     1      -1.589  11.348  18.382  0.00  0.00    +0.000 C 
ATOM     28  C   UNL     1      -1.946  11.243  19.870  0.00  0.00    +0.000 C 
BRANCH  23  29
ATOM     29  C   UNL     1      -1.532  11.952  22.161  0.00  0.00    +0.000 C 
BRANCH  29  33
ATOM     30  C   UNL     1      -5.526  12.962  23.548  0.00  0.00    +0.000 A 
ATOM     31  C   UNL     1      -5.219  13.007  22.187  0.00  0.00    +0.000 A 
ATOM     32  C   UNL     1      -3.923  12.695  21.746  0.00  0.00    +0.000 A 
ATOM     33  C   UNL     1      -2.921  12.344  22.659  0.00  0.00    +0.000 A 
ATOM     34  C   UNL     1      -3.237  12.319  24.028  0.00  0.00    +0.000 A 
ATOM     35  C   UNL     1      -4.531  12.624  24.471  0.00  0.00    +0.000 A 
BRANCH  30  37
ATOM     36  N   UNL     1      -7.914  13.492  24.422  0.00  0.00    +0.000 NA
ATOM     37  C   UNL     1      -6.845  13.257  24.018  0.00  0.00    +0.000 C 
ENDBRANCH  30  37
ENDBRANCH  29  33
ENDBRANCH  23  29
ENDBRANCH   1  26
TORSDOF 8
ENDMDL
MODEL 5
REMARK VINA RESULT:      -7.9      3.369     10.505
REMARK  Name = 
REMARK  8 active torsions:
REMARK  status: ('A' for Active; 'I' for Inactive)
REMARK    1  A    between atoms: C_2  and  C_3
REMARK    2  A    between atoms: C_6  and  C_7
REMARK    3  A    between atoms: C_7  and  N_8
REMARK    4  A    between atoms: C_11  and  N_12
REMARK    5  A    between atoms: C_13  and  C_15
REMARK    6  A    between atoms: C_19  and  N_20
REMARK    7  A    between atoms: C_23  and  O_24
REMARK    8  A    between atoms: C_25  and  O_26
REMARK                            x       y       z     vdW  Elec       q    Type
REMARK                         _______ _______ _______ _____ _____    ______ ____
ROOT
ATOM      1  N   UNL     1       1.139  11.288  18.950  0.00  0.00    +0.000 N 
ATOM      2  C   UNL     1       0.721  10.091  18.414  0.00  0.00    +0.000 C 
ATOM      3  O   UNL     1      -0.245  10.001  17.660  0.00  0.00    +0.000 OA
ATOM      4  H   UNL     1       1.783  11.247  19.742  0.00  0.00    +0.000 HD
ENDROOT
BRANCH   2   5
ATOM      5  C   UNL     1       1.525   8.878  18.775  0.00  0.00    +0.000 A 
ATOM      6  C   UNL     1       2.396   8.428  17.852  0.00  0.00    +0.000 A 
ATOM      7  C   UNL     1       3.213   7.246  18.099  0.00  0.00    +0.000 A 
ATOM      8  C   UNL     1       4.144   6.763  17.168  0.00  0.00    +0.000 A 
ATOM      9  C   UNL     1       4.895   5.602  17.456  0.00  0.00    +0.000 A 
ATOM     10  C   UNL     1       4.713   4.926  18.670  0.00  0.00    +0.000 A 
ATOM     11  C   UNL     1       3.784   5.420  19.587  0.00  0.00    +0.000 A 
ATOM     12  C   UNL     1       3.049   6.569  19.303  0.00  0.00    +0.000 A 
ATOM     13  O   UNL     1       2.138   7.039  20.267  0.00  0.00    +0.000 OA
ATOM     14  C   UNL     1       1.390   8.195  20.078  0.00  0.00    +0.000 A 
ATOM     15  O   UNL     1       0.645   8.623  20.956  0.00  0.00    +0.000 OA
BRANCH   9  16
ATOM     16  N   UNL     1       5.861   5.113  16.467  0.00  0.00    +0.000 N 
ATOM     17  O   UNL     1       5.779   3.931  16.109  0.00  0.00    +0.000 OA
ATOM     18  O   UNL     1       6.700   5.922  16.049  0.00  0.00    +0.000 OA
ENDBRANCH   9  16
BRANCH  10  19
ATOM     19  O   UNL     1       5.378   3.791  19.065  0.00  0.00    +0.000 OA
ATOM     20  H   UNL     1       6.006   3.510  18.362  0.00  0.00    +0.000 HD
ENDBRANCH  10  19
BRANCH  11  21
ATOM     21  O   UNL     1       3.604   4.765  20.774  0.00  0.00    +0.000 OA
ATOM     22  H   UNL     1       3.324   5.450  21.414  0.00  0.00    +0.000 HD
ENDBRANCH  11  21
ENDBRANCH   2   5
BRANCH   1  26
ATOM     23  N   UNL     1      -0.800  13.377  21.201  0.00  0.00    +0.000 NA
ATOM     24  C   UNL     1       0.642  13.550  20.979  0.00  0.00    +0.000 C 
ATOM     25  C   UNL     1       1.003  13.717  19.505  0.00  0.00    +0.000 C 
ATOM     26  C   UNL     1       0.474  12.561  18.657  0.00  0.00    +0.000 C 
ATOM     27  C   UNL     1      -1.040  12.483  18.845  0.00  0.00    +0.000 C 
ATOM     28  C   UNL     1      -1.441  12.380  20.322  0.00  0.00    +0.000 C 
BRANCH  23  29
ATOM     29  C   UNL     1      -1.085  13.085  22.624  0.00  0.00    +0.000 C 
BRANCH  29  33
ATOM     30  C   UNL     1      -5.280  13.166  23.762  0.00  0.00    +0.000 A 
ATOM     31  C   UNL     1      -4.443  12.147  24.221  0.00  0.00    +0.000 A 
ATOM     32  C   UNL     1      -3.093  12.117  23.838  0.00  0.00    +0.000 A 
ATOM     33  C   UNL     1      -2.568  13.097  22.987  0.00  0.00    +0.000 A 
ATOM     34  C   UNL     1      -3.424  14.108  22.517  0.00  0.00    +0.000 A 
ATOM     35  C   UNL     1      -4.771  14.143  22.902  0.00  0.00    +0.000 A 
BRANCH  30  37
ATOM     36  N   UNL     1      -7.769  13.273  24.500  0.00  0.00    +0.000 NA
ATOM     37  C   UNL     1      -6.655  13.226  24.156  0.00  0.00    +0.000 C 
ENDBRANCH  30  37
ENDBRANCH  29  33
ENDBRANCH  23  29
ENDBRANCH   1  26
TORSDOF 8
ENDMDL
MODEL 6
REMARK VINA RESULT:      -7.7      4.279      8.513
REMARK  Name = 
REMARK  8 active torsions:
REMARK  status: ('A' for Active; 'I' for Inactive)
REMARK    1  A    between atoms: C_2  and  C_3
REMARK    2  A    between atoms: C_6  and  C_7
REMARK    3  A    between atoms: C_7  and  N_8
REMARK    4  A    between atoms: C_11  and  N_12
REMARK    5  A    between atoms: C_13  and  C_15
REMARK    6  A    between atoms: C_19  and  N_20
REMARK    7  A    between atoms: C_23  and  O_24
REMARK    8  A    between atoms: C_25  and  O_26
REMARK                            x       y       z     vdW  Elec       q    Type
REMARK                         _______ _______ _______ _____ _____    ______ ____
ROOT
ATOM      1  N   UNL     1       1.283  11.082  19.937  0.00  0.00    +0.000 N 
ATOM      2  C   UNL     1       0.759   9.885  20.370  0.00  0.00    +0.000 C 
ATOM      3  O   UNL     1      -0.184   9.816  21.155  0.00  0.00    +0.000 OA
ATOM      4  H   UNL     1       2.199  11.058  19.489  0.00  0.00    +0.000 HD
ENDROOT
BRANCH   2   5
ATOM      5  C   UNL     1       1.384   8.641  19.814  0.00  0.00    +0.000 A 
ATOM      6  C   UNL     1       1.413   7.562  20.619  0.00  0.00    +0.000 A 
ATOM      7  C   UNL     1       2.014   6.309  20.180  0.00  0.00    +0.000 A 
ATOM      8  C   UNL     1       2.043   5.160  20.985  0.00  0.00    +0.000 A 
ATOM      9  C   UNL     1       2.656   3.980  20.511  0.00  0.00    +0.000 A 
ATOM     10  C   UNL     1       3.239   3.948  19.237  0.00  0.00    +0.000 A 
ATOM     11  C   UNL     1       3.200   5.097  18.446  0.00  0.00    +0.000 A 
ATOM     12  C   UNL     1       2.591   6.260  18.914  0.00  0.00    +0.000 A 
ATOM     13  O   UNL     1       2.561   7.388  18.074  0.00  0.00    +0.000 OA
ATOM     14  C   UNL     1       1.944   8.575  18.449  0.00  0.00    +0.000 A 
ATOM     15  O   UNL     1       1.875   9.529  17.677  0.00  0.00    +0.000 OA
BRANCH   9  16
ATOM     16  N   UNL     1       2.676   2.792  21.371  0.00  0.00    +0.000 N 
ATOM     17  O   UNL     1       3.714   2.120  21.409  0.00  0.00    +0.000 OA
ATOM     18  O   UNL     1       1.646   2.539  22.010  0.00  0.00    +0.000 OA
ENDBRANCH   9  16
BRANCH  10  19
ATOM     19  O   UNL     1       3.862   2.866  18.666  0.00  0.00    +0.000 OA
ATOM     20  H   UNL     1       4.027   2.177  19.348  0.00  0.00    +0.000 HD
ENDBRANCH  10  19
BRANCH  11  21
ATOM     21  O   UNL     1       3.767   5.072  17.202  0.00  0.00    +0.000 OA
ATOM     22  H   UNL     1       4.695   4.796  17.340  0.00  0.00    +0.000 HD
ENDBRANCH  11  21
ENDBRANCH   2   5
BRANCH   1  26
ATOM     23  N   UNL     1       2.145  14.385  18.697  0.00  0.00    +0.000 NA
ATOM     24  C   UNL     1       1.034  13.586  18.163  0.00  0.00    +0.000 C 
ATOM     25  C   UNL     1       0.050  13.138  19.239  0.00  0.00    +0.000 C 
ATOM     26  C   UNL     1       0.750  12.379  20.367  0.00  0.00    +0.000 C 
ATOM     27  C   UNL     1       1.830  13.285  20.955  0.00  0.00    +0.000 C 
ATOM     28  C   UNL     1       2.799  13.807  19.887  0.00  0.00    +0.000 C 
BRANCH  23  29
ATOM     29  C   UNL     1       3.141  14.681  17.641  0.00  0.00    +0.000 C 
BRANCH  29  33
ATOM     30  C   UNL     1       6.807  16.600  18.971  0.00  0.00    +0.000 A 
ATOM     31  C   UNL     1       6.849  15.347  18.358  0.00  0.00    +0.000 A 
ATOM     32  C   UNL     1       5.660  14.725  17.945  0.00  0.00    +0.000 A 
ATOM     33  C   UNL     1       4.420  15.343  18.147  0.00  0.00    +0.000 A 
ATOM     34  C   UNL     1       4.390  16.596  18.782  0.00  0.00    +0.000 A 
ATOM     35  C   UNL     1       5.575  17.222  19.190  0.00  0.00    +0.000 A 
BRANCH  30  37
ATOM     36  N   UNL     1       8.975  17.819  19.722  0.00  0.00    +0.000 NA
ATOM     37  C   UNL     1       8.009  17.261  19.383  0.00  0.00    +0.000 C 
ENDBRANCH  30  37
ENDBRANCH  29  33
ENDBRANCH  23  29
ENDBRANCH   1  26
TORSDOF 8
ENDMDL
MODEL 7
REMARK VINA RESULT:      -7.6      3.686     10.742
REMARK  Name = 
REMARK  8 active torsions:
REMARK  status: ('A' for Active; 'I' for Inactive)
REMARK    1  A    between atoms: C_2  and  C_3
REMARK    2  A    between atoms: C_6  and  C_7
REMARK    3  A    between atoms: C_7  and  N_8
REMARK    4  A    between atoms: C_11  and  N_12
REMARK    5  A    between atoms: C_13  and  C_15
REMARK    6  A    between atoms: C_19  and  N_20
REMARK    7  A    between atoms: C_23  and  O_24
REMARK    8  A    between atoms: C_25  and  O_26
REMARK                            x       y       z     vdW  Elec       q    Type
REMARK                         _______ _______ _______ _____ _____    ______ ____
ROOT
ATOM      1  N   UNL     1      -0.165  10.836  18.740  0.00  0.00    +0.000 N 
ATOM      2  C   UNL     1       1.168  10.517  18.615  0.00  0.00    +0.000 C 
ATOM      3  O   UNL     1       1.999  11.300  18.161  0.00  0.00    +0.000 OA
ATOM      4  H   UNL     1      -0.819  10.067  18.893  0.00  0.00    +0.000 HD
ENDROOT
BRANCH   2   5
ATOM      5  C   UNL     1       1.577   9.154  19.086  0.00  0.00    +0.000 A 
ATOM      6  C   UNL     1       2.239   8.379  18.205  0.00  0.00    +0.000 A 
ATOM      7  C   UNL     1       2.666   7.031  18.560  0.00  0.00    +0.000 A 
ATOM      8  C   UNL     1       3.375   6.205  17.675  0.00  0.00    +0.000 A 
ATOM      9  C   UNL     1       3.746   4.900  18.069  0.00  0.00    +0.000 A 
ATOM     10  C   UNL     1       3.408   4.423  19.342  0.00  0.00    +0.000 A 
ATOM     11  C   UNL     1       2.705   5.257  20.212  0.00  0.00    +0.000 A 
ATOM     12  C   UNL     1       2.344   6.546  19.824  0.00  0.00    +0.000 A 
ATOM     13  O   UNL     1       1.651   7.356  20.742  0.00  0.00    +0.000 OA
ATOM     14  C   UNL     1       1.284   8.663  20.448  0.00  0.00    +0.000 A 
ATOM     15  O   UNL     1       0.735   9.375  21.285  0.00  0.00    +0.000 OA
BRANCH   9  16
ATOM     16  N   UNL     1       4.485   4.054  17.126  0.00  0.00    +0.000 N 
ATOM     17  O   UNL     1       4.215   2.846  17.095  0.00  0.00    +0.000 OA
ATOM     18  O   UNL     1       5.334   4.608  16.415  0.00  0.00    +0.000 OA
ENDBRANCH   9  16
BRANCH  10  19
ATOM     19  O   UNL     1       3.710   3.180  19.840  0.00  0.00    +0.000 OA
ATOM     20  H   UNL     1       3.530   2.494  19.158  0.00  0.00    +0.000 HD
ENDBRANCH  10  19
BRANCH  11  21
ATOM     21  O   UNL     1       2.373   4.797  21.457  0.00  0.00    +0.000 OA
ATOM     22  H   UNL     1       1.854   3.982  21.308  0.00  0.00    +0.000 HD
ENDBRANCH  11  21
ENDBRANCH   2   5
BRANCH   1  26
ATOM     23  N   UNL     1      -2.500  12.929  20.572  0.00  0.00    +0.000 NA
ATOM     24  C   UNL     1      -1.042  13.050  20.692  0.00  0.00    +0.000 C 
ATOM     25  C   UNL     1      -0.347  13.250  19.348  0.00  0.00    +0.000 C 
ATOM     26  C   UNL     1      -0.704  12.144  18.355  0.00  0.00    +0.000 C 
ATOM     27  C   UNL     1      -2.223  12.122  18.189  0.00  0.00    +0.000 C 
ATOM     28  C   UNL     1      -2.954  11.987  19.531  0.00  0.00    +0.000 C 
BRANCH  23  29
ATOM     29  C   UNL     1      -3.114  12.603  21.880  0.00  0.00    +0.000 C 
BRANCH  29  33
ATOM     30  C   UNL     1      -4.348  16.016  24.272  0.00  0.00    +0.000 A 
ATOM     31  C   UNL     1      -4.787  15.882  22.953  0.00  0.00    +0.000 A 
ATOM     32  C   UNL     1      -4.372  14.786  22.180  0.00  0.00    +0.000 A 
ATOM     33  C   UNL     1      -3.511  13.819  22.713  0.00  0.00    +0.000 A 
ATOM     34  C   UNL     1      -3.062  13.974  24.036  0.00  0.00    +0.000 A 
ATOM     35  C   UNL     1      -3.478  15.064  24.811  0.00  0.00    +0.000 A 
BRANCH  30  37
ATOM     36  N   UNL     1      -5.143  18.008  25.738  0.00  0.00    +0.000 NA
ATOM     37  C   UNL     1      -4.774  17.116  25.084  0.00  0.00    +0.000 C 
ENDBRANCH  30  37
ENDBRANCH  29  33
ENDBRANCH  23  29
ENDBRANCH   1  26
TORSDOF 8
ENDMDL
MODEL 8
REMARK VINA RESULT:      -7.6      3.473     10.455
REMARK  Name = 
REMARK  8 active torsions:
REMARK  status: ('A' for Active; 'I' for Inactive)
REMARK    1  A    between atoms: C_2  and  C_3
REMARK    2  A    between atoms: C_6  and  C_7
REMARK    3  A    between atoms: C_7  and  N_8
REMARK    4  A    between atoms: C_11  and  N_12
REMARK    5  A    between atoms: C_13  and  C_15
REMARK    6  A    between atoms: C_19  and  N_20
REMARK    7  A    between atoms: C_23  and  O_24
REMARK    8  A    between atoms: C_25  and  O_26
REMARK                            x       y       z     vdW  Elec       q    Type
REMARK                         _______ _______ _______ _____ _____    ______ ____
ROOT
ATOM      1  N   UNL     1       0.389  10.192  18.239  0.00  0.00    +0.000 N 
ATOM      2  C   UNL     1       1.726   9.972  17.999  0.00  0.00    +0.000 C 
ATOM      3  O   UNL     1       2.458  10.817  17.490  0.00  0.00    +0.000 OA
ATOM      4  H   UNL     1      -0.193   9.376  18.433  0.00  0.00    +0.000 HD
ENDROOT
BRANCH   2   5
ATOM      5  C   UNL     1       2.270   8.638  18.414  0.00  0.00    +0.000 A 
ATOM      6  C   UNL     1       3.208   8.089  17.617  0.00  0.00    +0.000 A 
ATOM      7  C   UNL     1       3.788   6.787  17.923  0.00  0.00    +0.000 A 
ATOM      8  C   UNL     1       4.780   6.195  17.128  0.00  0.00    +0.000 A 
ATOM      9  C   UNL     1       5.292   4.923  17.465  0.00  0.00    +0.000 A 
ATOM     10  C   UNL     1       4.812   4.244  18.592  0.00  0.00    +0.000 A 
ATOM     11  C   UNL     1       3.826   4.846  19.376  0.00  0.00    +0.000 A 
ATOM     12  C   UNL     1       3.326   6.104  19.044  0.00  0.00    +0.000 A 
ATOM     13  O   UNL     1       2.346   6.678  19.875  0.00  0.00    +0.000 OA
ATOM     14  C   UNL     1       1.819   7.941  19.635  0.00  0.00    +0.000 A 
ATOM     15  O   UNL     1       1.009   8.451  20.407  0.00  0.00    +0.000 OA
BRANCH   9  16
ATOM     16  N   UNL     1       6.327   4.323  16.618  0.00  0.00    +0.000 N 
ATOM     17  O   UNL     1       5.973   3.784  15.561  0.00  0.00    +0.000 OA
ATOM     18  O   UNL     1       7.498   4.399  17.016  0.00  0.00    +0.000 OA
ENDBRANCH   9  16
BRANCH  10  19
ATOM     19  O   UNL     1       5.226   3.008  19.022  0.00  0.00    +0.000 OA
ATOM     20  H   UNL     1       4.843   2.817  19.908  0.00  0.00    +0.000 HD
ENDBRANCH  10  19
BRANCH  11  21
ATOM     21  O   UNL     1       3.354   4.188  20.478  0.00  0.00    +0.000 OA
ATOM     22  H   UNL     1       3.132   4.886  21.127  0.00  0.00    +0.000 HD
ENDBRANCH  11  21
ENDBRANCH   2   5
BRANCH   1  26
ATOM     23  N   UNL     1      -1.524  12.344  20.452  0.00  0.00    +0.000 NA
ATOM     24  C   UNL     1      -0.083  12.505  20.215  0.00  0.00    +0.000 C 
ATOM     25  C   UNL     1       0.267  12.635  18.736  0.00  0.00    +0.000 C 
ATOM     26  C   UNL     1      -0.273  11.461  17.920  0.00  0.00    +0.000 C 
ATOM     27  C   UNL     1      -1.786  11.394  18.121  0.00  0.00    +0.000 C 
ATOM     28  C   UNL     1      -2.176  11.329  19.603  0.00  0.00    +0.000 C 
BRANCH  23  29
ATOM     29  C   UNL     1      -1.800  12.088  21.885  0.00  0.00    +0.000 C 
BRANCH  29  33
ATOM     30  C   UNL     1      -3.759  15.338  24.005  0.00  0.00    +0.000 A 
ATOM     31  C   UNL     1      -3.776  14.043  24.526  0.00  0.00    +0.000 A 
ATOM     32  C   UNL     1      -3.156  12.995  23.829  0.00  0.00    +0.000 A 
ATOM     33  C   UNL     1      -2.520  13.227  22.603  0.00  0.00    +0.000 A 
ATOM     34  C   UNL     1      -2.524  14.531  22.080  0.00  0.00    +0.000 A 
ATOM     35  C   UNL     1      -3.138  15.581  22.776  0.00  0.00    +0.000 A 
BRANCH  30  37
ATOM     36  N   UNL     1      -4.871  17.322  25.260  0.00  0.00    +0.000 NA
ATOM     37  C   UNL     1      -4.369  16.426  24.708  0.00  0.00    +0.000 C 
ENDBRANCH  30  37
ENDBRANCH  29  33
ENDBRANCH  23  29
ENDBRANCH   1  26
TORSDOF 8
ENDMDL
MODEL 9
REMARK VINA RESULT:      -7.6      3.450     10.501
REMARK  Name = 
REMARK  8 active torsions:
REMARK  status: ('A' for Active; 'I' for Inactive)
REMARK    1  A    between atoms: C_2  and  C_3
REMARK    2  A    between atoms: C_6  and  C_7
REMARK    3  A    between atoms: C_7  and  N_8
REMARK    4  A    between atoms: C_11  and  N_12
REMARK    5  A    between atoms: C_13  and  C_15
REMARK    6  A    between atoms: C_19  and  N_20
REMARK    7  A    between atoms: C_23  and  O_24
REMARK    8  A    between atoms: C_25  and  O_26
REMARK                            x       y       z     vdW  Elec       q    Type
REMARK                         _______ _______ _______ _____ _____    ______ ____
ROOT
ATOM      1  N   UNL     1       1.497  10.923  18.878  0.00  0.00    +0.000 N 
ATOM      2  C   UNL     1       1.083   9.755  18.280  0.00  0.00    +0.000 C 
ATOM      3  O   UNL     1       0.146   9.710  17.486  0.00  0.00    +0.000 OA
ATOM      4  H   UNL     1       2.108  10.842  19.692  0.00  0.00    +0.000 HD
ENDROOT
BRANCH   2   5
ATOM      5  C   UNL     1       1.853   8.517  18.626  0.00  0.00    +0.000 A 
ATOM      6  C   UNL     1       2.745   8.080  17.715  0.00  0.00    +0.000 A 
ATOM      7  C   UNL     1       3.533   6.876  17.948  0.00  0.00    +0.000 A 
ATOM      8  C   UNL     1       4.484   6.405  17.032  0.00  0.00    +0.000 A 
ATOM      9  C   UNL     1       5.204   5.222  17.305  0.00  0.00    +0.000 A 
ATOM     10  C   UNL     1       4.972   4.510  18.489  0.00  0.00    +0.000 A 
ATOM     11  C   UNL     1       4.024   4.991  19.393  0.00  0.00    +0.000 A 
ATOM     12  C   UNL     1       3.318   6.163  19.124  0.00  0.00    +0.000 A 
ATOM     13  O   UNL     1       2.385   6.618  20.074  0.00  0.00    +0.000 OA
ATOM     14  C   UNL     1       1.664   7.793  19.900  0.00  0.00    +0.000 A 
ATOM     15  O   UNL     1       0.900   8.206  20.768  0.00  0.00    +0.000 OA
BRANCH   9  16
ATOM     16  N   UNL     1       6.193   4.748  16.331  0.00  0.00    +0.000 N 
ATOM     17  O   UNL     1       7.383   4.738  16.668  0.00  0.00    +0.000 OA
ATOM     18  O   UNL     1       5.768   4.382  15.226  0.00  0.00    +0.000 OA
ENDBRANCH   9  16
BRANCH  10  19
ATOM     19  O   UNL     1       5.604   3.351  18.867  0.00  0.00    +0.000 OA
ATOM     20  H   UNL     1       6.367   3.561  19.451  0.00  0.00    +0.000 HD
ENDBRANCH  10  19
BRANCH  11  21
ATOM     21  O   UNL     1       3.793   4.302  20.551  0.00  0.00    +0.000 OA
ATOM     22  H   UNL     1       3.685   4.982  21.246  0.00  0.00    +0.000 HD
ENDBRANCH  11  21
ENDBRANCH   2   5
BRANCH   1  26
ATOM     23  N   UNL     1      -0.469  12.975  21.139  0.00  0.00    +0.000 NA
ATOM     24  C   UNL     1       0.981  13.128  20.965  0.00  0.00    +0.000 C 
ATOM     25  C   UNL     1       1.388  13.336  19.509  0.00  0.00    +0.000 C 
ATOM     26  C   UNL     1       0.863  12.218  18.608  0.00  0.00    +0.000 C 
ATOM     27  C   UNL     1      -0.657  12.162  18.749  0.00  0.00    +0.000 C 
ATOM     28  C   UNL     1      -1.102  12.019  20.210  0.00  0.00    +0.000 C 
BRANCH  23  29
ATOM     29  C   UNL     1      -0.802  12.642  22.543  0.00  0.00    +0.000 C 
BRANCH  29  33
ATOM     30  C   UNL     1      -3.387  15.588  24.423  0.00  0.00    +0.000 A 
ATOM     31  C   UNL     1      -2.016  15.580  24.688  0.00  0.00    +0.000 A 
ATOM     32  C   UNL     1      -1.189  14.616  24.090  0.00  0.00    +0.000 A 
ATOM     33  C   UNL     1      -1.722  13.648  23.231  0.00  0.00    +0.000 A 
ATOM     34  C   UNL     1      -3.105  13.655  22.985  0.00  0.00    +0.000 A 
ATOM     35  C   UNL     1      -3.933  14.619  23.576  0.00  0.00    +0.000 A 
BRANCH  30  37
ATOM     36  N   UNL     1      -4.930  17.380  25.499  0.00  0.00    +0.000 NA
ATOM     37  C   UNL     1      -4.246  16.573  25.006  0.00  0.00    +0.000 C 
ENDBRANCH  30  37
ENDBRANCH  29  33
ENDBRANCH  23  29
ENDBRANCH   1  26
TORSDOF 8
ENDMDL
