MODEL 1
REMARK VINA RESULT:      -5.2      0.000      0.000
REMARK  Name = 
REMARK  3 active torsions:
REMARK  status: ('A' for Active; 'I' for Inactive)
REMARK    1  A    between atoms: C_2  and  C_3
REMARK    2  A    between atoms: N_5  and  C_6
REMARK    3  A    between atoms: C_6  and  C_7
REMARK                            x       y       z     vdW  Elec       q    Type
REMARK                         _______ _______ _______ _____ _____    ______ ____
ROOT
ATOM      1  O   UNL     1       7.193   4.249  11.802  0.00  0.00    +0.000 OA
ATOM      2  C   UNL     1       6.420   3.497  12.397  0.00  0.00    +0.000 C 
ATOM      3  N   UNL     1       6.184   3.599  13.748  0.00  0.00    +0.000 N 
ATOM      4  H   UNL     1       5.687   2.837  14.201  0.00  0.00    +0.000 HD
ENDROOT
BRANCH   2   5
ATOM      5  C   UNL     1       5.607   2.457  11.648  0.00  0.00    +0.000 C 
ATOM      6 CL   UNL     1       6.626   1.157  10.988  0.00  0.00    +0.000 Cl
ENDBRANCH   2   5
BRANCH   3   7
ATOM      7  C   UNL     1       6.912   4.513  14.613  0.00  0.00    +0.000 C 
BRANCH   7   8
ATOM      8  C   UNL     1       6.663   4.270  16.105  0.00  0.00    +0.000 C 
ATOM      9  C   UNL     1       5.648   5.184  16.770  0.00  0.00    +0.000 C 
ATOM     10  C   UNL     1       6.086   5.137  18.212  0.00  0.00    +0.000 C 
ATOM     11  C   UNL     1       7.593   5.071  18.090  0.00  0.00    +0.000 C 
ATOM     12  O   UNL     1       7.892   4.413  16.849  0.00  0.00    +0.000 OA
ENDBRANCH   7   8
ENDBRANCH   3   7
TORSDOF 3
ENDMDL
MODEL 2
REMARK VINA RESULT:      -5.1      3.510      5.427
REMARK  Name = 
REMARK  3 active torsions:
REMARK  status: ('A' for Active; 'I' for Inactive)
REMARK    1  A    between atoms: C_2  and  C_3
REMARK    2  A    between atoms: N_5  and  C_6
REMARK    3  A    between atoms: C_6  and  C_7
REMARK                            x       y       z     vdW  Elec       q    Type
REMARK                         _______ _______ _______ _____ _____    ______ ____
ROOT
ATOM      1  O   UNL     1       4.027   4.762  19.622  0.00  0.00    +0.000 OA
ATOM      2  C   UNL     1       4.706   3.797  19.271  0.00  0.00    +0.000 C 
ATOM      3  N   UNL     1       5.857   3.934  18.530  0.00  0.00    +0.000 N 
ATOM      4  H   UNL     1       6.259   3.095  18.119  0.00  0.00    +0.000 HD
ENDROOT
BRANCH   2   5
ATOM      5  C   UNL     1       4.355   2.389  19.716  0.00  0.00    +0.000 C 
ATOM      6 CL   UNL     1       3.549   1.460  18.430  0.00  0.00    +0.000 Cl
ENDBRANCH   2   5
BRANCH   3   7
ATOM      7  C   UNL     1       6.305   5.207  17.991  0.00  0.00    +0.000 C 
BRANCH   7   8
ATOM      8  C   UNL     1       5.990   5.383  16.501  0.00  0.00    +0.000 C 
ATOM      9  C   UNL     1       5.245   4.239  15.836  0.00  0.00    +0.000 C 
ATOM     10  C   UNL     1       5.645   4.405  14.392  0.00  0.00    +0.000 C 
ATOM     11  C   UNL     1       7.084   4.862  14.507  0.00  0.00    +0.000 C 
ATOM     12  O   UNL     1       7.209   5.570  15.750  0.00  0.00    +0.000 OA
ENDBRANCH   7   8
ENDBRANCH   3   7
TORSDOF 3
ENDMDL
MODEL 3
REMARK VINA RESULT:      -5.0      5.261      6.634
REMARK  Name = 
REMARK  3 active torsions:
REMARK  status: ('A' for Active; 'I' for Inactive)
REMARK    1  A    between atoms: C_2  and  C_3
REMARK    2  A    between atoms: N_5  and  C_6
REMARK    3  A    between atoms: C_6  and  C_7
REMARK                            x       y       z     vdW  Elec       q    Type
REMARK                         _______ _______ _______ _____ _____    ______ ____
ROOT
ATOM      1  O   UNL     1       5.318   5.881  18.023  0.00  0.00    +0.000 OA
ATOM      2  C   UNL     1       6.034   5.183  18.741  0.00  0.00    +0.000 C 
ATOM      3  N   UNL     1       5.666   3.921  19.147  0.00  0.00    +0.000 N 
ATOM      4  H   UNL     1       6.213   3.481  19.883  0.00  0.00    +0.000 HD
ENDROOT
BRANCH   2   5
ATOM      5  C   UNL     1       7.420   5.646  19.154  0.00  0.00    +0.000 C 
ATOM      6 CL   UNL     1       7.935   7.096  18.263  0.00  0.00    +0.000 Cl
ENDBRANCH   2   5
BRANCH   3   7
ATOM      7  C   UNL     1       4.357   3.351  18.872  0.00  0.00    +0.000 C 
BRANCH   7   8
ATOM      8  C   UNL     1       3.292   3.747  19.900  0.00  0.00    +0.000 C 
ATOM      9  C   UNL     1       2.907   2.678  20.909  0.00  0.00    +0.000 C 
ATOM     10  C   UNL     1       1.515   3.107  21.299  0.00  0.00    +0.000 C 
ATOM     11  C   UNL     1       0.963   3.639  19.994  0.00  0.00    +0.000 C 
ATOM     12  O   UNL     1       2.073   4.140  19.234  0.00  0.00    +0.000 OA
ENDBRANCH   7   8
ENDBRANCH   3   7
TORSDOF 3
ENDMDL
MODEL 4
REMARK VINA RESULT:      -5.0      5.016      6.520
REMARK  Name = 
REMARK  3 active torsions:
REMARK  status: ('A' for Active; 'I' for Inactive)
REMARK    1  A    between atoms: C_2  and  C_3
REMARK    2  A    between atoms: N_5  and  C_6
REMARK    3  A    between atoms: C_6  and  C_7
REMARK                            x       y       z     vdW  Elec       q    Type
REMARK                         _______ _______ _______ _____ _____    ______ ____
ROOT
ATOM      1  O   UNL     1       5.688   5.485  19.642  0.00  0.00    +0.000 OA
ATOM      2  C   UNL     1       6.013   4.679  18.770  0.00  0.00    +0.000 C 
ATOM      3  N   UNL     1       5.426   3.441  18.654  0.00  0.00    +0.000 N 
ATOM      4  H   UNL     1       5.867   2.762  18.040  0.00  0.00    +0.000 HD
ENDROOT
BRANCH   2   5
ATOM      5  C   UNL     1       7.031   5.044  17.705  0.00  0.00    +0.000 C 
ATOM      6 CL   UNL     1       7.662   6.693  17.918  0.00  0.00    +0.000 Cl
ENDBRANCH   2   5
BRANCH   3   7
ATOM      7  C   UNL     1       4.467   2.925  19.618  0.00  0.00    +0.000 C 
BRANCH   7   8
ATOM      8  C   UNL     1       3.056   3.495  19.440  0.00  0.00    +0.000 C 
ATOM      9  C   UNL     1       2.231   3.647  20.707  0.00  0.00    +0.000 C 
ATOM     10  C   UNL     1       0.824   3.597  20.169  0.00  0.00    +0.000 C 
ATOM     11  C   UNL     1       0.942   2.588  19.047  0.00  0.00    +0.000 C 
ATOM     12  O   UNL     1       2.286   2.661  18.548  0.00  0.00    +0.000 OA
ENDBRANCH   7   8
ENDBRANCH   3   7
TORSDOF 3
ENDMDL
MODEL 5
REMARK VINA RESULT:      -5.0      5.169      6.445
REMARK  Name = 
REMARK  3 active torsions:
REMARK  status: ('A' for Active; 'I' for Inactive)
REMARK    1  A    between atoms: C_2  and  C_3
REMARK    2  A    between atoms: N_5  and  C_6
REMARK    3  A    between atoms: C_6  and  C_7
REMARK                            x       y       z     vdW  Elec       q    Type
REMARK                         _______ _______ _______ _____ _____    ______ ____
ROOT
ATOM      1  O   UNL     1       4.650   5.519  18.007  0.00  0.00    +0.000 OA
ATOM      2  C   UNL     1       5.347   4.815  18.738  0.00  0.00    +0.000 C 
ATOM      3  N   UNL     1       5.115   3.470  18.907  0.00  0.00    +0.000 N 
ATOM      4  H   UNL     1       5.605   2.995  19.660  0.00  0.00    +0.000 HD
ENDROOT
BRANCH   2   5
ATOM      5  C   UNL     1       6.572   5.379  19.435  0.00  0.00    +0.000 C 
ATOM      6 CL   UNL     1       7.649   6.236  18.309  0.00  0.00    +0.000 Cl
ENDBRANCH   2   5
BRANCH   3   7
ATOM      7  C   UNL     1       3.960   2.789  18.344  0.00  0.00    +0.000 C 
BRANCH   7   8
ATOM      8  C   UNL     1       2.768   2.715  19.303  0.00  0.00    +0.000 C 
ATOM      9  C   UNL     1       1.688   3.765  19.109  0.00  0.00    +0.000 C 
ATOM     10  C   UNL     1       1.065   3.828  20.481  0.00  0.00    +0.000 C 
ATOM     11  C   UNL     1       2.262   3.634  21.387  0.00  0.00    +0.000 C 
ATOM     12  O   UNL     1       3.215   2.835  20.670  0.00  0.00    +0.000 OA
ENDBRANCH   7   8
ENDBRANCH   3   7
TORSDOF 3
ENDMDL
MODEL 6
REMARK VINA RESULT:      -5.0      4.810      6.313
REMARK  Name = 
REMARK  3 active torsions:
REMARK  status: ('A' for Active; 'I' for Inactive)
REMARK    1  A    between atoms: C_2  and  C_3
REMARK    2  A    between atoms: N_5  and  C_6
REMARK    3  A    between atoms: C_6  and  C_7
REMARK                            x       y       z     vdW  Elec       q    Type
REMARK                         _______ _______ _______ _____ _____    ______ ____
ROOT
ATOM      1  O   UNL     1       6.699   5.026  19.554  0.00  0.00    +0.000 OA
ATOM      2  C   UNL     1       6.294   4.669  18.447  0.00  0.00    +0.000 C 
ATOM      3  N   UNL     1       5.220   3.823  18.292  0.00  0.00    +0.000 N 
ATOM      4  H   UNL     1       5.060   3.425  17.370  0.00  0.00    +0.000 HD
ENDROOT
BRANCH   2   5
ATOM      5  C   UNL     1       6.907   5.220  17.173  0.00  0.00    +0.000 C 
ATOM      6 CL   UNL     1       7.407   6.917  17.348  0.00  0.00    +0.000 Cl
ENDBRANCH   2   5
BRANCH   3   7
ATOM      7  C   UNL     1       4.553   3.177  19.411  0.00  0.00    +0.000 C 
BRANCH   7   8
ATOM      8  C   UNL     1       3.042   3.433  19.449  0.00  0.00    +0.000 C 
ATOM      9  C   UNL     1       2.600   4.721  20.124  0.00  0.00    +0.000 C 
ATOM     10  C   UNL     1       1.194   4.382  20.548  0.00  0.00    +0.000 C 
ATOM     11  C   UNL     1       1.315   2.923  20.933  0.00  0.00    +0.000 C 
ATOM     12  O   UNL     1       2.368   2.358  20.137  0.00  0.00    +0.000 OA
ENDBRANCH   7   8
ENDBRANCH   3   7
TORSDOF 3
ENDMDL
MODEL 7
REMARK VINA RESULT:      -4.9      4.911      6.251
REMARK  Name = 
REMARK  3 active torsions:
REMARK  status: ('A' for Active; 'I' for Inactive)
REMARK    1  A    between atoms: C_2  and  C_3
REMARK    2  A    between atoms: N_5  and  C_6
REMARK    3  A    between atoms: C_6  and  C_7
REMARK                            x       y       z     vdW  Elec       q    Type
REMARK                         _______ _______ _______ _____ _____    ______ ____
ROOT
ATOM      1  O   UNL     1       4.378   3.577  17.304  0.00  0.00    +0.000 OA
ATOM      2  C   UNL     1       5.123   3.955  18.209  0.00  0.00    +0.000 C 
ATOM      3  N   UNL     1       5.174   3.329  19.432  0.00  0.00    +0.000 N 
ATOM      4  H   UNL     1       5.665   3.801  20.187  0.00  0.00    +0.000 HD
ENDROOT
BRANCH   2   5
ATOM      5  C   UNL     1       6.104   5.093  17.993  0.00  0.00    +0.000 C 
ATOM      6 CL   UNL     1       7.731   4.507  17.580  0.00  0.00    +0.000 Cl
ENDBRANCH   2   5
BRANCH   3   7
ATOM      7  C   UNL     1       4.271   2.253  19.810  0.00  0.00    +0.000 C 
BRANCH   7   8
ATOM      8  C   UNL     1       2.984   2.745  20.480  0.00  0.00    +0.000 C 
ATOM      9  C   UNL     1       1.693   2.477  19.724  0.00  0.00    +0.000 C 
ATOM     10  C   UNL     1       0.790   3.559  20.261  0.00  0.00    +0.000 C 
ATOM     11  C   UNL     1       1.744   4.721  20.433  0.00  0.00    +0.000 C 
ATOM     12  O   UNL     1       3.044   4.170  20.697  0.00  0.00    +0.000 OA
ENDBRANCH   7   8
ENDBRANCH   3   7
TORSDOF 3
ENDMDL
MODEL 8
REMARK VINA RESULT:      -4.9      4.953      6.348
REMARK  Name = 
REMARK  3 active torsions:
REMARK  status: ('A' for Active; 'I' for Inactive)
REMARK    1  A    between atoms: C_2  and  C_3
REMARK    2  A    between atoms: N_5  and  C_6
REMARK    3  A    between atoms: C_6  and  C_7
REMARK                            x       y       z     vdW  Elec       q    Type
REMARK                         _______ _______ _______ _____ _____    ______ ____
ROOT
ATOM      1  O   UNL     1       5.260   3.286  19.616  0.00  0.00    +0.000 OA
ATOM      2  C   UNL     1       5.050   3.815  18.524  0.00  0.00    +0.000 C 
ATOM      3  N   UNL     1       4.031   3.411  17.693  0.00  0.00    +0.000 N 
ATOM      4  H   UNL     1       4.032   3.759  16.738  0.00  0.00    +0.000 HD
ENDROOT
BRANCH   2   5
ATOM      5  C   UNL     1       5.858   5.014  18.065  0.00  0.00    +0.000 C 
ATOM      6 CL   UNL     1       7.476   4.552  17.489  0.00  0.00    +0.000 Cl
ENDBRANCH   2   5
BRANCH   3   7
ATOM      7  C   UNL     1       3.196   2.253  17.967  0.00  0.00    +0.000 C 
BRANCH   7   8
ATOM      8  C   UNL     1       1.967   2.575  18.825  0.00  0.00    +0.000 C 
ATOM      9  C   UNL     1       1.588   4.043  18.923  0.00  0.00    +0.000 C 
ATOM     10  C   UNL     1       0.840   4.084  20.231  0.00  0.00    +0.000 C 
ATOM     11  C   UNL     1       1.606   3.087  21.073  0.00  0.00    +0.000 C 
ATOM     12  O   UNL     1       2.163   2.112  20.178  0.00  0.00    +0.000 OA
ENDBRANCH   7   8
ENDBRANCH   3   7
TORSDOF 3
ENDMDL
MODEL 9
REMARK VINA RESULT:      -4.9      5.022      6.344
REMARK  Name = 
REMARK  3 active torsions:
REMARK  status: ('A' for Active; 'I' for Inactive)
REMARK    1  A    between atoms: C_2  and  C_3
REMARK    2  A    between atoms: N_5  and  C_6
REMARK    3  A    between atoms: C_6  and  C_7
REMARK                            x       y       z     vdW  Elec       q    Type
REMARK                         _______ _______ _______ _____ _____    ______ ____
ROOT
ATOM      1  O   UNL     1       5.663   3.892  19.306  0.00  0.00    +0.000 OA
ATOM      2  C   UNL     1       5.084   4.149  18.250  0.00  0.00    +0.000 C 
ATOM      3  N   UNL     1       4.030   3.398  17.785  0.00  0.00    +0.000 N 
ATOM      4  H   UNL     1       3.726   3.550  16.827  0.00  0.00    +0.000 HD
ENDROOT
BRANCH   2   5
ATOM      5  C   UNL     1       5.448   5.377  17.435  0.00  0.00    +0.000 C 
ATOM      6 CL   UNL     1       4.123   6.562  17.381  0.00  0.00    +0.000 Cl
ENDBRANCH   2   5
BRANCH   3   7
ATOM      7  C   UNL     1       3.588   2.170  18.425  0.00  0.00    +0.000 C 
BRANCH   7   8
ATOM      8  C   UNL     1       2.430   2.376  19.407  0.00  0.00    +0.000 C 
ATOM      9  C   UNL     1       1.511   3.550  19.118  0.00  0.00    +0.000 C 
ATOM     10  C   UNL     1       0.949   3.848  20.485  0.00  0.00    +0.000 C 
ATOM     11  C   UNL     1       2.133   3.573  21.388  0.00  0.00    +0.000 C 
ATOM     12  O   UNL     1       2.935   2.570  20.745  0.00  0.00    +0.000 OA
ENDBRANCH   7   8
ENDBRANCH   3   7
TORSDOF 3
ENDMDL
