MODEL 1
REMARK VINA RESULT:      -6.8      0.000      0.000
REMARK  Name = 
REMARK  8 active torsions:
REMARK  status: ('A' for Active; 'I' for Inactive)
REMARK    1  A    between atoms: C_1  and  C_2
REMARK    2  A    between atoms: C_2  and  C_3
REMARK    3  A    between atoms: C_6  and  C_7
REMARK    4  A    between atoms: C_8  and  C_9
REMARK    5  A    between atoms: C_11  and  N_12
REMARK    6  A    between atoms: N_13  and  N_14
REMARK    7  A    between atoms: N_14  and  C_15
REMARK    8  A    between atoms: N_14  and  C_16
REMARK                            x       y       z     vdW  Elec       q    Type
REMARK                         _______ _______ _______ _____ _____    ______ ____
ROOT
ATOM      1  C   UNL     1       4.367   5.643  17.314  0.00  0.00    +0.000 C 
ATOM      2  C   UNL     1       4.485   4.156  17.039  0.00  0.00    +0.000 C 
ATOM      3  C   UNL     1       3.897   3.223  17.824  0.00  0.00    +0.000 C 
ATOM      4  N   UNL     1       3.093   3.627  18.939  0.00  0.00    +0.000 N 
ATOM      5  C   UNL     1       2.810   5.003  19.183  0.00  0.00    +0.000 C 
ATOM      6  C   UNL     1       3.330   5.950  18.368  0.00  0.00    +0.000 C 
ATOM      7  C   UNL     1       2.883   7.377  18.423  0.00  0.00    +0.000 C 
ATOM      8  O   UNL     1       3.272   8.188  17.584  0.00  0.00    +0.000 OA
ATOM      9  C   UNL     1       1.846   7.764  19.440  0.00  0.00    +0.000 C 
ATOM     10  C   UNL     1       2.015   6.921  20.684  0.00  0.00    +0.000 C 
ATOM     11  C   UNL     1       1.937   5.432  20.347  0.00  0.00    +0.000 C 
ENDROOT
BRANCH   1  15
ATOM     12  C   UNL     1       7.640   7.802  17.824  0.00  0.00    +0.000 A 
ATOM     13  C   UNL     1       7.757   6.726  18.678  0.00  0.00    +0.000 A 
ATOM     14  C   UNL     1       6.653   5.833  18.572  0.00  0.00    +0.000 A 
ATOM     15  C   UNL     1       5.729   6.254  17.638  0.00  0.00    +0.000 A 
ATOM     16  S   UNL     1       6.263   7.668  16.825  0.00  0.00    +0.000 S 
BRANCH  12  18
ATOM     17  C   UNL     1       8.922   9.511  19.098  0.00  0.00    +0.000 C 
ATOM     18  C   UNL     1       8.530   9.001  17.717  0.00  0.00    +0.000 C 
ENDBRANCH  12  18
ENDBRANCH   1  15
BRANCH   3  19
ATOM     19  N   UNL     1       4.079   1.866  17.578  0.00  0.00    +0.000 N 
ATOM     20  H   UNL     1       4.911   1.449  17.982  0.00  0.00    +0.000 HD
ATOM     21  H   UNL     1       3.975   1.698  16.578  0.00  0.00    +0.000 HD
ENDBRANCH   3  19
BRANCH   4  22
ATOM     22  N   UNL     1       2.646   2.534  19.757  0.00  0.00    +0.000 NA
ATOM     23  C   UNL     1       3.241   2.566  21.089  0.00  0.00    +0.000 C 
ATOM     24  C   UNL     1       1.231   2.213  19.750  0.00  0.00    +0.000 C 
ENDBRANCH   4  22
BRANCH   2  25
ATOM     25  C   UNL     1       5.399   3.788  15.884  0.00  0.00    +0.000 C 
ATOM     26  N   UNL     1       6.159   3.480  14.925  0.00  0.00    +0.000 NA
ENDBRANCH   2  25
TORSDOF 5
ENDMDL
MODEL 2
REMARK VINA RESULT:      -5.8      1.192      1.416
REMARK  Name = 
REMARK  8 active torsions:
REMARK  status: ('A' for Active; 'I' for Inactive)
REMARK    1  A    between atoms: C_1  and  C_2
REMARK    2  A    between atoms: C_2  and  C_3
REMARK    3  A    between atoms: C_6  and  C_7
REMARK    4  A    between atoms: C_8  and  C_9
REMARK    5  A    between atoms: C_11  and  N_12
REMARK    6  A    between atoms: N_13  and  N_14
REMARK    7  A    between atoms: N_14  and  C_15
REMARK    8  A    between atoms: N_14  and  C_16
REMARK                            x       y       z     vdW  Elec       q    Type
REMARK                         _______ _______ _______ _____ _____    ______ ____
ROOT
ATOM      1  C   UNL     1       5.112   6.271  16.732  0.00  0.00    +0.000 C 
ATOM      2  C   UNL     1       5.461   4.949  16.075  0.00  0.00    +0.000 C 
ATOM      3  C   UNL     1       4.987   3.765  16.528  0.00  0.00    +0.000 C 
ATOM      4  N   UNL     1       4.086   3.732  17.641  0.00  0.00    +0.000 N 
ATOM      5  C   UNL     1       3.591   4.935  18.225  0.00  0.00    +0.000 C 
ATOM      6  C   UNL     1       3.997   6.132  17.742  0.00  0.00    +0.000 C 
ATOM      7  C   UNL     1       3.341   7.415  18.144  0.00  0.00    +0.000 C 
ATOM      8  O   UNL     1       3.640   8.472  17.591  0.00  0.00    +0.000 OA
ATOM      9  C   UNL     1       2.216   7.362  19.140  0.00  0.00    +0.000 C 
ATOM     10  C   UNL     1       2.457   6.235  20.119  0.00  0.00    +0.000 C 
ATOM     11  C   UNL     1       2.616   4.903  19.386  0.00  0.00    +0.000 C 
ENDROOT
BRANCH   1  15
ATOM     12  C   UNL     1       8.032   8.607  18.014  0.00  0.00    +0.000 A 
ATOM     13  C   UNL     1       8.206   7.397  18.651  0.00  0.00    +0.000 A 
ATOM     14  C   UNL     1       7.236   6.435  18.251  0.00  0.00    +0.000 A 
ATOM     15  C   UNL     1       6.353   6.941  17.319  0.00  0.00    +0.000 A 
ATOM     16  S   UNL     1       6.777   8.539  16.860  0.00  0.00    +0.000 S 
BRANCH  12  18
ATOM     17  C   UNL     1       9.213  10.011  19.695  0.00  0.00    +0.000 C 
ATOM     18  C   UNL     1       8.771   9.889  18.242  0.00  0.00    +0.000 C 
ENDBRANCH  12  18
ENDBRANCH   1  15
BRANCH   3  19
ATOM     19  N   UNL     1       5.379   2.566  15.940  0.00  0.00    +0.000 N 
ATOM     20  H   UNL     1       6.060   2.021  16.456  0.00  0.00    +0.000 HD
ATOM     21  H   UNL     1       5.642   2.748  14.972  0.00  0.00    +0.000 HD
ENDBRANCH   3  19
BRANCH   4  22
ATOM     22  N   UNL     1       3.772   2.405  18.094  0.00  0.00    +0.000 NA
ATOM     23  C   UNL     1       4.276   2.151  19.440  0.00  0.00    +0.000 C 
ATOM     24  C   UNL     1       2.430   1.906  17.862  0.00  0.00    +0.000 C 
ENDBRANCH   4  22
BRANCH   2  25
ATOM     25  C   UNL     1       6.468   5.042  14.942  0.00  0.00    +0.000 C 
ATOM     26  N   UNL     1       7.303   5.118  14.000  0.00  0.00    +0.000 NA
ENDBRANCH   2  25
TORSDOF 5
ENDMDL
MODEL 3
REMARK VINA RESULT:      -5.8     10.595     13.273
REMARK  Name = 
REMARK  8 active torsions:
REMARK  status: ('A' for Active; 'I' for Inactive)
REMARK    1  A    between atoms: C_1  and  C_2
REMARK    2  A    between atoms: C_2  and  C_3
REMARK    3  A    between atoms: C_6  and  C_7
REMARK    4  A    between atoms: C_8  and  C_9
REMARK    5  A    between atoms: C_11  and  N_12
REMARK    6  A    between atoms: N_13  and  N_14
REMARK    7  A    between atoms: N_14  and  C_15
REMARK    8  A    between atoms: N_14  and  C_16
REMARK                            x       y       z     vdW  Elec       q    Type
REMARK                         _______ _______ _______ _____ _____    ______ ____
ROOT
ATOM      1  C   UNL     1      -6.577  12.436  18.756  0.00  0.00    +0.000 C 
ATOM      2  C   UNL     1      -6.926  11.643  20.000  0.00  0.00    +0.000 C 
ATOM      3  C   UNL     1      -7.030  12.216  21.223  0.00  0.00    +0.000 C 
ATOM      4  N   UNL     1      -6.850  13.630  21.369  0.00  0.00    +0.000 N 
ATOM      5  C   UNL     1      -6.664  14.470  20.233  0.00  0.00    +0.000 C 
ATOM      6  C   UNL     1      -6.627  13.927  18.993  0.00  0.00    +0.000 C 
ATOM      7  C   UNL     1      -6.676  14.766  17.756  0.00  0.00    +0.000 C 
ATOM      8  O   UNL     1      -6.776  14.243  16.647  0.00  0.00    +0.000 OA
ATOM      9  C   UNL     1      -6.736  16.260  17.907  0.00  0.00    +0.000 C 
ATOM     10  C   UNL     1      -5.964  16.679  19.138  0.00  0.00    +0.000 C 
ATOM     11  C   UNL     1      -6.500  15.971  20.382  0.00  0.00    +0.000 C 
ENDROOT
BRANCH   1  15
ATOM     12  C   UNL     1      -2.890  11.286  17.907  0.00  0.00    +0.000 A 
ATOM     13  C   UNL     1      -3.646  10.996  16.791  0.00  0.00    +0.000 A 
ATOM     14  C   UNL     1      -5.004  11.396  16.943  0.00  0.00    +0.000 A 
ATOM     15  C   UNL     1      -5.242  11.982  18.169  0.00  0.00    +0.000 A 
ATOM     16  S   UNL     1      -3.795  12.137  19.078  0.00  0.00    +0.000 S 
BRANCH  12  18
ATOM     17  C   UNL     1      -1.160  10.995  19.670  0.00  0.00    +0.000 C 
ATOM     18  C   UNL     1      -1.462  10.927  18.178  0.00  0.00    +0.000 C 
ENDBRANCH  12  18
ENDBRANCH   1  15
BRANCH   3  19
ATOM     19  N   UNL     1      -7.290  11.447  22.352  0.00  0.00    +0.000 N 
ATOM     20  H   UNL     1      -8.228  11.519  22.732  0.00  0.00    +0.000 HD
ATOM     21  H   UNL     1      -6.553  11.613  23.036  0.00  0.00    +0.000 HD
ENDBRANCH   3  19
BRANCH   4  22
ATOM     22  N   UNL     1      -6.856  14.076  22.734  0.00  0.00    +0.000 NA
ATOM     23  C   UNL     1      -5.527  14.474  23.187  0.00  0.00    +0.000 C 
ATOM     24  C   UNL     1      -7.915  14.976  23.152  0.00  0.00    +0.000 C 
ENDBRANCH   4  22
BRANCH   2  25
ATOM     25  C   UNL     1      -7.043  10.143  19.794  0.00  0.00    +0.000 C 
ATOM     26  N   UNL     1      -7.140   8.897  19.621  0.00  0.00    +0.000 NA
ENDBRANCH   2  25
TORSDOF 5
ENDMDL
MODEL 4
REMARK VINA RESULT:      -5.6      8.785     10.440
REMARK  Name = 
REMARK  8 active torsions:
REMARK  status: ('A' for Active; 'I' for Inactive)
REMARK    1  A    between atoms: C_1  and  C_2
REMARK    2  A    between atoms: C_2  and  C_3
REMARK    3  A    between atoms: C_6  and  C_7
REMARK    4  A    between atoms: C_8  and  C_9
REMARK    5  A    between atoms: C_11  and  N_12
REMARK    6  A    between atoms: N_13  and  N_14
REMARK    7  A    between atoms: N_14  and  C_15
REMARK    8  A    between atoms: N_14  and  C_16
REMARK                            x       y       z     vdW  Elec       q    Type
REMARK                         _______ _______ _______ _____ _____    ______ ____
ROOT
ATOM      1  C   UNL     1      -1.667  11.739  19.807  0.00  0.00    +0.000 C 
ATOM      2  C   UNL     1      -2.492  12.270  20.963  0.00  0.00    +0.000 C 
ATOM      3  C   UNL     1      -3.810  12.556  20.845  0.00  0.00    +0.000 C 
ATOM      4  N   UNL     1      -4.486  12.318  19.604  0.00  0.00    +0.000 N 
ATOM      5  C   UNL     1      -3.822  11.685  18.513  0.00  0.00    +0.000 C 
ATOM      6  C   UNL     1      -2.523  11.326  18.634  0.00  0.00    +0.000 C 
ATOM      7  C   UNL     1      -1.844  10.452  17.627  0.00  0.00    +0.000 C 
ATOM      8  O   UNL     1      -0.705  10.033  17.828  0.00  0.00    +0.000 OA
ATOM      9  C   UNL     1      -2.631   9.990  16.433  0.00  0.00    +0.000 C 
ATOM     10  C   UNL     1      -3.626  11.057  16.036  0.00  0.00    +0.000 C 
ATOM     11  C   UNL     1      -4.544  11.406  17.208  0.00  0.00    +0.000 C 
ENDROOT
BRANCH   1  15
ATOM     12  C   UNL     1       1.600  13.728  18.803  0.00  0.00    +0.000 A 
ATOM     13  C   UNL     1       0.542  14.561  18.509  0.00  0.00    +0.000 A 
ATOM     14  C   UNL     1      -0.711  13.982  18.859  0.00  0.00    +0.000 A 
ATOM     15  C   UNL     1      -0.570  12.726  19.412  0.00  0.00    +0.000 A 
ATOM     16  S   UNL     1       1.084  12.309  19.600  0.00  0.00    +0.000 S 
BRANCH  12  18
ATOM     17  C   UNL     1       3.275  15.250  17.772  0.00  0.00    +0.000 C 
ATOM     18  C   UNL     1       3.051  13.926  18.490  0.00  0.00    +0.000 C 
ENDBRANCH  12  18
ENDBRANCH   1  15
BRANCH   3  19
ATOM     19  N   UNL     1      -4.521  13.102  21.908  0.00  0.00    +0.000 N 
ATOM     20  H   UNL     1      -5.529  13.126  21.802  0.00  0.00    +0.000 HD
ATOM     21  H   UNL     1      -4.108  14.002  22.149  0.00  0.00    +0.000 HD
ENDBRANCH   3  19
BRANCH   4  22
ATOM     22  N   UNL     1      -5.842  12.791  19.584  0.00  0.00    +0.000 NA
ATOM     23  C   UNL     1      -6.010  13.939  18.700  0.00  0.00    +0.000 C 
ATOM     24  C   UNL     1      -6.905  11.808  19.482  0.00  0.00    +0.000 C 
ENDBRANCH   4  22
BRANCH   2  25
ATOM     25  C   UNL     1      -1.708  12.562  22.231  0.00  0.00    +0.000 C 
ATOM     26  N   UNL     1      -1.056  12.803  23.283  0.00  0.00    +0.000 NA
ENDBRANCH   2  25
TORSDOF 5
ENDMDL
MODEL 5
REMARK VINA RESULT:      -5.6      6.447      9.022
REMARK  Name = 
REMARK  8 active torsions:
REMARK  status: ('A' for Active; 'I' for Inactive)
REMARK    1  A    between atoms: C_1  and  C_2
REMARK    2  A    between atoms: C_2  and  C_3
REMARK    3  A    between atoms: C_6  and  C_7
REMARK    4  A    between atoms: C_8  and  C_9
REMARK    5  A    between atoms: C_11  and  N_12
REMARK    6  A    between atoms: N_13  and  N_14
REMARK    7  A    between atoms: N_14  and  C_15
REMARK    8  A    between atoms: N_14  and  C_16
REMARK                            x       y       z     vdW  Elec       q    Type
REMARK                         _______ _______ _______ _____ _____    ______ ____
ROOT
ATOM      1  C   UNL     1       0.130  11.593  18.641  0.00  0.00    +0.000 C 
ATOM      2  C   UNL     1      -1.385  11.639  18.680  0.00  0.00    +0.000 C 
ATOM      3  C   UNL     1      -2.067  12.490  19.482  0.00  0.00    +0.000 C 
ATOM      4  N   UNL     1      -1.357  13.424  20.304  0.00  0.00    +0.000 N 
ATOM      5  C   UNL     1       0.061  13.549  20.222  0.00  0.00    +0.000 C 
ATOM      6  C   UNL     1       0.757  12.756  19.374  0.00  0.00    +0.000 C 
ATOM      7  C   UNL     1       2.201  12.998  19.065  0.00  0.00    +0.000 C 
ATOM      8  O   UNL     1       2.773  12.346  18.192  0.00  0.00    +0.000 OA
ATOM      9  C   UNL     1       2.897  14.142  19.747  0.00  0.00    +0.000 C 
ATOM     10  C   UNL     1       2.324  14.331  21.134  0.00  0.00    +0.000 C 
ATOM     11  C   UNL     1       0.813  14.556  21.072  0.00  0.00    +0.000 C 
ENDROOT
BRANCH   1  15
ATOM     12  C   UNL     1       1.878   8.110  19.307  0.00  0.00    +0.000 A 
ATOM     13  C   UNL     1       1.303   8.482  20.504  0.00  0.00    +0.000 A 
ATOM     14  C   UNL     1       0.599   9.715  20.401  0.00  0.00    +0.000 A 
ATOM     15  C   UNL     1       0.655  10.243  19.128  0.00  0.00    +0.000 A 
ATOM     16  S   UNL     1       1.469   9.187  18.048  0.00  0.00    +0.000 S 
BRANCH  12  18
ATOM     17  C   UNL     1       3.503   7.122  17.704  0.00  0.00    +0.000 C 
ATOM     18  C   UNL     1       2.781   6.948  19.035  0.00  0.00    +0.000 C 
ENDBRANCH  12  18
ENDBRANCH   1  15
BRANCH   3  19
ATOM     19  N   UNL     1      -3.457  12.460  19.539  0.00  0.00    +0.000 N 
ATOM     20  H   UNL     1      -3.940  13.075  18.893  0.00  0.00    +0.000 HD
ATOM     21  H   UNL     1      -3.746  12.569  20.510  0.00  0.00    +0.000 HD
ENDBRANCH   3  19
BRANCH   4  22
ATOM     22  N   UNL     1      -2.200  14.168  21.198  0.00  0.00    +0.000 NA
ATOM     23  C   UNL     1      -2.011  13.772  22.589  0.00  0.00    +0.000 C 
ATOM     24  C   UNL     1      -2.303  15.602  21.001  0.00  0.00    +0.000 C 
ENDBRANCH   4  22
BRANCH   2  25
ATOM     25  C   UNL     1      -2.081  10.585  17.836  0.00  0.00    +0.000 C 
ATOM     26  N   UNL     1      -2.660   9.711  17.135  0.00  0.00    +0.000 NA
ENDBRANCH   2  25
TORSDOF 5
ENDMDL
MODEL 6
REMARK VINA RESULT:      -5.5      6.331      8.912
REMARK  Name = 
REMARK  8 active torsions:
REMARK  status: ('A' for Active; 'I' for Inactive)
REMARK    1  A    between atoms: C_1  and  C_2
REMARK    2  A    between atoms: C_2  and  C_3
REMARK    3  A    between atoms: C_6  and  C_7
REMARK    4  A    between atoms: C_8  and  C_9
REMARK    5  A    between atoms: C_11  and  N_12
REMARK    6  A    between atoms: N_13  and  N_14
REMARK    7  A    between atoms: N_14  and  C_15
REMARK    8  A    between atoms: N_14  and  C_16
REMARK                            x       y       z     vdW  Elec       q    Type
REMARK                         _______ _______ _______ _____ _____    ______ ____
ROOT
ATOM      1  C   UNL     1       0.428  11.680  18.578  0.00  0.00    +0.000 C 
ATOM      2  C   UNL     1      -1.075  11.621  18.768  0.00  0.00    +0.000 C 
ATOM      3  C   UNL     1      -1.715  12.319  19.735  0.00  0.00    +0.000 C 
ATOM      4  N   UNL     1      -0.973  13.188  20.600  0.00  0.00    +0.000 N 
ATOM      5  C   UNL     1       0.419  13.415  20.399  0.00  0.00    +0.000 C 
ATOM      6  C   UNL     1       1.065  12.781  19.393  0.00  0.00    +0.000 C 
ATOM      7  C   UNL     1       2.454  13.153  18.981  0.00  0.00    +0.000 C 
ATOM      8  O   UNL     1       2.967  12.653  17.980  0.00  0.00    +0.000 OA
ATOM      9  C   UNL     1       3.156  14.246  19.737  0.00  0.00    +0.000 C 
ATOM     10  C   UNL     1       2.721  14.224  21.185  0.00  0.00    +0.000 C 
ATOM     11  C   UNL     1       1.202  14.355  21.297  0.00  0.00    +0.000 C 
ENDROOT
BRANCH   1  15
ATOM     12  C   UNL     1       1.673   8.134  19.810  0.00  0.00    +0.000 A 
ATOM     13  C   UNL     1       2.104   8.258  18.506  0.00  0.00    +0.000 A 
ATOM     14  C   UNL     1       1.755   9.517  17.942  0.00  0.00    +0.000 A 
ATOM     15  C   UNL     1       1.070  10.317  18.833  0.00  0.00    +0.000 A 
ATOM     16  S   UNL     1       0.953   9.575  20.375  0.00  0.00    +0.000 S 
BRANCH  12  18
ATOM     17  C   UNL     1       2.139   5.693  19.910  0.00  0.00    +0.000 C 
ATOM     18  C   UNL     1       1.747   6.934  20.702  0.00  0.00    +0.000 C 
ENDBRANCH  12  18
ENDBRANCH   1  15
BRANCH   3  19
ATOM     19  N   UNL     1      -3.088  12.192  19.920  0.00  0.00    +0.000 N 
ATOM     20  H   UNL     1      -3.391  11.997  20.867  0.00  0.00    +0.000 HD
ATOM     21  H   UNL     1      -3.451  11.540  19.226  0.00  0.00    +0.000 HD
ENDBRANCH   3  19
BRANCH   4  22
ATOM     22  N   UNL     1      -1.758  13.758  21.659  0.00  0.00    +0.000 NA
ATOM     23  C   UNL     1      -1.387  13.225  22.966  0.00  0.00    +0.000 C 
ATOM     24  C   UNL     1      -1.978  15.192  21.648  0.00  0.00    +0.000 C 
ENDBRANCH   4  22
BRANCH   2  25
ATOM     25  C   UNL     1      -1.798  10.637  17.864  0.00  0.00    +0.000 C 
ATOM     26  N   UNL     1      -2.398   9.821  17.112  0.00  0.00    +0.000 NA
ENDBRANCH   2  25
TORSDOF 5
ENDMDL
MODEL 7
REMARK VINA RESULT:      -5.5      8.949     11.562
REMARK  Name = 
REMARK  8 active torsions:
REMARK  status: ('A' for Active; 'I' for Inactive)
REMARK    1  A    between atoms: C_1  and  C_2
REMARK    2  A    between atoms: C_2  and  C_3
REMARK    3  A    between atoms: C_6  and  C_7
REMARK    4  A    between atoms: C_8  and  C_9
REMARK    5  A    between atoms: C_11  and  N_12
REMARK    6  A    between atoms: N_13  and  N_14
REMARK    7  A    between atoms: N_14  and  C_15
REMARK    8  A    between atoms: N_14  and  C_16
REMARK                            x       y       z     vdW  Elec       q    Type
REMARK                         _______ _______ _______ _____ _____    ______ ____
ROOT
ATOM      1  C   UNL     1      -1.912  13.177  21.581  0.00  0.00    +0.000 C 
ATOM      2  C   UNL     1      -3.141  12.949  20.724  0.00  0.00    +0.000 C 
ATOM      3  C   UNL     1      -4.382  13.320  21.118  0.00  0.00    +0.000 C 
ATOM      4  N   UNL     1      -4.565  13.994  22.369  0.00  0.00    +0.000 N 
ATOM      5  C   UNL     1      -3.449  14.379  23.169  0.00  0.00    +0.000 C 
ATOM      6  C   UNL     1      -2.194  14.080  22.759  0.00  0.00    +0.000 C 
ATOM      7  C   UNL     1      -0.984  14.658  23.421  0.00  0.00    +0.000 C 
ATOM      8  O   UNL     1       0.137  14.477  22.947  0.00  0.00    +0.000 OA
ATOM      9  C   UNL     1      -1.179  15.574  24.597  0.00  0.00    +0.000 C 
ATOM     10  C   UNL     1      -2.401  15.145  25.378  0.00  0.00    +0.000 C 
ATOM     11  C   UNL     1      -3.638  15.117  24.481  0.00  0.00    +0.000 C 
ENDROOT
BRANCH   1  15
ATOM     12  C   UNL     1       0.257   9.933  22.218  0.00  0.00    +0.000 A 
ATOM     13  C   UNL     1      -0.674   9.974  23.233  0.00  0.00    +0.000 A 
ATOM     14  C   UNL     1      -1.558  11.083  23.109  0.00  0.00    +0.000 A 
ATOM     15  C   UNL     1      -1.276  11.852  21.999  0.00  0.00    +0.000 A 
ATOM     16  S   UNL     1      -0.013  11.162  21.064  0.00  0.00    +0.000 S 
BRANCH  12  18
ATOM     17  C   UNL     1       1.372   8.313  20.695  0.00  0.00    +0.000 C 
ATOM     18  C   UNL     1       1.413   8.995  22.056  0.00  0.00    +0.000 C 
ENDBRANCH  12  18
ENDBRANCH   1  15
BRANCH   3  19
ATOM     19  N   UNL     1      -5.496  13.037  20.334  0.00  0.00    +0.000 N 
ATOM     20  H   UNL     1      -6.302  12.667  20.825  0.00  0.00    +0.000 HD
ATOM     21  H   UNL     1      -5.200  12.473  19.539  0.00  0.00    +0.000 HD
ENDBRANCH   3  19
BRANCH   4  22
ATOM     22  N   UNL     1      -5.942  14.207  22.717  0.00  0.00    +0.000 NA
ATOM     23  C   UNL     1      -6.369  13.349  23.818  0.00  0.00    +0.000 C 
ATOM     24  C   UNL     1      -6.416  15.574  22.817  0.00  0.00    +0.000 C 
ENDBRANCH   4  22
BRANCH   2  25
ATOM     25  C   UNL     1      -2.894  12.175  19.441  0.00  0.00    +0.000 C 
ATOM     26  N   UNL     1      -2.689  11.531  18.376  0.00  0.00    +0.000 NA
ENDBRANCH   2  25
TORSDOF 5
ENDMDL
MODEL 8
REMARK VINA RESULT:      -5.5      6.965      9.875
REMARK  Name = 
REMARK  8 active torsions:
REMARK  status: ('A' for Active; 'I' for Inactive)
REMARK    1  A    between atoms: C_1  and  C_2
REMARK    2  A    between atoms: C_2  and  C_3
REMARK    3  A    between atoms: C_6  and  C_7
REMARK    4  A    between atoms: C_8  and  C_9
REMARK    5  A    between atoms: C_11  and  N_12
REMARK    6  A    between atoms: N_13  and  N_14
REMARK    7  A    between atoms: N_14  and  C_15
REMARK    8  A    between atoms: N_14  and  C_16
REMARK                            x       y       z     vdW  Elec       q    Type
REMARK                         _______ _______ _______ _____ _____    ______ ____
ROOT
ATOM      1  C   UNL     1       0.369  11.345  19.789  0.00  0.00    +0.000 C 
ATOM      2  C   UNL     1       1.570  11.545  18.885  0.00  0.00    +0.000 C 
ATOM      3  C   UNL     1       2.195  12.739  18.759  0.00  0.00    +0.000 C 
ATOM      4  N   UNL     1       1.753  13.864  19.529  0.00  0.00    +0.000 N 
ATOM      5  C   UNL     1       0.727  13.728  20.509  0.00  0.00    +0.000 C 
ATOM      6  C   UNL     1       0.136  12.526  20.702  0.00  0.00    +0.000 C 
ATOM      7  C   UNL     1      -0.766  12.262  21.866  0.00  0.00    +0.000 C 
ATOM      8  O   UNL     1      -1.182  11.126  22.091  0.00  0.00    +0.000 OA
ATOM      9  C   UNL     1      -1.042  13.384  22.827  0.00  0.00    +0.000 C 
ATOM     10  C   UNL     1      -1.046  14.701  22.083  0.00  0.00    +0.000 C 
ATOM     11  C   UNL     1       0.276  14.912  21.345  0.00  0.00    +0.000 C 
ENDROOT
BRANCH   1  15
ATOM     12  C   UNL     1      -2.699  10.971  17.323  0.00  0.00    +0.000 A 
ATOM     13  C   UNL     1      -2.575   9.757  17.964  0.00  0.00    +0.000 A 
ATOM     14  C   UNL     1      -1.521   9.758  18.920  0.00  0.00    +0.000 A 
ATOM     15  C   UNL     1      -0.875  10.975  18.982  0.00  0.00    +0.000 A 
ATOM     16  S   UNL     1      -1.622  12.132  17.959  0.00  0.00    +0.000 S 
BRANCH  12  18
ATOM     17  C   UNL     1      -3.332  10.455  14.974  0.00  0.00    +0.000 C 
ATOM     18  C   UNL     1      -3.606  11.332  16.188  0.00  0.00    +0.000 C 
ENDBRANCH  12  18
ENDBRANCH   1  15
BRANCH   3  19
ATOM     19  N   UNL     1       3.254  12.901  17.872  0.00  0.00    +0.000 N 
ATOM     20  H   UNL     1       3.602  13.847  17.764  0.00  0.00    +0.000 HD
ATOM     21  H   UNL     1       3.016  12.444  16.993  0.00  0.00    +0.000 HD
ENDBRANCH   3  19
BRANCH   4  22
ATOM     22  N   UNL     1       2.419  15.092  19.194  0.00  0.00    +0.000 NA
ATOM     23  C   UNL     1       1.516  16.054  18.572  0.00  0.00    +0.000 C 
ATOM     24  C   UNL     1       3.311  15.673  20.180  0.00  0.00    +0.000 C 
ENDBRANCH   4  22
BRANCH   2  25
ATOM     25  C   UNL     1       1.952  10.335  18.049  0.00  0.00    +0.000 C 
ATOM     26  N   UNL     1       2.269   9.331  17.356  0.00  0.00    +0.000 NA
ENDBRANCH   2  25
TORSDOF 5
ENDMDL
MODEL 9
REMARK VINA RESULT:      -5.4      6.844      9.354
REMARK  Name = 
REMARK  8 active torsions:
REMARK  status: ('A' for Active; 'I' for Inactive)
REMARK    1  A    between atoms: C_1  and  C_2
REMARK    2  A    between atoms: C_2  and  C_3
REMARK    3  A    between atoms: C_6  and  C_7
REMARK    4  A    between atoms: C_8  and  C_9
REMARK    5  A    between atoms: C_11  and  N_12
REMARK    6  A    between atoms: N_13  and  N_14
REMARK    7  A    between atoms: N_14  and  C_15
REMARK    8  A    between atoms: N_14  and  C_16
REMARK                            x       y       z     vdW  Elec       q    Type
REMARK                         _______ _______ _______ _____ _____    ______ ____
ROOT
ATOM      1  C   UNL     1      -0.672  11.767  18.920  0.00  0.00    +0.000 C 
ATOM      2  C   UNL     1      -2.105  11.538  18.485  0.00  0.00    +0.000 C 
ATOM      3  C   UNL     1      -3.159  12.092  19.130  0.00  0.00    +0.000 C 
ATOM      4  N   UNL     1      -2.938  12.967  20.243  0.00  0.00    +0.000 N 
ATOM      5  C   UNL     1      -1.621  13.352  20.627  0.00  0.00    +0.000 C 
ATOM      6  C   UNL     1      -0.554  12.865  19.951  0.00  0.00    +0.000 C 
ATOM      7  C   UNL     1       0.825  13.410  20.146  0.00  0.00    +0.000 C 
ATOM      8  O   UNL     1       1.752  13.042  19.425  0.00  0.00    +0.000 OA
ATOM      9  C   UNL     1       1.025  14.512  21.149  0.00  0.00    +0.000 C 
ATOM     10  C   UNL     1       0.056  14.337  22.296  0.00  0.00    +0.000 C 
ATOM     11  C   UNL     1      -1.385  14.299  21.789  0.00  0.00    +0.000 C 
ENDROOT
BRANCH   1  15
ATOM     12  C   UNL     1       1.457   8.495  19.551  0.00  0.00    +0.000 A 
ATOM     13  C   UNL     1       0.734   8.707  20.705  0.00  0.00    +0.000 A 
ATOM     14  C   UNL     1      -0.116   9.845  20.606  0.00  0.00    +0.000 A 
ATOM     15  C   UNL     1      -0.018  10.464  19.377  0.00  0.00    +0.000 A 
ATOM     16  S   UNL     1       1.022   9.597  18.322  0.00  0.00    +0.000 S 
BRANCH  12  18
ATOM     17  C   UNL     1       3.027   7.560  17.864  0.00  0.00    +0.000 C 
ATOM     18  C   UNL     1       2.527   7.479  19.301  0.00  0.00    +0.000 C 
ENDBRANCH  12  18
ENDBRANCH   1  15
BRANCH   3  19
ATOM     19  N   UNL     1      -4.464  11.809  18.741  0.00  0.00    +0.000 N 
ATOM     20  H   UNL     1      -5.152  12.529  18.936  0.00  0.00    +0.000 HD
ATOM     21  H   UNL     1      -4.718  10.887  19.095  0.00  0.00    +0.000 HD
ENDBRANCH   3  19
BRANCH   4  22
ATOM     22  N   UNL     1      -4.145  13.372  20.909  0.00  0.00    +0.000 NA
ATOM     23  C   UNL     1      -4.267  12.775  22.235  0.00  0.00    +0.000 C 
ATOM     24  C   UNL     1      -4.513  14.774  20.857  0.00  0.00    +0.000 C 
ENDBRANCH   4  22
BRANCH   2  25
ATOM     25  C   UNL     1      -2.279  10.554  17.341  0.00  0.00    +0.000 C 
ATOM     26  N   UNL     1      -2.425   9.737  16.391  0.00  0.00    +0.000 NA
ENDBRANCH   2  25
TORSDOF 5
ENDMDL
