MODEL 1
REMARK VINA RESULT:      -9.0      0.000      0.000
REMARK  Name = 
REMARK  5 active torsions:
REMARK  status: ('A' for Active; 'I' for Inactive)
REMARK    1  A    between atoms: N_1  and  C_2
REMARK    2  A    between atoms: C_2  and  C_3
REMARK    3  A    between atoms: C_3  and  N_4
REMARK    4  A    between atoms: N_4  and  C_5
REMARK    5  A    between atoms: C_7  and  N_8
REMARK                            x       y       z     vdW  Elec       q    Type
REMARK                         _______ _______ _______ _____ _____    ______ ____
ROOT
ATOM      1  C   UNL     1       1.189   9.674  19.083  0.00  0.00    +0.000 A 
ATOM      2  C   UNL     1       1.881   8.491  18.789  0.00  0.00    +0.000 A 
ATOM      3  C   UNL     1       1.948   7.443  19.707  0.00  0.00    +0.000 A 
ATOM      4  N   UNL     1       1.413   7.563  20.930  0.00  0.00    +0.000 NA
ATOM      5  C   UNL     1       0.798   8.701  21.269  0.00  0.00    +0.000 A 
ATOM      6  C   UNL     1       0.286   8.780  22.560  0.00  0.00    +0.000 A 
ATOM      7  C   UNL     1      -0.405   9.902  23.013  0.00  0.00    +0.000 A 
ATOM      8  C   UNL     1      -0.590  10.975  22.154  0.00  0.00    +0.000 A 
ATOM      9 CL   UNL     1      -1.474  12.350  22.687  0.00  0.00    +0.000 Cl
ATOM     10  C   UNL     1      -0.072  10.934  20.861  0.00  0.00    +0.000 A 
ATOM     11  C   UNL     1       0.639   9.800  20.390  0.00  0.00    +0.000 A 
ENDROOT
BRANCH   3  12
ATOM     12  N   UNL     1       2.519   6.225  19.299  0.00  0.00    +0.000 N 
ATOM     13  C   UNL     1       1.905   5.037  19.908  0.00  0.00    +0.000 C 
ATOM     14  C   UNL     1       1.875   3.893  18.916  0.00  0.00    +0.000 C 
ATOM     15  S   UNL     1       3.472   3.203  18.618  0.00  0.00    +0.000 S 
ATOM     16  O   UNL     1       3.261   1.990  17.844  0.00  0.00    +0.000 OA
ATOM     17  O   UNL     1       4.226   3.145  19.855  0.00  0.00    +0.000 OA
ATOM     18  C   UNL     1       4.277   4.380  17.550  0.00  0.00    +0.000 A 
ATOM     19  C   UNL     1       4.680   3.950  16.278  0.00  0.00    +0.000 A 
ATOM     20  C   UNL     1       5.274   4.848  15.395  0.00  0.00    +0.000 A 
ATOM     21  C   UNL     1       5.481   6.169  15.784  0.00  0.00    +0.000 A 
ATOM     22  C   UNL     1       5.085   6.597  17.054  0.00  0.00    +0.000 A 
ATOM     23  C   UNL     1       4.468   5.713  17.957  0.00  0.00    +0.000 A 
ATOM     24  C   UNL     1       3.988   6.242  19.292  0.00  0.00    +0.000 C 
ENDBRANCH   3  12
BRANCH   1  25
ATOM     25  N   UNL     1       1.164  10.743  18.160  0.00  0.00    +0.000 N 
ATOM     26  H   UNL     1       0.881  10.470  17.221  0.00  0.00    +0.000 HD
BRANCH  25  27
ATOM     27  C   UNL     1       2.318  11.654  18.096  0.00  0.00    +0.000 C 
BRANCH  27  28
ATOM     28  C   UNL     1       1.962  13.057  18.588  0.00  0.00    +0.000 C 
ATOM     29  C   UNL     1       2.899  14.190  18.119  0.00  0.00    +0.000 C 
ATOM     30  O   UNL     1       3.576  14.189  19.407  0.00  0.00    +0.000 OA
ATOM     31  C   UNL     1       2.461  13.452  19.992  0.00  0.00    +0.000 C 
BRANCH  28  32
ATOM     32  N   UNL     1       0.546  13.450  18.409  0.00  0.00    +0.000 NA
ATOM     33  H   UNL     1      -0.119  12.792  18.817  0.00  0.00    +0.000 HD
ATOM     34  H   UNL     1       0.261  13.551  17.432  0.00  0.00    +0.000 HD
ENDBRANCH  28  32
ENDBRANCH  27  28
ENDBRANCH  25  27
ENDBRANCH   1  25
TORSDOF 5
ENDMDL
MODEL 2
REMARK VINA RESULT:      -8.9      2.247      2.657
REMARK  Name = 
REMARK  5 active torsions:
REMARK  status: ('A' for Active; 'I' for Inactive)
REMARK    1  A    between atoms: N_1  and  C_2
REMARK    2  A    between atoms: C_2  and  C_3
REMARK    3  A    between atoms: C_3  and  N_4
REMARK    4  A    between atoms: N_4  and  C_5
REMARK    5  A    between atoms: C_7  and  N_8
REMARK                            x       y       z     vdW  Elec       q    Type
REMARK                         _______ _______ _______ _____ _____    ______ ____
ROOT
ATOM      1  C   UNL     1       0.651   9.310  18.869  0.00  0.00    +0.000 A 
ATOM      2  C   UNL     1       1.477   8.224  18.550  0.00  0.00    +0.000 A 
ATOM      3  C   UNL     1       1.977   7.378  19.539  0.00  0.00    +0.000 A 
ATOM      4  N   UNL     1       1.741   7.619  20.836  0.00  0.00    +0.000 NA
ATOM      5  C   UNL     1       1.007   8.682  21.183  0.00  0.00    +0.000 A 
ATOM      6  C   UNL     1       0.816   8.899  22.543  0.00  0.00    +0.000 A 
ATOM      7  C   UNL     1       0.042   9.955  23.022  0.00  0.00    +0.000 A 
ATOM      8  C   UNL     1      -0.560  10.816  22.118  0.00  0.00    +0.000 A 
ATOM      9 CL   UNL     1      -1.550  12.099  22.692  0.00  0.00    +0.000 Cl
ATOM     10  C   UNL     1      -0.373  10.636  20.748  0.00  0.00    +0.000 A 
ATOM     11  C   UNL     1       0.419   9.570  20.249  0.00  0.00    +0.000 A 
ENDROOT
BRANCH   3  12
ATOM     12  N   UNL     1       2.668   6.218  19.148  0.00  0.00    +0.000 N 
ATOM     13  C   UNL     1       2.246   4.998  19.853  0.00  0.00    +0.000 C 
ATOM     14  C   UNL     1       2.296   3.807  18.918  0.00  0.00    +0.000 C 
ATOM     15  S   UNL     1       3.945   3.301  18.541  0.00  0.00    +0.000 S 
ATOM     16  O   UNL     1       3.839   2.032  17.840  0.00  0.00    +0.000 OA
ATOM     17  O   UNL     1       4.777   3.402  19.724  0.00  0.00    +0.000 OA
ATOM     18  C   UNL     1       4.527   4.508  17.368  0.00  0.00    +0.000 A 
ATOM     19  C   UNL     1       4.899   4.062  16.092  0.00  0.00    +0.000 A 
ATOM     20  C   UNL     1       5.319   4.977  15.129  0.00  0.00    +0.000 A 
ATOM     21  C   UNL     1       5.384   6.332  15.442  0.00  0.00    +0.000 A 
ATOM     22  C   UNL     1       5.019   6.776  16.715  0.00  0.00    +0.000 A 
ATOM     23  C   UNL     1       4.576   5.875  17.699  0.00  0.00    +0.000 A 
ATOM     24  C   UNL     1       4.119   6.412  19.038  0.00  0.00    +0.000 C 
ENDBRANCH   3  12
BRANCH   1  25
ATOM     25  N   UNL     1       0.186  10.183  17.860  0.00  0.00    +0.000 N 
ATOM     26  H   UNL     1       0.285  11.169  18.090  0.00  0.00    +0.000 HD
BRANCH  25  27
ATOM     27  C   UNL     1      -1.134   9.935  17.257  0.00  0.00    +0.000 C 
BRANCH  27  28
ATOM     28  C   UNL     1      -2.009  11.187  17.269  0.00  0.00    +0.000 C 
ATOM     29  C   UNL     1      -3.177  11.181  18.278  0.00  0.00    +0.000 C 
ATOM     30  O   UNL     1      -4.115  10.847  17.217  0.00  0.00    +0.000 OA
ATOM     31  C   UNL     1      -3.136  11.262  16.220  0.00  0.00    +0.000 C 
BRANCH  28  32
ATOM     32  N   UNL     1      -1.274  12.472  17.337  0.00  0.00    +0.000 NA
ATOM     33  H   UNL     1      -0.337  12.432  16.935  0.00  0.00    +0.000 HD
ATOM     34  H   UNL     1      -1.147  12.829  18.286  0.00  0.00    +0.000 HD
ENDBRANCH  28  32
ENDBRANCH  27  28
ENDBRANCH  25  27
ENDBRANCH   1  25
TORSDOF 5
ENDMDL
MODEL 3
REMARK VINA RESULT:      -8.8      2.780      3.754
REMARK  Name = 
REMARK  5 active torsions:
REMARK  status: ('A' for Active; 'I' for Inactive)
REMARK    1  A    between atoms: N_1  and  C_2
REMARK    2  A    between atoms: C_2  and  C_3
REMARK    3  A    between atoms: C_3  and  N_4
REMARK    4  A    between atoms: N_4  and  C_5
REMARK    5  A    between atoms: C_7  and  N_8
REMARK                            x       y       z     vdW  Elec       q    Type
REMARK                         _______ _______ _______ _____ _____    ______ ____
ROOT
ATOM      1  C   UNL     1       0.542   9.507  18.700  0.00  0.00    +0.000 A 
ATOM      2  C   UNL     1       1.484   8.554  18.287  0.00  0.00    +0.000 A 
ATOM      3  C   UNL     1       2.138   7.735  19.206  0.00  0.00    +0.000 A 
ATOM      4  N   UNL     1       1.940   7.883  20.524  0.00  0.00    +0.000 NA
ATOM      5  C   UNL     1       1.094   8.823  20.959  0.00  0.00    +0.000 A 
ATOM      6  C   UNL     1       0.947   8.950  22.336  0.00  0.00    +0.000 A 
ATOM      7  C   UNL     1       0.069   9.872  22.905  0.00  0.00    +0.000 A 
ATOM      8  C   UNL     1      -0.684  10.688  22.075  0.00  0.00    +0.000 A 
ATOM      9 CL   UNL     1      -1.800  11.803  22.760  0.00  0.00    +0.000 Cl
ATOM     10  C   UNL     1      -0.545  10.598  20.690  0.00  0.00    +0.000 A 
ATOM     11  C   UNL     1       0.350   9.669  20.101  0.00  0.00    +0.000 A 
ENDROOT
BRANCH   3  12
ATOM     12  N   UNL     1       2.951   6.695  18.725  0.00  0.00    +0.000 N 
ATOM     13  C   UNL     1       3.918   7.110  17.697  0.00  0.00    +0.000 C 
ATOM     14  C   UNL     1       5.212   6.339  17.851  0.00  0.00    +0.000 C 
ATOM     15  S   UNL     1       5.065   4.648  17.364  0.00  0.00    +0.000 S 
ATOM     16  O   UNL     1       6.413   4.105  17.342  0.00  0.00    +0.000 OA
ATOM     17  O   UNL     1       4.228   4.544  16.185  0.00  0.00    +0.000 OA
ATOM     18  C   UNL     1       4.199   3.868  18.711  0.00  0.00    +0.000 A 
ATOM     19  C   UNL     1       4.846   2.832  19.399  0.00  0.00    +0.000 A 
ATOM     20  C   UNL     1       4.224   2.222  20.485  0.00  0.00    +0.000 A 
ATOM     21  C   UNL     1       2.952   2.633  20.876  0.00  0.00    +0.000 A 
ATOM     22  C   UNL     1       2.304   3.660  20.187  0.00  0.00    +0.000 A 
ATOM     23  C   UNL     1       2.918   4.303  19.097  0.00  0.00    +0.000 A 
ATOM     24  C   UNL     1       2.209   5.462  18.431  0.00  0.00    +0.000 C 
ENDBRANCH   3  12
BRANCH   1  25
ATOM     25  N   UNL     1      -0.082  10.358  17.760  0.00  0.00    +0.000 N 
ATOM     26  H   UNL     1      -0.045  11.343  18.009  0.00  0.00    +0.000 HD
BRANCH  25  27
ATOM     27  C   UNL     1      -1.424  10.009  17.268  0.00  0.00    +0.000 C 
BRANCH  27  28
ATOM     28  C   UNL     1      -2.307  11.246  17.102  0.00  0.00    +0.000 C 
ATOM     29  C   UNL     1      -3.629  11.239  17.898  0.00  0.00    +0.000 C 
ATOM     30  O   UNL     1      -4.369  10.866  16.703  0.00  0.00    +0.000 OA
ATOM     31  C   UNL     1      -3.240  11.278  15.876  0.00  0.00    +0.000 C 
BRANCH  28  32
ATOM     32  N   UNL     1      -1.613  12.544  17.263  0.00  0.00    +0.000 NA
ATOM     33  H   UNL     1      -1.838  13.225  16.537  0.00  0.00    +0.000 HD
ATOM     34  H   UNL     1      -0.593  12.475  17.262  0.00  0.00    +0.000 HD
ENDBRANCH  28  32
ENDBRANCH  27  28
ENDBRANCH  25  27
ENDBRANCH   1  25
TORSDOF 5
ENDMDL
MODEL 4
REMARK VINA RESULT:      -8.6      3.622      7.780
REMARK  Name = 
REMARK  5 active torsions:
REMARK  status: ('A' for Active; 'I' for Inactive)
REMARK    1  A    between atoms: N_1  and  C_2
REMARK    2  A    between atoms: C_2  and  C_3
REMARK    3  A    between atoms: C_3  and  N_4
REMARK    4  A    between atoms: N_4  and  C_5
REMARK    5  A    between atoms: C_7  and  N_8
REMARK                            x       y       z     vdW  Elec       q    Type
REMARK                         _______ _______ _______ _____ _____    ______ ____
ROOT
ATOM      1  C   UNL     1       3.236   6.463  18.359  0.00  0.00    +0.000 A 
ATOM      2  C   UNL     1       2.535   7.630  18.694  0.00  0.00    +0.000 A 
ATOM      3  C   UNL     1       1.765   7.705  19.853  0.00  0.00    +0.000 A 
ATOM      4  N   UNL     1       1.611   6.637  20.649  0.00  0.00    +0.000 NA
ATOM      5  C   UNL     1       2.214   5.488  20.329  0.00  0.00    +0.000 A 
ATOM      6  C   UNL     1       1.997   4.405  21.175  0.00  0.00    +0.000 A 
ATOM      7  C   UNL     1       2.601   3.167  20.961  0.00  0.00    +0.000 A 
ATOM      8  C   UNL     1       3.445   3.006  19.873  0.00  0.00    +0.000 A 
ATOM      9 CL   UNL     1       4.227   1.496  19.618  0.00  0.00    +0.000 Cl
ATOM     10  C   UNL     1       3.667   4.066  18.996  0.00  0.00    +0.000 A 
ATOM     11  C   UNL     1       3.053   5.329  19.199  0.00  0.00    +0.000 A 
ENDROOT
BRANCH   3  12
ATOM     12  N   UNL     1       1.215   8.946  20.218  0.00  0.00    +0.000 N 
ATOM     13  C   UNL     1       0.344   8.896  21.402  0.00  0.00    +0.000 C 
ATOM     14  C   UNL     1       0.501  10.159  22.223  0.00  0.00    +0.000 C 
ATOM     15  S   UNL     1      -0.231  11.570  21.456  0.00  0.00    +0.000 S 
ATOM     16  O   UNL     1      -0.210  12.636  22.445  0.00  0.00    +0.000 OA
ATOM     17  O   UNL     1      -1.481  11.198  20.825  0.00  0.00    +0.000 OA
ATOM     18  C   UNL     1       0.912  12.021  20.166  0.00  0.00    +0.000 A 
ATOM     19  C   UNL     1       1.501  13.292  20.221  0.00  0.00    +0.000 A 
ATOM     20  C   UNL     1       2.432  13.670  19.256  0.00  0.00    +0.000 A 
ATOM     21  C   UNL     1       2.764  12.789  18.230  0.00  0.00    +0.000 A 
ATOM     22  C   UNL     1       2.172  11.526  18.171  0.00  0.00    +0.000 A 
ATOM     23  C   UNL     1       1.242  11.114  19.142  0.00  0.00    +0.000 A 
ATOM     24  C   UNL     1       0.686   9.708  19.079  0.00  0.00    +0.000 C 
ENDBRANCH   3  12
BRANCH   1  25
ATOM     25  N   UNL     1       3.979   6.388  17.160  0.00  0.00    +0.000 N 
ATOM     26  H   UNL     1       3.910   5.489  16.687  0.00  0.00    +0.000 HD
BRANCH  25  27
ATOM     27  C   UNL     1       5.376   6.852  17.159  0.00  0.00    +0.000 C 
BRANCH  27  28
ATOM     28  C   UNL     1       6.292   5.896  16.396  0.00  0.00    +0.000 C 
ATOM     29  C   UNL     1       5.714   5.311  15.090  0.00  0.00    +0.000 C 
ATOM     30  O   UNL     1       5.401   4.062  15.767  0.00  0.00    +0.000 OA
ATOM     31  C   UNL     1       6.303   4.424  16.854  0.00  0.00    +0.000 C 
BRANCH  28  32
ATOM     32  N   UNL     1       7.674   6.384  16.177  0.00  0.00    +0.000 NA
ATOM     33  H   UNL     1       7.816   6.825  15.268  0.00  0.00    +0.000 HD
ATOM     34  H   UNL     1       8.388   5.655  16.239  0.00  0.00    +0.000 HD
ENDBRANCH  28  32
ENDBRANCH  27  28
ENDBRANCH  25  27
ENDBRANCH   1  25
TORSDOF 5
ENDMDL
MODEL 5
REMARK VINA RESULT:      -8.5      3.706      8.240
REMARK  Name = 
REMARK  5 active torsions:
REMARK  status: ('A' for Active; 'I' for Inactive)
REMARK    1  A    between atoms: N_1  and  C_2
REMARK    2  A    between atoms: C_2  and  C_3
REMARK    3  A    between atoms: C_3  and  N_4
REMARK    4  A    between atoms: N_4  and  C_5
REMARK    5  A    between atoms: C_7  and  N_8
REMARK                            x       y       z     vdW  Elec       q    Type
REMARK                         _______ _______ _______ _____ _____    ______ ____
ROOT
ATOM      1  C   UNL     1       3.643   6.049  17.985  0.00  0.00    +0.000 A 
ATOM      2  C   UNL     1       2.905   7.232  18.134  0.00  0.00    +0.000 A 
ATOM      3  C   UNL     1       2.067   7.430  19.230  0.00  0.00    +0.000 A 
ATOM      4  N   UNL     1       1.885   6.465  20.142  0.00  0.00    +0.000 NA
ATOM      5  C   UNL     1       2.525   5.299  20.001  0.00  0.00    +0.000 A 
ATOM      6  C   UNL     1       2.278   4.324  20.962  0.00  0.00    +0.000 A 
ATOM      7  C   UNL     1       2.913   3.084  20.937  0.00  0.00    +0.000 A 
ATOM      8  C   UNL     1       3.821   2.810  19.927  0.00  0.00    +0.000 A 
ATOM      9 CL   UNL     1       4.643   1.300  19.905  0.00  0.00    +0.000 Cl
ATOM     10  C   UNL     1       4.077   3.760  18.938  0.00  0.00    +0.000 A 
ATOM     11  C   UNL     1       3.431   5.023  18.949  0.00  0.00    +0.000 A 
ENDROOT
BRANCH   3  12
ATOM     12  N   UNL     1       1.476   8.693  19.407  0.00  0.00    +0.000 N 
ATOM     13  C   UNL     1       1.308   9.461  18.165  0.00  0.00    +0.000 C 
ATOM     14  C   UNL     1       0.025  10.264  18.212  0.00  0.00    +0.000 C 
ATOM     15  S   UNL     1       0.114  11.633  19.323  0.00  0.00    +0.000 S 
ATOM     16  O   UNL     1      -1.080  12.432  19.093  0.00  0.00    +0.000 OA
ATOM     17  O   UNL     1       1.421  12.253  19.241  0.00  0.00    +0.000 OA
ATOM     18  C   UNL     1      -0.038  10.907  20.943  0.00  0.00    +0.000 A 
ATOM     19  C   UNL     1      -1.123  11.295  21.741  0.00  0.00    +0.000 A 
ATOM     20  C   UNL     1      -1.304  10.721  22.996  0.00  0.00    +0.000 A 
ATOM     21  C   UNL     1      -0.397   9.774  23.463  0.00  0.00    +0.000 A 
ATOM     22  C   UNL     1       0.688   9.392  22.671  0.00  0.00    +0.000 A 
ATOM     23  C   UNL     1       0.884   9.945  21.393  0.00  0.00    +0.000 A 
ATOM     24  C   UNL     1       2.031   9.443  20.542  0.00  0.00    +0.000 C 
ENDBRANCH   3  12
BRANCH   1  25
ATOM     25  N   UNL     1       4.457   5.845  16.848  0.00  0.00    +0.000 N 
ATOM     26  H   UNL     1       4.225   5.006  16.322  0.00  0.00    +0.000 HD
BRANCH  25  27
ATOM     27  C   UNL     1       5.916   5.969  16.987  0.00  0.00    +0.000 C 
BRANCH  27  28
ATOM     28  C   UNL     1       6.651   4.801  16.329  0.00  0.00    +0.000 C 
ATOM     29  C   UNL     1       7.046   5.004  14.850  0.00  0.00    +0.000 C 
ATOM     30  O   UNL     1       5.913   4.201  14.418  0.00  0.00    +0.000 OA
ATOM     31  C   UNL     1       5.783   3.658  15.766  0.00  0.00    +0.000 C 
BRANCH  28  32
ATOM     32  N   UNL     1       7.793   4.258  17.099  0.00  0.00    +0.000 NA
ATOM     33  H   UNL     1       8.100   4.861  17.863  0.00  0.00    +0.000 HD
ATOM     34  H   UNL     1       8.630   4.086  16.537  0.00  0.00    +0.000 HD
ENDBRANCH  28  32
ENDBRANCH  27  28
ENDBRANCH  25  27
ENDBRANCH   1  25
TORSDOF 5
ENDMDL
MODEL 6
REMARK VINA RESULT:      -8.4      1.484      2.787
REMARK  Name = 
REMARK  5 active torsions:
REMARK  status: ('A' for Active; 'I' for Inactive)
REMARK    1  A    between atoms: N_1  and  C_2
REMARK    2  A    between atoms: C_2  and  C_3
REMARK    3  A    between atoms: C_3  and  N_4
REMARK    4  A    between atoms: N_4  and  C_5
REMARK    5  A    between atoms: C_7  and  N_8
REMARK                            x       y       z     vdW  Elec       q    Type
REMARK                         _______ _______ _______ _____ _____    ______ ____
ROOT
ATOM      1  C   UNL     1       1.096  10.121  19.227  0.00  0.00    +0.000 A 
ATOM      2  C   UNL     1       1.836   8.984  18.874  0.00  0.00    +0.000 A 
ATOM      3  C   UNL     1       1.910   7.876  19.717  0.00  0.00    +0.000 A 
ATOM      4  N   UNL     1       1.332   7.891  20.927  0.00  0.00    +0.000 NA
ATOM      5  C   UNL     1       0.669   8.982  21.324  0.00  0.00    +0.000 A 
ATOM      6  C   UNL     1       0.113   8.952  22.599  0.00  0.00    +0.000 A 
ATOM      7  C   UNL     1      -0.629  10.017  23.107  0.00  0.00    +0.000 A 
ATOM      8  C   UNL     1      -0.822  11.142  22.320  0.00  0.00    +0.000 A 
ATOM      9 CL   UNL     1      -1.768  12.448  22.917  0.00  0.00    +0.000 Cl
ATOM     10  C   UNL     1      -0.262  11.210  21.045  0.00  0.00    +0.000 A 
ATOM     11  C   UNL     1       0.501  10.135  20.520  0.00  0.00    +0.000 A 
ENDROOT
BRANCH   3  12
ATOM     12  N   UNL     1       2.533   6.708  19.244  0.00  0.00    +0.000 N 
ATOM     13  C   UNL     1       3.454   6.928  18.119  0.00  0.00    +0.000 C 
ATOM     14  C   UNL     1       4.643   5.996  18.223  0.00  0.00    +0.000 C 
ATOM     15  S   UNL     1       4.231   4.318  17.862  0.00  0.00    +0.000 S 
ATOM     16  O   UNL     1       5.489   3.593  17.772  0.00  0.00    +0.000 OA
ATOM     17  O   UNL     1       3.289   4.264  16.762  0.00  0.00    +0.000 OA
ATOM     18  C   UNL     1       3.390   3.740  19.322  0.00  0.00    +0.000 A 
ATOM     19  C   UNL     1       3.951   2.665  20.025  0.00  0.00    +0.000 A 
ATOM     20  C   UNL     1       3.349   2.208  21.195  0.00  0.00    +0.000 A 
ATOM     21  C   UNL     1       2.181   2.811  21.655  0.00  0.00    +0.000 A 
ATOM     22  C   UNL     1       1.618   3.878  20.952  0.00  0.00    +0.000 A 
ATOM     23  C   UNL     1       2.216   4.368  19.777  0.00  0.00    +0.000 A 
ATOM     24  C   UNL     1       1.611   5.575  19.092  0.00  0.00    +0.000 C 
ENDBRANCH   3  12
BRANCH   1  25
ATOM     25  N   UNL     1       1.065  11.252  18.381  0.00  0.00    +0.000 N 
ATOM     26  H   UNL     1       0.473  11.137  17.562  0.00  0.00    +0.000 HD
BRANCH  25  27
ATOM     27  C   UNL     1       2.335  11.891  18.002  0.00  0.00    +0.000 C 
BRANCH  27  28
ATOM     28  C   UNL     1       2.388  13.354  18.440  0.00  0.00    +0.000 C 
ATOM     29  C   UNL     1       2.646  13.596  19.943  0.00  0.00    +0.000 C 
ATOM     30  O   UNL     1       1.231  13.848  20.164  0.00  0.00    +0.000 OA
ATOM     31  C   UNL     1       1.041  14.045  18.732  0.00  0.00    +0.000 C 
BRANCH  28  32
ATOM     32  N   UNL     1       3.256  14.230  17.619  0.00  0.00    +0.000 NA
ATOM     33  H   UNL     1       4.018  14.662  18.141  0.00  0.00    +0.000 HD
ATOM     34  H   UNL     1       2.761  15.004  17.170  0.00  0.00    +0.000 HD
ENDBRANCH  28  32
ENDBRANCH  27  28
ENDBRANCH  25  27
ENDBRANCH   1  25
TORSDOF 5
ENDMDL
MODEL 7
REMARK VINA RESULT:      -8.4      3.710      8.409
REMARK  Name = 
REMARK  5 active torsions:
REMARK  status: ('A' for Active; 'I' for Inactive)
REMARK    1  A    between atoms: N_1  and  C_2
REMARK    2  A    between atoms: C_2  and  C_3
REMARK    3  A    between atoms: C_3  and  N_4
REMARK    4  A    between atoms: N_4  and  C_5
REMARK    5  A    between atoms: C_7  and  N_8
REMARK                            x       y       z     vdW  Elec       q    Type
REMARK                         _______ _______ _______ _____ _____    ______ ____
ROOT
ATOM      1  C   UNL     1       3.546   5.068  18.743  0.00  0.00    +0.000 A 
ATOM      2  C   UNL     1       2.911   6.132  19.399  0.00  0.00    +0.000 A 
ATOM      3  C   UNL     1       2.854   7.403  18.831  0.00  0.00    +0.000 A 
ATOM      4  N   UNL     1       3.468   7.668  17.669  0.00  0.00    +0.000 NA
ATOM      5  C   UNL     1       4.136   6.693  17.043  0.00  0.00    +0.000 A 
ATOM      6  C   UNL     1       4.777   7.030  15.856  0.00  0.00    +0.000 A 
ATOM      7  C   UNL     1       5.475   6.089  15.099  0.00  0.00    +0.000 A 
ATOM      8  C   UNL     1       5.533   4.776  15.541  0.00  0.00    +0.000 A 
ATOM      9 CL   UNL     1       6.357   3.597  14.599  0.00  0.00    +0.000 Cl
ATOM     10  C   UNL     1       4.917   4.411  16.737  0.00  0.00    +0.000 A 
ATOM     11  C   UNL     1       4.210   5.361  17.519  0.00  0.00    +0.000 A 
ENDROOT
BRANCH   3  12
ATOM     12  N   UNL     1       2.071   8.388  19.458  0.00  0.00    +0.000 N 
ATOM     13  C   UNL     1       1.338   7.914  20.641  0.00  0.00    +0.000 C 
ATOM     14  C   UNL     1       1.275   9.003  21.691  0.00  0.00    +0.000 C 
ATOM     15  S   UNL     1       0.182  10.318  21.251  0.00  0.00    +0.000 S 
ATOM     16  O   UNL     1       0.045  11.156  22.432  0.00  0.00    +0.000 OA
ATOM     17  O   UNL     1      -1.001   9.783  20.607  0.00  0.00    +0.000 OA
ATOM     18  C   UNL     1       1.080  11.258  20.034  0.00  0.00    +0.000 A 
ATOM     19  C   UNL     1       1.371  12.600  20.320  0.00  0.00    +0.000 A 
ATOM     20  C   UNL     1       2.108  13.360  19.415  0.00  0.00    +0.000 A 
ATOM     21  C   UNL     1       2.541  12.790  18.221  0.00  0.00    +0.000 A 
ATOM     22  C   UNL     1       2.247  11.456  17.934  0.00  0.00    +0.000 A 
ATOM     23  C   UNL     1       1.518  10.662  18.837  0.00  0.00    +0.000 A 
ATOM     24  C   UNL     1       1.290   9.201  18.516  0.00  0.00    +0.000 C 
ENDBRANCH   3  12
BRANCH   1  25
ATOM     25  N   UNL     1       3.632   3.795  19.350  0.00  0.00    +0.000 N 
ATOM     26  H   UNL     1       3.296   3.035  18.763  0.00  0.00    +0.000 HD
BRANCH  25  27
ATOM     27  C   UNL     1       3.138   3.629  20.726  0.00  0.00    +0.000 C 
BRANCH  27  28
ATOM     28  C   UNL     1       1.810   2.874  20.765  0.00  0.00    +0.000 C 
ATOM     29  C   UNL     1       1.587   1.847  19.634  0.00  0.00    +0.000 C 
ATOM     30  O   UNL     1       0.737   2.789  18.922  0.00  0.00    +0.000 OA
ATOM     31  C   UNL     1       0.588   3.576  20.141  0.00  0.00    +0.000 C 
BRANCH  28  32
ATOM     32  N   UNL     1       1.457   2.283  22.077  0.00  0.00    +0.000 NA
ATOM     33  H   UNL     1       1.793   2.821  22.875  0.00  0.00    +0.000 HD
ATOM     34  H   UNL     1       1.817   1.336  22.218  0.00  0.00    +0.000 HD
ENDBRANCH  28  32
ENDBRANCH  27  28
ENDBRANCH  25  27
ENDBRANCH   1  25
TORSDOF 5
ENDMDL
MODEL 8
REMARK VINA RESULT:      -8.4      3.647      7.925
REMARK  Name = 
REMARK  5 active torsions:
REMARK  status: ('A' for Active; 'I' for Inactive)
REMARK    1  A    between atoms: N_1  and  C_2
REMARK    2  A    between atoms: C_2  and  C_3
REMARK    3  A    between atoms: C_3  and  N_4
REMARK    4  A    between atoms: N_4  and  C_5
REMARK    5  A    between atoms: C_7  and  N_8
REMARK                            x       y       z     vdW  Elec       q    Type
REMARK                         _______ _______ _______ _____ _____    ______ ____
ROOT
ATOM      1  C   UNL     1       3.605   5.809  18.110  0.00  0.00    +0.000 A 
ATOM      2  C   UNL     1       2.884   7.007  18.213  0.00  0.00    +0.000 A 
ATOM      3  C   UNL     1       2.046   7.257  19.299  0.00  0.00    +0.000 A 
ATOM      4  N   UNL     1       1.848   6.328  20.245  0.00  0.00    +0.000 NA
ATOM      5  C   UNL     1       2.472   5.149  20.148  0.00  0.00    +0.000 A 
ATOM      6  C   UNL     1       2.208   4.213  21.142  0.00  0.00    +0.000 A 
ATOM      7  C   UNL     1       2.826   2.963  21.165  0.00  0.00    +0.000 A 
ATOM      8  C   UNL     1       3.733   2.640  20.167  0.00  0.00    +0.000 A 
ATOM      9 CL   UNL     1       4.532   1.118  20.202  0.00  0.00    +0.000 Cl
ATOM     10  C   UNL     1       4.004   3.550  19.146  0.00  0.00    +0.000 A 
ATOM     11  C   UNL     1       3.376   4.822  19.109  0.00  0.00    +0.000 A 
ENDROOT
BRANCH   3  12
ATOM     12  N   UNL     1       1.473   8.534  19.429  0.00  0.00    +0.000 N 
ATOM     13  C   UNL     1       1.315   9.257  18.159  0.00  0.00    +0.000 C 
ATOM     14  C   UNL     1       0.043  10.078  18.177  0.00  0.00    +0.000 C 
ATOM     15  S   UNL     1       0.152  11.487  19.235  0.00  0.00    +0.000 S 
ATOM     16  O   UNL     1      -1.030  12.293  18.975  0.00  0.00    +0.000 OA
ATOM     17  O   UNL     1       1.468  12.086  19.129  0.00  0.00    +0.000 OA
ATOM     18  C   UNL     1      -0.008  10.825  20.881  0.00  0.00    +0.000 A 
ATOM     19  C   UNL     1      -1.087  11.257  21.664  0.00  0.00    +0.000 A 
ATOM     20  C   UNL     1      -1.275  10.733  22.941  0.00  0.00    +0.000 A 
ATOM     21  C   UNL     1      -0.380   9.792  23.443  0.00  0.00    +0.000 A 
ATOM     22  C   UNL     1       0.699   9.366  22.665  0.00  0.00    +0.000 A 
ATOM     23  C   UNL     1       0.901   9.867  21.367  0.00  0.00    +0.000 A 
ATOM     24  C   UNL     1       2.039   9.318  20.534  0.00  0.00    +0.000 C 
ENDBRANCH   3  12
BRANCH   1  25
ATOM     25  N   UNL     1       4.419   5.552  16.983  0.00  0.00    +0.000 N 
ATOM     26  H   UNL     1       4.854   4.633  16.990  0.00  0.00    +0.000 HD
BRANCH  25  27
ATOM     27  C   UNL     1       5.394   6.572  16.564  0.00  0.00    +0.000 C 
BRANCH  27  28
ATOM     28  C   UNL     1       6.799   6.259  17.078  0.00  0.00    +0.000 C 
ATOM     29  C   UNL     1       7.307   4.826  16.814  0.00  0.00    +0.000 C 
ATOM     30  O   UNL     1       6.999   4.444  18.184  0.00  0.00    +0.000 OA
ATOM     31  C   UNL     1       6.926   5.852  18.559  0.00  0.00    +0.000 C 
BRANCH  28  32
ATOM     32  N   UNL     1       7.839   7.251  16.719  0.00  0.00    +0.000 NA
ATOM     33  H   UNL     1       7.494   8.209  16.665  0.00  0.00    +0.000 HD
ATOM     34  H   UNL     1       8.290   7.074  15.819  0.00  0.00    +0.000 HD
ENDBRANCH  28  32
ENDBRANCH  27  28
ENDBRANCH  25  27
ENDBRANCH   1  25
TORSDOF 5
ENDMDL
MODEL 9
REMARK VINA RESULT:      -8.2      1.613      2.609
REMARK  Name = 
REMARK  5 active torsions:
REMARK  status: ('A' for Active; 'I' for Inactive)
REMARK    1  A    between atoms: N_1  and  C_2
REMARK    2  A    between atoms: C_2  and  C_3
REMARK    3  A    between atoms: C_3  and  N_4
REMARK    4  A    between atoms: N_4  and  C_5
REMARK    5  A    between atoms: C_7  and  N_8
REMARK                            x       y       z     vdW  Elec       q    Type
REMARK                         _______ _______ _______ _____ _____    ______ ____
ROOT
ATOM      1  C   UNL     1       1.364  10.037  18.884  0.00  0.00    +0.000 A 
ATOM      2  C   UNL     1       2.172   9.008  18.381  0.00  0.00    +0.000 A 
ATOM      3  C   UNL     1       2.329   7.807  19.071  0.00  0.00    +0.000 A 
ATOM      4  N   UNL     1       1.768   7.625  20.276  0.00  0.00    +0.000 NA
ATOM      5  C   UNL     1       1.040   8.609  20.815  0.00  0.00    +0.000 A 
ATOM      6  C   UNL     1       0.505   8.377  22.078  0.00  0.00    +0.000 A 
ATOM      7  C   UNL     1      -0.298   9.315  22.725  0.00  0.00    +0.000 A 
ATOM      8  C   UNL     1      -0.575  10.517  22.093  0.00  0.00    +0.000 A 
ATOM      9 CL   UNL     1      -1.595  11.668  22.861  0.00  0.00    +0.000 Cl
ATOM     10  C   UNL     1      -0.038  10.788  20.835  0.00  0.00    +0.000 A 
ATOM     11  C   UNL     1       0.787   9.844  20.170  0.00  0.00    +0.000 A 
ENDROOT
BRANCH   3  12
ATOM     12  N   UNL     1       3.021   6.755  18.447  0.00  0.00    +0.000 N 
ATOM     13  C   UNL     1       4.323   7.140  17.882  0.00  0.00    +0.000 C 
ATOM     14  C   UNL     1       5.318   6.009  18.038  0.00  0.00    +0.000 C 
ATOM     15  S   UNL     1       4.988   4.651  16.958  0.00  0.00    +0.000 S 
ATOM     16  O   UNL     1       6.134   3.762  17.049  0.00  0.00    +0.000 OA
ATOM     17  O   UNL     1       4.558   5.142  15.664  0.00  0.00    +0.000 OA
ATOM     18  C   UNL     1       3.605   3.812  17.704  0.00  0.00    +0.000 A 
ATOM     19  C   UNL     1       3.778   2.480  18.103  0.00  0.00    +0.000 A 
ATOM     20  C   UNL     1       2.737   1.799  18.729  0.00  0.00    +0.000 A 
ATOM     21  C   UNL     1       1.519   2.439  18.943  0.00  0.00    +0.000 A 
ATOM     22  C   UNL     1       1.343   3.765  18.540  0.00  0.00    +0.000 A 
ATOM     23  C   UNL     1       2.385   4.479  17.921  0.00  0.00    +0.000 A 
ATOM     24  C   UNL     1       2.172   5.937  17.571  0.00  0.00    +0.000 C 
ENDBRANCH   3  12
BRANCH   1  25
ATOM     25  N   UNL     1       1.248  11.265  18.193  0.00  0.00    +0.000 N 
ATOM     26  H   UNL     1       0.637  11.224  17.381  0.00  0.00    +0.000 HD
BRANCH  25  27
ATOM     27  C   UNL     1       2.470  12.017  17.870  0.00  0.00    +0.000 C 
BRANCH  27  28
ATOM     28  C   UNL     1       2.412  13.450  18.399  0.00  0.00    +0.000 C 
ATOM     29  C   UNL     1       2.643  13.616  19.916  0.00  0.00    +0.000 C 
ATOM     30  O   UNL     1       1.212  13.748  20.138  0.00  0.00    +0.000 OA
ATOM     31  C   UNL     1       1.016  14.020  18.719  0.00  0.00    +0.000 C 
BRANCH  28  32
ATOM     32  N   UNL     1       3.217  14.436  17.642  0.00  0.00    +0.000 NA
ATOM     33  H   UNL     1       4.148  14.102  17.390  0.00  0.00    +0.000 HD
ATOM     34  H   UNL     1       3.371  15.317  18.138  0.00  0.00    +0.000 HD
ENDBRANCH  28  32
ENDBRANCH  27  28
ENDBRANCH  25  27
ENDBRANCH   1  25
TORSDOF 5
ENDMDL
