MODEL 1
REMARK VINA RESULT:      -7.4      0.000      0.000
REMARK  Name = 
REMARK  6 active torsions:
REMARK  status: ('A' for Active; 'I' for Inactive)
REMARK    1  A    between atoms: C_1  and  C_2
REMARK    2  A    between atoms: N_5  and  C_6
REMARK    3  A    between atoms: C_6  and  C_7
REMARK    4  A    between atoms: N_9  and  C_10
REMARK    5  A    between atoms: C_10  and  C_11
REMARK    6  A    between atoms: C_14  and  C_15
REMARK                            x       y       z     vdW  Elec       q    Type
REMARK                         _______ _______ _______ _____ _____    ______ ____
ROOT
ATOM      1  C   UNL     1       6.681   4.310  14.849  0.00  0.00    +0.000 C 
ATOM      2  C   UNL     1       5.382   5.086  15.170  0.00  0.00    +0.000 C 
ATOM      3  N   UNL     1       4.958   4.963  16.584  0.00  0.00    +0.000 NA
ATOM      4  C   UNL     1       6.097   5.369  17.434  0.00  0.00    +0.000 C 
ATOM      5  C   UNL     1       7.424   4.670  17.082  0.00  0.00    +0.000 C 
ATOM      6  O   UNL     1       7.751   4.802  15.691  0.00  0.00    +0.000 OA
ENDROOT
BRANCH   1   7
ATOM      7  C   UNL     1       7.106   4.486  13.389  0.00  0.00    +0.000 C 
BRANCH   7  12
ATOM      8  C   UNL     1       3.235   3.026  10.575  0.00  0.00    +0.000 C 
ATOM      9  C   UNL     1       4.546   3.107  11.256  0.00  0.00    +0.000 A 
ATOM     10  C   UNL     1       5.539   2.108  11.370  0.00  0.00    +0.000 A 
ATOM     11  N   UNL     1       6.586   2.511  12.092  0.00  0.00    +0.000 NA
ATOM     12  N   UNL     1       6.265   3.760  12.460  0.00  0.00    +0.000 N 
ATOM     13  C   UNL     1       5.071   4.179  11.946  0.00  0.00    +0.000 A 
ENDBRANCH   7  12
ENDBRANCH   1   7
BRANCH   3  14
ATOM     14  C   UNL     1       4.502   3.595  16.932  0.00  0.00    +0.000 C 
BRANCH  14  15
ATOM     15  C   UNL     1       3.230   3.553  17.731  0.00  0.00    +0.000 A 
ATOM     16  N   UNL     1       2.069   3.189  17.167  0.00  0.00    +0.000 NA
ATOM     17  O   UNL     1       1.169   3.236  18.230  0.00  0.00    +0.000 OA
ATOM     18  C   UNL     1       1.880   3.621  19.333  0.00  0.00    +0.000 A 
ATOM     19  N   UNL     1       3.153   3.827  19.077  0.00  0.00    +0.000 NA
BRANCH  18  20
ATOM     20  C   UNL     1       1.243   3.759  20.706  0.00  0.00    +0.000 C 
ATOM     21  C   UNL     1       1.187   2.536  21.600  0.00  0.00    +0.000 C 
ATOM     22  C   UNL     1       2.116   3.651  21.939  0.00  0.00    +0.000 C 
ENDBRANCH  18  20
ENDBRANCH  14  15
ENDBRANCH   3  14
TORSDOF 5
ENDMDL
MODEL 2
REMARK VINA RESULT:      -7.1      3.976      4.753
REMARK  Name = 
REMARK  6 active torsions:
REMARK  status: ('A' for Active; 'I' for Inactive)
REMARK    1  A    between atoms: C_1  and  C_2
REMARK    2  A    between atoms: N_5  and  C_6
REMARK    3  A    between atoms: C_6  and  C_7
REMARK    4  A    between atoms: N_9  and  C_10
REMARK    5  A    between atoms: C_10  and  C_11
REMARK    6  A    between atoms: C_14  and  C_15
REMARK                            x       y       z     vdW  Elec       q    Type
REMARK                         _______ _______ _______ _____ _____    ______ ____
ROOT
ATOM      1  C   UNL     1       5.244   4.904  17.409  0.00  0.00    +0.000 C 
ATOM      2  C   UNL     1       5.076   5.999  18.489  0.00  0.00    +0.000 C 
ATOM      3  N   UNL     1       3.728   6.019  19.102  0.00  0.00    +0.000 NA
ATOM      4  C   UNL     1       3.442   4.660  19.609  0.00  0.00    +0.000 C 
ATOM      5  C   UNL     1       3.679   3.542  18.577  0.00  0.00    +0.000 C 
ATOM      6  O   UNL     1       4.993   3.608  18.001  0.00  0.00    +0.000 OA
ENDROOT
BRANCH   1   7
ATOM      7  C   UNL     1       6.658   4.893  16.822  0.00  0.00    +0.000 C 
BRANCH   7  12
ATOM      8  C   UNL     1       5.865   3.233  12.170  0.00  0.00    +0.000 C 
ATOM      9  C   UNL     1       6.350   3.989  13.345  0.00  0.00    +0.000 A 
ATOM     10  C   UNL     1       7.420   4.910  13.415  0.00  0.00    +0.000 A 
ATOM     11  N   UNL     1       7.608   5.378  14.651  0.00  0.00    +0.000 NA
ATOM     12  N   UNL     1       6.675   4.749  15.381  0.00  0.00    +0.000 N 
ATOM     13  C   UNL     1       5.867   3.940  14.635  0.00  0.00    +0.000 A 
ENDBRANCH   7  12
ENDBRANCH   1   7
BRANCH   3  14
ATOM     14  C   UNL     1       2.673   6.463  18.158  0.00  0.00    +0.000 C 
BRANCH  14  15
ATOM     15  C   UNL     1       2.230   7.886  18.351  0.00  0.00    +0.000 A 
ATOM     16  N   UNL     1       2.361   8.791  17.371  0.00  0.00    +0.000 NA
ATOM     17  O   UNL     1       1.804   9.943  17.923  0.00  0.00    +0.000 OA
ATOM     18  C   UNL     1       1.389   9.616  19.183  0.00  0.00    +0.000 A 
ATOM     19  N   UNL     1       1.628   8.361  19.493  0.00  0.00    +0.000 NA
BRANCH  18  20
ATOM     20  C   UNL     1       0.698  10.613  20.099  0.00  0.00    +0.000 C 
ATOM     21  C   UNL     1      -0.758  10.944  19.835  0.00  0.00    +0.000 C 
ATOM     22  C   UNL     1      -0.396  10.128  21.028  0.00  0.00    +0.000 C 
ENDBRANCH  18  20
ENDBRANCH  14  15
ENDBRANCH   3  14
TORSDOF 5
ENDMDL
MODEL 3
REMARK VINA RESULT:      -7.0      2.818      7.430
REMARK  Name = 
REMARK  6 active torsions:
REMARK  status: ('A' for Active; 'I' for Inactive)
REMARK    1  A    between atoms: C_1  and  C_2
REMARK    2  A    between atoms: N_5  and  C_6
REMARK    3  A    between atoms: C_6  and  C_7
REMARK    4  A    between atoms: N_9  and  C_10
REMARK    5  A    between atoms: C_10  and  C_11
REMARK    6  A    between atoms: C_14  and  C_15
REMARK                            x       y       z     vdW  Elec       q    Type
REMARK                         _______ _______ _______ _____ _____    ______ ____
ROOT
ATOM      1  C   UNL     1       5.192   5.439  18.630  0.00  0.00    +0.000 C 
ATOM      2  C   UNL     1       5.601   4.227  17.761  0.00  0.00    +0.000 C 
ATOM      3  N   UNL     1       6.936   4.374  17.136  0.00  0.00    +0.000 NA
ATOM      4  C   UNL     1       7.908   4.667  18.212  0.00  0.00    +0.000 C 
ATOM      5  C   UNL     1       7.486   5.819  19.143  0.00  0.00    +0.000 C 
ATOM      6  O   UNL     1       6.170   5.623  19.681  0.00  0.00    +0.000 OA
ENDROOT
BRANCH   1   7
ATOM      7  C   UNL     1       3.823   5.237  19.284  0.00  0.00    +0.000 C 
BRANCH   7  12
ATOM      8  C   UNL     1       1.769   9.572  17.862  0.00  0.00    +0.000 C 
ATOM      9  C   UNL     1       2.107   8.334  18.597  0.00  0.00    +0.000 A 
ATOM     10  C   UNL     1       1.724   7.957  19.904  0.00  0.00    +0.000 A 
ATOM     11  N   UNL     1       2.245   6.784  20.269  0.00  0.00    +0.000 NA
ATOM     12  N   UNL     1       2.977   6.411  19.209  0.00  0.00    +0.000 N 
ATOM     13  C   UNL     1       2.891   7.285  18.164  0.00  0.00    +0.000 A 
ENDBRANCH   7  12
ENDBRANCH   1   7
BRANCH   3  14
ATOM     14  C   UNL     1       6.971   5.428  16.093  0.00  0.00    +0.000 C 
BRANCH  14  15
ATOM     15  C   UNL     1       6.838   4.911  14.689  0.00  0.00    +0.000 A 
ATOM     16  N   UNL     1       7.681   5.304  13.723  0.00  0.00    +0.000 NA
ATOM     17  O   UNL     1       7.255   4.578  12.612  0.00  0.00    +0.000 OA
ATOM     18  C   UNL     1       6.198   3.814  13.021  0.00  0.00    +0.000 A 
ATOM     19  N   UNL     1       5.903   3.983  14.291  0.00  0.00    +0.000 NA
BRANCH  18  20
ATOM     20  C   UNL     1       5.475   2.855  12.089  0.00  0.00    +0.000 C 
ATOM     21  C   UNL     1       4.110   3.253  11.563  0.00  0.00    +0.000 C 
ATOM     22  C   UNL     1       5.279   3.242  10.638  0.00  0.00    +0.000 C 
ENDBRANCH  18  20
ENDBRANCH  14  15
ENDBRANCH   3  14
TORSDOF 5
ENDMDL
MODEL 4
REMARK VINA RESULT:      -6.9      1.827      7.646
REMARK  Name = 
REMARK  6 active torsions:
REMARK  status: ('A' for Active; 'I' for Inactive)
REMARK    1  A    between atoms: C_1  and  C_2
REMARK    2  A    between atoms: N_5  and  C_6
REMARK    3  A    between atoms: C_6  and  C_7
REMARK    4  A    between atoms: N_9  and  C_10
REMARK    5  A    between atoms: C_10  and  C_11
REMARK    6  A    between atoms: C_14  and  C_15
REMARK                            x       y       z     vdW  Elec       q    Type
REMARK                         _______ _______ _______ _____ _____    ______ ____
ROOT
ATOM      1  C   UNL     1       3.978   5.936  18.296  0.00  0.00    +0.000 C 
ATOM      2  C   UNL     1       4.045   4.753  17.302  0.00  0.00    +0.000 C 
ATOM      3  N   UNL     1       5.408   4.499  16.782  0.00  0.00    +0.000 NA
ATOM      4  C   UNL     1       6.310   4.329  17.941  0.00  0.00    +0.000 C 
ATOM      5  C   UNL     1       6.204   5.453  18.988  0.00  0.00    +0.000 C 
ATOM      6  O   UNL     1       4.851   5.665  19.418  0.00  0.00    +0.000 OA
ENDROOT
BRANCH   1   7
ATOM      7  C   UNL     1       2.561   6.148  18.837  0.00  0.00    +0.000 C 
BRANCH   7  12
ATOM      8  C   UNL     1       1.436   2.462  22.027  0.00  0.00    +0.000 C 
ATOM      9  C   UNL     1       1.535   3.321  20.827  0.00  0.00    +0.000 A 
ATOM     10  C   UNL     1       1.157   3.021  19.499  0.00  0.00    +0.000 A 
ATOM     11  N   UNL     1       1.427   4.018  18.655  0.00  0.00    +0.000 NA
ATOM     12  N   UNL     1       1.994   4.955  19.430  0.00  0.00    +0.000 N 
ATOM     13  C   UNL     1       2.040   4.601  20.749  0.00  0.00    +0.000 A 
ENDBRANCH   7  12
ENDBRANCH   1   7
BRANCH   3  14
ATOM     14  C   UNL     1       5.895   5.579  15.889  0.00  0.00    +0.000 C 
BRANCH  14  15
ATOM     15  C   UNL     1       6.399   5.098  14.557  0.00  0.00    +0.000 A 
ATOM     16  N   UNL     1       7.612   5.452  14.108  0.00  0.00    +0.000 NA
ATOM     17  O   UNL     1       7.712   4.778  12.892  0.00  0.00    +0.000 OA
ATOM     18  C   UNL     1       6.547   4.079  12.732  0.00  0.00    +0.000 A 
ATOM     19  N   UNL     1       5.708   4.244  13.730  0.00  0.00    +0.000 NA
BRANCH  18  20
ATOM     20  C   UNL     1       6.290   3.189  11.527  0.00  0.00    +0.000 C 
ATOM     21  C   UNL     1       7.260   2.059  11.245  0.00  0.00    +0.000 C 
ATOM     22  C   UNL     1       5.893   1.745  11.747  0.00  0.00    +0.000 C 
ENDBRANCH  18  20
ENDBRANCH  14  15
ENDBRANCH   3  14
TORSDOF 5
ENDMDL
MODEL 5
REMARK VINA RESULT:      -6.9      3.882      4.942
REMARK  Name = 
REMARK  6 active torsions:
REMARK  status: ('A' for Active; 'I' for Inactive)
REMARK    1  A    between atoms: C_1  and  C_2
REMARK    2  A    between atoms: N_5  and  C_6
REMARK    3  A    between atoms: C_6  and  C_7
REMARK    4  A    between atoms: N_9  and  C_10
REMARK    5  A    between atoms: C_10  and  C_11
REMARK    6  A    between atoms: C_14  and  C_15
REMARK                            x       y       z     vdW  Elec       q    Type
REMARK                         _______ _______ _______ _____ _____    ______ ____
ROOT
ATOM      1  C   UNL     1       4.570   4.853  17.670  0.00  0.00    +0.000 C 
ATOM      2  C   UNL     1       4.459   5.620  19.009  0.00  0.00    +0.000 C 
ATOM      3  N   UNL     1       3.061   5.894  19.416  0.00  0.00    +0.000 NA
ATOM      4  C   UNL     1       2.335   4.607  19.427  0.00  0.00    +0.000 C 
ATOM      5  C   UNL     1       2.495   3.784  18.135  0.00  0.00    +0.000 C 
ATOM      6  O   UNL     1       3.873   3.590  17.786  0.00  0.00    +0.000 OA
ENDROOT
BRANCH   1   7
ATOM      7  C   UNL     1       6.026   4.561  17.299  0.00  0.00    +0.000 C 
BRANCH   7  12
ATOM      8  C   UNL     1       5.992   3.416  12.429  0.00  0.00    +0.000 C 
ATOM      9  C   UNL     1       6.271   4.044  13.738  0.00  0.00    +0.000 A 
ATOM     10  C   UNL     1       7.289   4.966  14.070  0.00  0.00    +0.000 A 
ATOM     11  N   UNL     1       7.276   5.297  15.362  0.00  0.00    +0.000 NA
ATOM     12  N   UNL     1       6.264   4.578  15.870  0.00  0.00    +0.000 N 
ATOM     13  C   UNL     1       5.602   3.845  14.927  0.00  0.00    +0.000 A 
ENDBRANCH   7  12
ENDBRANCH   1   7
BRANCH   3  14
ATOM     14  C   UNL     1       2.385   6.874  18.531  0.00  0.00    +0.000 C 
BRANCH  14  15
ATOM     15  C   UNL     1       1.887   8.102  19.239  0.00  0.00    +0.000 A 
ATOM     16  N   UNL     1       1.639   9.236  18.566  0.00  0.00    +0.000 NA
ATOM     17  O   UNL     1       1.163  10.096  19.554  0.00  0.00    +0.000 OA
ATOM     18  C   UNL     1       1.166   9.392  20.726  0.00  0.00    +0.000 A 
ATOM     19  N   UNL     1       1.603   8.160  20.583  0.00  0.00    +0.000 NA
BRANCH  18  20
ATOM     20  C   UNL     1       0.682   9.988  22.038  0.00  0.00    +0.000 C 
ATOM     21  C   UNL     1      -0.771  10.407  22.146  0.00  0.00    +0.000 C 
ATOM     22  C   UNL     1      -0.296   9.206  22.888  0.00  0.00    +0.000 C 
ENDBRANCH  18  20
ENDBRANCH  14  15
ENDBRANCH   3  14
TORSDOF 5
ENDMDL
MODEL 6
REMARK VINA RESULT:      -6.9      1.238      1.355
REMARK  Name = 
REMARK  6 active torsions:
REMARK  status: ('A' for Active; 'I' for Inactive)
REMARK    1  A    between atoms: C_1  and  C_2
REMARK    2  A    between atoms: N_5  and  C_6
REMARK    3  A    between atoms: C_6  and  C_7
REMARK    4  A    between atoms: N_9  and  C_10
REMARK    5  A    between atoms: C_10  and  C_11
REMARK    6  A    between atoms: C_14  and  C_15
REMARK                            x       y       z     vdW  Elec       q    Type
REMARK                         _______ _______ _______ _____ _____    ______ ____
ROOT
ATOM      1  C   UNL     1       6.548   4.636  15.226  0.00  0.00    +0.000 C 
ATOM      2  C   UNL     1       5.809   5.967  15.499  0.00  0.00    +0.000 C 
ATOM      3  N   UNL     1       5.192   6.032  16.844  0.00  0.00    +0.000 NA
ATOM      4  C   UNL     1       6.247   5.744  17.838  0.00  0.00    +0.000 C 
ATOM      5  C   UNL     1       7.054   4.466  17.546  0.00  0.00    +0.000 C 
ATOM      6  O   UNL     1       7.589   4.458  16.215  0.00  0.00    +0.000 OA
ENDROOT
BRANCH   1   7
ATOM      7  C   UNL     1       7.199   4.617  13.840  0.00  0.00    +0.000 C 
BRANCH   7  12
ATOM      8  C   UNL     1       3.343   2.950  11.124  0.00  0.00    +0.000 C 
ATOM      9  C   UNL     1       4.694   3.181  11.681  0.00  0.00    +0.000 A 
ATOM     10  C   UNL     1       5.874   2.438  11.457  0.00  0.00    +0.000 A 
ATOM     11  N   UNL     1       6.911   2.905  12.156  0.00  0.00    +0.000 NA
ATOM     12  N   UNL     1       6.399   3.936  12.844  0.00  0.00    +0.000 N 
ATOM     13  C   UNL     1       5.084   4.170  12.559  0.00  0.00    +0.000 A 
ENDBRANCH   7  12
ENDBRANCH   1   7
BRANCH   3  14
ATOM     14  C   UNL     1       4.051   5.098  17.000  0.00  0.00    +0.000 C 
BRANCH  14  15
ATOM     15  C   UNL     1       3.347   5.199  18.324  0.00  0.00    +0.000 A 
ATOM     16  N   UNL     1       2.651   6.296  18.657  0.00  0.00    +0.000 NA
ATOM     17  O   UNL     1       2.131   5.977  19.910  0.00  0.00    +0.000 OA
ATOM     18  C   UNL     1       2.564   4.714  20.207  0.00  0.00    +0.000 A 
ATOM     19  N   UNL     1       3.315   4.193  19.262  0.00  0.00    +0.000 NA
BRANCH  18  20
ATOM     20  C   UNL     1       2.176   4.000  21.491  0.00  0.00    +0.000 C 
ATOM     21  C   UNL     1       1.157   2.881  21.414  0.00  0.00    +0.000 C 
ATOM     22  C   UNL     1       2.585   2.556  21.686  0.00  0.00    +0.000 C 
ENDBRANCH  18  20
ENDBRANCH  14  15
ENDBRANCH   3  14
TORSDOF 5
ENDMDL
MODEL 7
REMARK VINA RESULT:      -6.8      2.097      7.609
REMARK  Name = 
REMARK  6 active torsions:
REMARK  status: ('A' for Active; 'I' for Inactive)
REMARK    1  A    between atoms: C_1  and  C_2
REMARK    2  A    between atoms: N_5  and  C_6
REMARK    3  A    between atoms: C_6  and  C_7
REMARK    4  A    between atoms: N_9  and  C_10
REMARK    5  A    between atoms: C_10  and  C_11
REMARK    6  A    between atoms: C_14  and  C_15
REMARK                            x       y       z     vdW  Elec       q    Type
REMARK                         _______ _______ _______ _____ _____    ______ ____
ROOT
ATOM      1  C   UNL     1       4.769   6.157  17.545  0.00  0.00    +0.000 C 
ATOM      2  C   UNL     1       4.863   4.881  16.677  0.00  0.00    +0.000 C 
ATOM      3  N   UNL     1       6.255   4.432  16.440  0.00  0.00    +0.000 NA
ATOM      4  C   UNL     1       6.912   4.284  17.756  0.00  0.00    +0.000 C 
ATOM      5  C   UNL     1       6.763   5.512  18.674  0.00  0.00    +0.000 C 
ATOM      6  O   UNL     1       5.392   5.909  18.827  0.00  0.00    +0.000 OA
ENDROOT
BRANCH   1   7
ATOM      7  C   UNL     1       3.316   6.572  17.795  0.00  0.00    +0.000 C 
BRANCH   7  12
ATOM      8  C   UNL     1       0.957   3.074  20.483  0.00  0.00    +0.000 C 
ATOM      9  C   UNL     1       1.626   4.319  20.047  0.00  0.00    +0.000 A 
ATOM     10  C   UNL     1       1.678   5.566  20.709  0.00  0.00    +0.000 A 
ATOM     11  N   UNL     1       2.338   6.489  20.006  0.00  0.00    +0.000 NA
ATOM     12  N   UNL     1       2.696   5.847  18.884  0.00  0.00    +0.000 N 
ATOM     13  C   UNL     1       2.332   4.531  18.881  0.00  0.00    +0.000 A 
ENDBRANCH   7  12
ENDBRANCH   1   7
BRANCH   3  14
ATOM     14  C   UNL     1       7.020   5.360  15.571  0.00  0.00    +0.000 C 
BRANCH  14  15
ATOM     15  C   UNL     1       7.075   4.948  14.127  0.00  0.00    +0.000 A 
ATOM     16  N   UNL     1       7.880   5.576  13.258  0.00  0.00    +0.000 NA
ATOM     17  O   UNL     1       7.673   4.879  12.069  0.00  0.00    +0.000 OA
ATOM     18  C   UNL     1       6.764   3.895  12.341  0.00  0.00    +0.000 A 
ATOM     19  N   UNL     1       6.366   3.896  13.594  0.00  0.00    +0.000 NA
BRANCH  18  20
ATOM     20  C   UNL     1       6.301   2.898  11.291  0.00  0.00    +0.000 C 
ATOM     21  C   UNL     1       7.182   1.700  10.998  0.00  0.00    +0.000 C 
ATOM     22  C   UNL     1       5.895   1.505  11.723  0.00  0.00    +0.000 C 
ENDBRANCH  18  20
ENDBRANCH  14  15
ENDBRANCH   3  14
TORSDOF 5
ENDMDL
MODEL 8
REMARK VINA RESULT:      -6.7      3.015      7.578
REMARK  Name = 
REMARK  6 active torsions:
REMARK  status: ('A' for Active; 'I' for Inactive)
REMARK    1  A    between atoms: C_1  and  C_2
REMARK    2  A    between atoms: N_5  and  C_6
REMARK    3  A    between atoms: C_6  and  C_7
REMARK    4  A    between atoms: N_9  and  C_10
REMARK    5  A    between atoms: C_10  and  C_11
REMARK    6  A    between atoms: C_14  and  C_15
REMARK                            x       y       z     vdW  Elec       q    Type
REMARK                         _______ _______ _______ _____ _____    ______ ____
ROOT
ATOM      1  C   UNL     1       3.272   4.899  19.599  0.00  0.00    +0.000 C 
ATOM      2  C   UNL     1       3.120   4.626  18.084  0.00  0.00    +0.000 C 
ATOM      3  N   UNL     1       4.148   3.704  17.547  0.00  0.00    +0.000 NA
ATOM      4  C   UNL     1       4.117   2.470  18.360  0.00  0.00    +0.000 C 
ATOM      5  C   UNL     1       4.184   2.717  19.879  0.00  0.00    +0.000 C 
ATOM      6  O   UNL     1       3.183   3.647  20.319  0.00  0.00    +0.000 OA
ENDROOT
BRANCH   1   7
ATOM      7  C   UNL     1       2.175   5.829  20.124  0.00  0.00    +0.000 C 
BRANCH   7  12
ATOM      8  C   UNL     1       1.156  10.583  18.947  0.00  0.00    +0.000 C 
ATOM      9  C   UNL     1       1.691   9.204  18.951  0.00  0.00    +0.000 A 
ATOM     10  C   UNL     1       2.389   8.531  17.924  0.00  0.00    +0.000 A 
ATOM     11  N   UNL     1       2.690   7.273  18.253  0.00  0.00    +0.000 NA
ATOM     12  N   UNL     1       2.174   7.127  19.482  0.00  0.00    +0.000 N 
ATOM     13  C   UNL     1       1.603   8.271  19.962  0.00  0.00    +0.000 A 
ENDBRANCH   7  12
ENDBRANCH   1   7
BRANCH   3  14
ATOM     14  C   UNL     1       5.507   4.297  17.540  0.00  0.00    +0.000 C 
BRANCH  14  15
ATOM     15  C   UNL     1       6.132   4.392  16.177  0.00  0.00    +0.000 A 
ATOM     16  N   UNL     1       7.421   4.734  16.028  0.00  0.00    +0.000 NA
ATOM     17  O   UNL     1       7.613   4.663  14.649  0.00  0.00    +0.000 OA
ATOM     18  C   UNL     1       6.419   4.281  14.103  0.00  0.00    +0.000 A 
ATOM     19  N   UNL     1       5.477   4.101  15.003  0.00  0.00    +0.000 NA
BRANCH  18  20
ATOM     20  C   UNL     1       6.237   4.065  12.610  0.00  0.00    +0.000 C 
ATOM     21  C   UNL     1       6.309   2.650  12.072  0.00  0.00    +0.000 C 
ATOM     22  C   UNL     1       4.996   3.354  12.112  0.00  0.00    +0.000 C 
ENDBRANCH  18  20
ENDBRANCH  14  15
ENDBRANCH   3  14
TORSDOF 5
ENDMDL
MODEL 9
REMARK VINA RESULT:      -6.7      4.360      5.428
REMARK  Name = 
REMARK  6 active torsions:
REMARK  status: ('A' for Active; 'I' for Inactive)
REMARK    1  A    between atoms: C_1  and  C_2
REMARK    2  A    between atoms: N_5  and  C_6
REMARK    3  A    between atoms: C_6  and  C_7
REMARK    4  A    between atoms: N_9  and  C_10
REMARK    5  A    between atoms: C_10  and  C_11
REMARK    6  A    between atoms: C_14  and  C_15
REMARK                            x       y       z     vdW  Elec       q    Type
REMARK                         _______ _______ _______ _____ _____    ______ ____
ROOT
ATOM      1  C   UNL     1       4.506   4.944  17.604  0.00  0.00    +0.000 C 
ATOM      2  C   UNL     1       4.419   5.546  19.026  0.00  0.00    +0.000 C 
ATOM      3  N   UNL     1       3.052   5.975  19.401  0.00  0.00    +0.000 NA
ATOM      4  C   UNL     1       2.148   4.821  19.207  0.00  0.00    +0.000 C 
ATOM      5  C   UNL     1       2.272   4.151  17.825  0.00  0.00    +0.000 C 
ATOM      6  O   UNL     1       3.629   3.797  17.517  0.00  0.00    +0.000 OA
ENDROOT
BRANCH   1   7
ATOM      7  C   UNL     1       5.926   4.484  17.264  0.00  0.00    +0.000 C 
BRANCH   7  12
ATOM      8  C   UNL     1       6.102   3.427  12.377  0.00  0.00    +0.000 C 
ATOM      9  C   UNL     1       6.317   4.038  13.707  0.00  0.00    +0.000 A 
ATOM     10  C   UNL     1       7.300   4.977  14.093  0.00  0.00    +0.000 A 
ATOM     11  N   UNL     1       7.230   5.284  15.390  0.00  0.00    +0.000 NA
ATOM     12  N   UNL     1       6.217   4.533  15.846  0.00  0.00    +0.000 N 
ATOM     13  C   UNL     1       5.609   3.801  14.866  0.00  0.00    +0.000 A 
ENDBRANCH   7  12
ENDBRANCH   1   7
BRANCH   3  14
ATOM     14  C   UNL     1       2.583   7.148  18.625  0.00  0.00    +0.000 C 
BRANCH  14  15
ATOM     15  C   UNL     1       1.817   8.157  19.434  0.00  0.00    +0.000 A 
ATOM     16  N   UNL     1       1.642   7.998  20.754  0.00  0.00    +0.000 NA
ATOM     17  O   UNL     1       0.939   9.142  21.124  0.00  0.00    +0.000 OA
ATOM     18  C   UNL     1       0.763   9.882  19.987  0.00  0.00    +0.000 A 
ATOM     19  N   UNL     1       1.286   9.318  18.921  0.00  0.00    +0.000 NA
BRANCH  18  20
ATOM     20  C   UNL     1       0.057  11.228  19.992  0.00  0.00    +0.000 C 
ATOM     21  C   UNL     1       0.817  12.439  20.495  0.00  0.00    +0.000 C 
ATOM     22  C   UNL     1       0.523  12.309  19.040  0.00  0.00    +0.000 C 
ENDBRANCH  18  20
ENDBRANCH  14  15
ENDBRANCH   3  14
TORSDOF 5
ENDMDL
