MODEL 1
REMARK VINA RESULT:      -8.4      0.000      0.000
REMARK  Name = 
REMARK  4 active torsions:
REMARK  status: ('A' for Active; 'I' for Inactive)
REMARK    1  A    between atoms: S_2  and  N_4
REMARK    2  A    between atoms: S_2  and  C_15
REMARK    3  A    between atoms: N_4  and  C_5
REMARK    4  A    between atoms: C_18  and  N_19
REMARK                            x       y       z     vdW  Elec       q    Type
REMARK                         _______ _______ _______ _____ _____    ______ ____
ROOT
ATOM      1  O   UNL     1       2.074   3.247  16.837  0.00  0.00    +0.000 OA
ATOM      2  S   UNL     1       2.881   3.362  18.138  0.00  0.00    +0.000 S 
ATOM      3  O   UNL     1       2.336   2.171  18.942  0.00  0.00    +0.000 OA
ENDROOT
BRANCH   2   4
ATOM      4  C   UNL     1       2.555   4.940  18.914  0.00  0.00    +0.000 A 
ATOM      5  C   UNL     1       2.832   6.125  18.241  0.00  0.00    +0.000 A 
ATOM      6  C   UNL     1       2.480   7.349  18.808  0.00  0.00    +0.000 A 
ATOM      7  C   UNL     1       1.852   7.415  20.072  0.00  0.00    +0.000 A 
ATOM      8  C   UNL     1       1.627   6.205  20.765  0.00  0.00    +0.000 A 
ATOM      9  C   UNL     1       1.971   4.980  20.183  0.00  0.00    +0.000 A 
BRANCH   7  10
ATOM     10  N   UNL     1       1.418   8.678  20.609  0.00  0.00    +0.000 N 
ATOM     11  C   UNL     1       0.944   9.745  19.735  0.00  0.00    +0.000 C 
ATOM     12  C   UNL     1      -0.502  10.068  20.116  0.00  0.00    +0.000 C 
ATOM     13  N   UNL     1      -0.576  10.435  21.534  0.00  0.00    +0.000 NA
ATOM     14  C   UNL     1      -0.124   9.321  22.383  0.00  0.00    +0.000 C 
ATOM     15  C   UNL     1       1.322   8.951  22.038  0.00  0.00    +0.000 C 
ATOM     16  H   UNL     1      -1.568  10.661  21.775  0.00  0.00    +0.000 HD
ENDBRANCH   7  10
ENDBRANCH   2   4
BRANCH   2  17
ATOM     17  N   UNL     1       4.516   2.903  17.675  0.00  0.00    +0.000 N 
ATOM     18  H   UNL     1       4.517   1.917  17.372  0.00  0.00    +0.000 HD
BRANCH  17  19
ATOM     19  C   UNL     1       5.237   3.793  16.835  0.00  0.00    +0.000 A 
ATOM     20  C   UNL     1       5.078   3.684  15.447  0.00  0.00    +0.000 A 
ATOM     21  C   UNL     1       5.763   4.536  14.585  0.00  0.00    +0.000 A 
ATOM     22  C   UNL     1       6.621   5.505  15.096  0.00  0.00    +0.000 A 
ATOM     23  C   UNL     1       6.798   5.644  16.481  0.00  0.00    +0.000 A 
ATOM     24  C   UNL     1       6.111   4.771  17.368  0.00  0.00    +0.000 A 
ATOM     25  C   UNL     1       6.331   4.862  18.865  0.00  0.00    +0.000 C 
ATOM     26  C   UNL     1       7.580   5.679  19.239  0.00  0.00    +0.000 C 
ATOM     27  C   UNL     1       7.584   6.996  18.482  0.00  0.00    +0.000 C 
ATOM     28  C   UNL     1       7.732   6.726  16.980  0.00  0.00    +0.000 C 
ENDBRANCH  17  19
ENDBRANCH   2  17
TORSDOF 4
ENDMDL
MODEL 2
REMARK VINA RESULT:      -8.2      0.356      1.012
REMARK  Name = 
REMARK  4 active torsions:
REMARK  status: ('A' for Active; 'I' for Inactive)
REMARK    1  A    between atoms: S_2  and  N_4
REMARK    2  A    between atoms: S_2  and  C_15
REMARK    3  A    between atoms: N_4  and  C_5
REMARK    4  A    between atoms: C_18  and  N_19
REMARK                            x       y       z     vdW  Elec       q    Type
REMARK                         _______ _______ _______ _____ _____    ______ ____
ROOT
ATOM      1  O   UNL     1       2.212   2.757  17.387  0.00  0.00    +0.000 OA
ATOM      2  S   UNL     1       3.024   3.214  18.607  0.00  0.00    +0.000 S 
ATOM      3  O   UNL     1       2.724   2.091  19.612  0.00  0.00    +0.000 OA
ENDROOT
BRANCH   2   4
ATOM      4  C   UNL     1       2.447   4.817  19.151  0.00  0.00    +0.000 A 
ATOM      5  C   UNL     1       1.814   4.955  20.382  0.00  0.00    +0.000 A 
ATOM      6  C   UNL     1       1.460   6.222  20.847  0.00  0.00    +0.000 A 
ATOM      7  C   UNL     1       1.723   7.380  20.082  0.00  0.00    +0.000 A 
ATOM      8  C   UNL     1       2.318   7.216  18.811  0.00  0.00    +0.000 A 
ATOM      9  C   UNL     1       2.682   5.943  18.358  0.00  0.00    +0.000 A 
BRANCH   7  10
ATOM     10  N   UNL     1       1.428   8.687  20.608  0.00  0.00    +0.000 N 
ATOM     11  C   UNL     1       1.052   9.786  19.726  0.00  0.00    +0.000 C 
ATOM     12  C   UNL     1      -0.348  10.259  20.122  0.00  0.00    +0.000 C 
ATOM     13  N   UNL     1      -0.363  10.649  21.536  0.00  0.00    +0.000 NA
ATOM     14  C   UNL     1      -0.016   9.505  22.393  0.00  0.00    +0.000 C 
ATOM     15  C   UNL     1       1.380   8.986  22.035  0.00  0.00    +0.000 C 
ATOM     16  H   UNL     1      -1.324  10.978  21.786  0.00  0.00    +0.000 HD
ENDBRANCH   7  10
ENDBRANCH   2   4
BRANCH   2  17
ATOM     17  N   UNL     1       4.700   2.973  18.126  0.00  0.00    +0.000 N 
ATOM     18  H   UNL     1       4.854   1.973  17.926  0.00  0.00    +0.000 HD
BRANCH  17  19
ATOM     19  C   UNL     1       5.247   3.870  17.170  0.00  0.00    +0.000 A 
ATOM     20  C   UNL     1       4.883   3.722  15.825  0.00  0.00    +0.000 A 
ATOM     21  C   UNL     1       5.392   4.581  14.853  0.00  0.00    +0.000 A 
ATOM     22  C   UNL     1       6.276   5.594  15.210  0.00  0.00    +0.000 A 
ATOM     23  C   UNL     1       6.657   5.772  16.549  0.00  0.00    +0.000 A 
ATOM     24  C   UNL     1       6.150   4.895  17.546  0.00  0.00    +0.000 A 
ATOM     25  C   UNL     1       6.591   5.029  18.990  0.00  0.00    +0.000 C 
ATOM     26  C   UNL     1       7.848   5.902  19.154  0.00  0.00    +0.000 C 
ATOM     27  C   UNL     1       7.681   7.200  18.383  0.00  0.00    +0.000 C 
ATOM     28  C   UNL     1       7.609   6.901  16.881  0.00  0.00    +0.000 C 
ENDBRANCH  17  19
ENDBRANCH   2  17
TORSDOF 4
ENDMDL
MODEL 3
REMARK VINA RESULT:      -8.2      1.133      1.299
REMARK  Name = 
REMARK  4 active torsions:
REMARK  status: ('A' for Active; 'I' for Inactive)
REMARK    1  A    between atoms: S_2  and  N_4
REMARK    2  A    between atoms: S_2  and  C_15
REMARK    3  A    between atoms: N_4  and  C_5
REMARK    4  A    between atoms: C_18  and  N_19
REMARK                            x       y       z     vdW  Elec       q    Type
REMARK                         _______ _______ _______ _____ _____    ______ ____
ROOT
ATOM      1  O   UNL     1       1.944   2.998  18.791  0.00  0.00    +0.000 OA
ATOM      2  S   UNL     1       3.026   3.802  19.526  0.00  0.00    +0.000 S 
ATOM      3  O   UNL     1       3.006   3.143  20.913  0.00  0.00    +0.000 OA
ENDROOT
BRANCH   2   4
ATOM      4  C   UNL     1       2.573   5.531  19.563  0.00  0.00    +0.000 A 
ATOM      5  C   UNL     1       2.736   6.326  18.433  0.00  0.00    +0.000 A 
ATOM      6  C   UNL     1       2.285   7.645  18.436  0.00  0.00    +0.000 A 
ATOM      7  C   UNL     1       1.669   8.204  19.578  0.00  0.00    +0.000 A 
ATOM      8  C   UNL     1       1.560   7.400  20.735  0.00  0.00    +0.000 A 
ATOM      9  C   UNL     1       2.004   6.073  20.719  0.00  0.00    +0.000 A 
BRANCH   7  10
ATOM     10  N   UNL     1       1.133   9.540  19.542  0.00  0.00    +0.000 N 
ATOM     11  C   UNL     1       0.707  10.145  18.285  0.00  0.00    +0.000 C 
ATOM     12  C   UNL     1      -0.782  10.479  18.396  0.00  0.00    +0.000 C 
ATOM     13  N   UNL     1      -1.013  11.360  19.546  0.00  0.00    +0.000 NA
ATOM     14  C   UNL     1      -0.605  10.700  20.796  0.00  0.00    +0.000 C 
ATOM     15  C   UNL     1       0.882  10.337  20.737  0.00  0.00    +0.000 C 
ATOM     16  H   UNL     1      -2.032  11.585  19.601  0.00  0.00    +0.000 HD
ENDBRANCH   7  10
ENDBRANCH   2   4
BRANCH   2  17
ATOM     17  N   UNL     1       4.534   3.279  18.783  0.00  0.00    +0.000 N 
ATOM     18  H   UNL     1       4.494   2.262  18.617  0.00  0.00    +0.000 HD
BRANCH  17  19
ATOM     19  C   UNL     1       5.035   4.047  17.698  0.00  0.00    +0.000 A 
ATOM     20  C   UNL     1       4.516   3.818  16.417  0.00  0.00    +0.000 A 
ATOM     21  C   UNL     1       4.975   4.549  15.323  0.00  0.00    +0.000 A 
ATOM     22  C   UNL     1       5.963   5.514  15.494  0.00  0.00    +0.000 A 
ATOM     23  C   UNL     1       6.500   5.771  16.764  0.00  0.00    +0.000 A 
ATOM     24  C   UNL     1       6.044   5.023  17.884  0.00  0.00    +0.000 A 
ATOM     25  C   UNL     1       6.650   5.241  19.256  0.00  0.00    +0.000 C 
ATOM     26  C   UNL     1       7.975   6.020  19.210  0.00  0.00    +0.000 C 
ATOM     27  C   UNL     1       7.818   7.259  18.345  0.00  0.00    +0.000 C 
ATOM     28  C   UNL     1       7.561   6.843  16.892  0.00  0.00    +0.000 C 
ENDBRANCH  17  19
ENDBRANCH   2  17
TORSDOF 4
ENDMDL
MODEL 4
REMARK VINA RESULT:      -8.2      1.070      2.447
REMARK  Name = 
REMARK  4 active torsions:
REMARK  status: ('A' for Active; 'I' for Inactive)
REMARK    1  A    between atoms: S_2  and  N_4
REMARK    2  A    between atoms: S_2  and  C_15
REMARK    3  A    between atoms: N_4  and  C_5
REMARK    4  A    between atoms: C_18  and  N_19
REMARK                            x       y       z     vdW  Elec       q    Type
REMARK                         _______ _______ _______ _____ _____    ______ ____
ROOT
ATOM      1  O   UNL     1       2.692   3.068  18.032  0.00  0.00    +0.000 OA
ATOM      2  S   UNL     1       3.430   3.772  19.179  0.00  0.00    +0.000 S 
ATOM      3  O   UNL     1       3.015   2.912  20.383  0.00  0.00    +0.000 OA
ENDROOT
BRANCH   2   4
ATOM      4  C   UNL     1       2.877   5.468  19.304  0.00  0.00    +0.000 A 
ATOM      5  C   UNL     1       3.047   6.343  18.236  0.00  0.00    +0.000 A 
ATOM      6  C   UNL     1       2.521   7.633  18.300  0.00  0.00    +0.000 A 
ATOM      7  C   UNL     1       1.820   8.080  19.442  0.00  0.00    +0.000 A 
ATOM      8  C   UNL     1       1.702   7.196  20.538  0.00  0.00    +0.000 A 
ATOM      9  C   UNL     1       2.222   5.899  20.461  0.00  0.00    +0.000 A 
BRANCH   7  10
ATOM     10  N   UNL     1       1.210   9.384  19.463  0.00  0.00    +0.000 N 
ATOM     11  C   UNL     1       0.801  10.044  18.228  0.00  0.00    +0.000 C 
ATOM     12  C   UNL     1      -0.707  10.287  18.293  0.00  0.00    +0.000 C 
ATOM     13  N   UNL     1      -1.036  11.080  19.483  0.00  0.00    +0.000 NA
ATOM     14  C   UNL     1      -0.642  10.365  20.707  0.00  0.00    +0.000 C 
ATOM     15  C   UNL     1       0.865  10.089  20.692  0.00  0.00    +0.000 C 
ATOM     16  H   UNL     1      -2.068  11.245  19.506  0.00  0.00    +0.000 HD
ENDBRANCH   7  10
ENDBRANCH   2   4
BRANCH   2  17
ATOM     17  N   UNL     1       5.126   3.393  18.900  0.00  0.00    +0.000 N 
ATOM     18  H   UNL     1       5.196   2.473  18.440  0.00  0.00    +0.000 HD
BRANCH  17  19
ATOM     19  C   UNL     1       5.945   4.411  18.339  0.00  0.00    +0.000 A 
ATOM     20  C   UNL     1       6.585   5.309  19.202  0.00  0.00    +0.000 A 
ATOM     21  C   UNL     1       7.399   6.321  18.698  0.00  0.00    +0.000 A 
ATOM     22  C   UNL     1       7.579   6.453  17.325  0.00  0.00    +0.000 A 
ATOM     23  C   UNL     1       6.956   5.566  16.434  0.00  0.00    +0.000 A 
ATOM     24  C   UNL     1       6.116   4.537  16.939  0.00  0.00    +0.000 A 
ATOM     25  C   UNL     1       5.385   3.603  15.994  0.00  0.00    +0.000 C 
ATOM     26  C   UNL     1       5.357   4.118  14.545  0.00  0.00    +0.000 C 
ATOM     27  C   UNL     1       6.753   4.541  14.119  0.00  0.00    +0.000 C 
ATOM     28  C   UNL     1       7.201   5.748  14.951  0.00  0.00    +0.000 C 
ENDBRANCH  17  19
ENDBRANCH   2  17
TORSDOF 4
ENDMDL
MODEL 5
REMARK VINA RESULT:      -8.2      1.018      2.576
REMARK  Name = 
REMARK  4 active torsions:
REMARK  status: ('A' for Active; 'I' for Inactive)
REMARK    1  A    between atoms: S_2  and  N_4
REMARK    2  A    between atoms: S_2  and  C_15
REMARK    3  A    between atoms: N_4  and  C_5
REMARK    4  A    between atoms: C_18  and  N_19
REMARK                            x       y       z     vdW  Elec       q    Type
REMARK                         _______ _______ _______ _____ _____    ______ ____
ROOT
ATOM      1  O   UNL     1       3.031   2.685  17.955  0.00  0.00    +0.000 OA
ATOM      2  S   UNL     1       3.654   3.477  19.113  0.00  0.00    +0.000 S 
ATOM      3  O   UNL     1       3.323   2.576  20.313  0.00  0.00    +0.000 OA
ENDROOT
BRANCH   2   4
ATOM      4  C   UNL     1       2.894   5.092  19.218  0.00  0.00    +0.000 A 
ATOM      5  C   UNL     1       2.237   5.487  20.379  0.00  0.00    +0.000 A 
ATOM      6  C   UNL     1       1.737   6.783  20.493  0.00  0.00    +0.000 A 
ATOM      7  C   UNL     1       1.875   7.714  19.439  0.00  0.00    +0.000 A 
ATOM      8  C   UNL     1       2.498   7.281  18.247  0.00  0.00    +0.000 A 
ATOM      9  C   UNL     1       3.008   5.982  18.146  0.00  0.00    +0.000 A 
BRANCH   7  10
ATOM     10  N   UNL     1       1.429   9.074  19.600  0.00  0.00    +0.000 N 
ATOM     11  C   UNL     1       1.268   9.954  18.449  0.00  0.00    +0.000 C 
ATOM     12  C   UNL     1      -0.196  10.393  18.384  0.00  0.00    +0.000 C 
ATOM     13  N   UNL     1      -0.579  11.044  19.641  0.00  0.00    +0.000 NA
ATOM     14  C   UNL     1      -0.438  10.113  20.772  0.00  0.00    +0.000 C 
ATOM     15  C   UNL     1       1.013   9.635  20.880  0.00  0.00    +0.000 C 
ATOM     16  H   UNL     1      -1.578  11.346  19.576  0.00  0.00    +0.000 HD
ENDBRANCH   7  10
ENDBRANCH   2   4
BRANCH   2  17
ATOM     17  N   UNL     1       5.389   3.309  18.869  0.00  0.00    +0.000 N 
ATOM     18  H   UNL     1       5.583   2.389  18.446  0.00  0.00    +0.000 HD
BRANCH  17  19
ATOM     19  C   UNL     1       6.080   4.401  18.278  0.00  0.00    +0.000 A 
ATOM     20  C   UNL     1       6.640   5.374  19.117  0.00  0.00    +0.000 A 
ATOM     21  C   UNL     1       7.328   6.461  18.583  0.00  0.00    +0.000 A 
ATOM     22  C   UNL     1       7.461   6.594  17.204  0.00  0.00    +0.000 A 
ATOM     23  C   UNL     1       6.916   5.635  16.338  0.00  0.00    +0.000 A 
ATOM     24  C   UNL     1       6.204   4.528  16.873  0.00  0.00    +0.000 A 
ATOM     25  C   UNL     1       5.556   3.510  15.956  0.00  0.00    +0.000 C 
ATOM     26  C   UNL     1       5.439   4.000  14.503  0.00  0.00    +0.000 C 
ATOM     27  C   UNL     1       6.771   4.565  14.039  0.00  0.00    +0.000 C 
ATOM     28  C   UNL     1       7.106   5.824  14.847  0.00  0.00    +0.000 C 
ENDBRANCH  17  19
ENDBRANCH   2  17
TORSDOF 4
ENDMDL
MODEL 6
REMARK VINA RESULT:      -8.1      0.660      2.201
REMARK  Name = 
REMARK  4 active torsions:
REMARK  status: ('A' for Active; 'I' for Inactive)
REMARK    1  A    between atoms: S_2  and  N_4
REMARK    2  A    between atoms: S_2  and  C_15
REMARK    3  A    between atoms: N_4  and  C_5
REMARK    4  A    between atoms: C_18  and  N_19
REMARK                            x       y       z     vdW  Elec       q    Type
REMARK                         _______ _______ _______ _____ _____    ______ ____
ROOT
ATOM      1  O   UNL     1       2.093   3.570  17.092  0.00  0.00    +0.000 OA
ATOM      2  S   UNL     1       2.708   3.681  18.495  0.00  0.00    +0.000 S 
ATOM      3  O   UNL     1       1.971   2.557  19.240  0.00  0.00    +0.000 OA
ENDROOT
BRANCH   2   4
ATOM      4  C   UNL     1       2.382   5.303  19.171  0.00  0.00    +0.000 A 
ATOM      5  C   UNL     1       2.611   6.443  18.407  0.00  0.00    +0.000 A 
ATOM      6  C   UNL     1       2.257   7.698  18.901  0.00  0.00    +0.000 A 
ATOM      7  C   UNL     1       1.676   7.841  20.181  0.00  0.00    +0.000 A 
ATOM      8  C   UNL     1       1.500   6.680  20.965  0.00  0.00    +0.000 A 
ATOM      9  C   UNL     1       1.845   5.422  20.456  0.00  0.00    +0.000 A 
BRANCH   7  10
ATOM     10  N   UNL     1       1.239   9.132  20.646  0.00  0.00    +0.000 N 
ATOM     11  C   UNL     1       0.847  10.177  19.706  0.00  0.00    +0.000 C 
ATOM     12  C   UNL     1      -0.612  10.545  19.982  0.00  0.00    +0.000 C 
ATOM     13  N   UNL     1      -0.768  10.963  21.379  0.00  0.00    +0.000 NA
ATOM     14  C   UNL     1      -0.398   9.871  22.293  0.00  0.00    +0.000 C 
ATOM     15  C   UNL     1       1.058   9.458  22.055  0.00  0.00    +0.000 C 
ATOM     16  H   UNL     1      -1.768  11.220  21.547  0.00  0.00    +0.000 HD
ENDBRANCH   7  10
ENDBRANCH   2   4
BRANCH   2  17
ATOM     17  N   UNL     1       4.357   3.101  18.291  0.00  0.00    +0.000 N 
ATOM     18  H   UNL     1       4.356   2.297  17.646  0.00  0.00    +0.000 HD
BRANCH  17  19
ATOM     19  C   UNL     1       5.370   4.067  18.048  0.00  0.00    +0.000 A 
ATOM     20  C   UNL     1       5.911   4.762  19.138  0.00  0.00    +0.000 A 
ATOM     21  C   UNL     1       6.908   5.716  18.949  0.00  0.00    +0.000 A 
ATOM     22  C   UNL     1       7.373   5.995  17.668  0.00  0.00    +0.000 A 
ATOM     23  C   UNL     1       6.856   5.313  16.556  0.00  0.00    +0.000 A 
ATOM     24  C   UNL     1       5.831   4.345  16.739  0.00  0.00    +0.000 A 
ATOM     25  C   UNL     1       5.215   3.638  15.548  0.00  0.00    +0.000 C 
ATOM     26  C   UNL     1       5.532   4.329  14.210  0.00  0.00    +0.000 C 
ATOM     27  C   UNL     1       7.020   4.620  14.118  0.00  0.00    +0.000 C 
ATOM     28  C   UNL     1       7.411   5.647  15.187  0.00  0.00    +0.000 C 
ENDBRANCH  17  19
ENDBRANCH   2  17
TORSDOF 4
ENDMDL
MODEL 7
REMARK VINA RESULT:      -8.1      0.566      2.375
REMARK  Name = 
REMARK  4 active torsions:
REMARK  status: ('A' for Active; 'I' for Inactive)
REMARK    1  A    between atoms: S_2  and  N_4
REMARK    2  A    between atoms: S_2  and  C_15
REMARK    3  A    between atoms: N_4  and  C_5
REMARK    4  A    between atoms: C_18  and  N_19
REMARK                            x       y       z     vdW  Elec       q    Type
REMARK                         _______ _______ _______ _____ _____    ______ ____
ROOT
ATOM      1  O   UNL     1       2.397   3.244  16.987  0.00  0.00    +0.000 OA
ATOM      2  S   UNL     1       2.899   3.426  18.426  0.00  0.00    +0.000 S 
ATOM      3  O   UNL     1       2.248   2.226  19.131  0.00  0.00    +0.000 OA
ENDROOT
BRANCH   2   4
ATOM      4  C   UNL     1       2.346   5.001  19.065  0.00  0.00    +0.000 A 
ATOM      5  C   UNL     1       1.767   5.084  20.327  0.00  0.00    +0.000 A 
ATOM      6  C   UNL     1       1.434   6.328  20.862  0.00  0.00    +0.000 A 
ATOM      7  C   UNL     1       1.662   7.519  20.138  0.00  0.00    +0.000 A 
ATOM      8  C   UNL     1       2.200   7.413  18.837  0.00  0.00    +0.000 A 
ATOM      9  C   UNL     1       2.544   6.162  18.312  0.00  0.00    +0.000 A 
BRANCH   7  10
ATOM     10  N   UNL     1       1.390   8.802  20.734  0.00  0.00    +0.000 N 
ATOM     11  C   UNL     1       0.953   9.931  19.921  0.00  0.00    +0.000 C 
ATOM     12  C   UNL     1      -0.424  10.375  20.419  0.00  0.00    +0.000 C 
ATOM     13  N   UNL     1      -0.357  10.707  21.846  0.00  0.00    +0.000 NA
ATOM     14  C   UNL     1       0.050   9.533  22.634  0.00  0.00    +0.000 C 
ATOM     15  C   UNL     1       1.425   9.042  22.172  0.00  0.00    +0.000 C 
ATOM     16  H   UNL     1      -1.303  11.016  22.167  0.00  0.00    +0.000 HD
ENDBRANCH   7  10
ENDBRANCH   2   4
BRANCH   2  17
ATOM     17  N   UNL     1       4.614   3.039  18.338  0.00  0.00    +0.000 N 
ATOM     18  H   UNL     1       4.739   2.184  17.775  0.00  0.00    +0.000 HD
BRANCH  17  19
ATOM     19  C   UNL     1       5.514   4.096  18.035  0.00  0.00    +0.000 A 
ATOM     20  C   UNL     1       5.994   4.891  19.084  0.00  0.00    +0.000 A 
ATOM     21  C   UNL     1       6.879   5.937  18.835  0.00  0.00    +0.000 A 
ATOM     22  C   UNL     1       7.292   6.208  17.535  0.00  0.00    +0.000 A 
ATOM     23  C   UNL     1       6.833   5.428  16.462  0.00  0.00    +0.000 A 
ATOM     24  C   UNL     1       5.922   4.364  16.705  0.00  0.00    +0.000 A 
ATOM     25  C   UNL     1       5.367   3.545  15.558  0.00  0.00    +0.000 C 
ATOM     26  C   UNL     1       5.587   4.207  14.187  0.00  0.00    +0.000 C 
ATOM     27  C   UNL     1       7.033   4.651  14.052  0.00  0.00    +0.000 C 
ATOM     28  C   UNL     1       7.329   5.759  15.070  0.00  0.00    +0.000 C 
ENDBRANCH  17  19
ENDBRANCH   2  17
TORSDOF 4
ENDMDL
MODEL 8
REMARK VINA RESULT:      -8.0      1.280      2.758
REMARK  Name = 
REMARK  4 active torsions:
REMARK  status: ('A' for Active; 'I' for Inactive)
REMARK    1  A    between atoms: S_2  and  N_4
REMARK    2  A    between atoms: S_2  and  C_15
REMARK    3  A    between atoms: N_4  and  C_5
REMARK    4  A    between atoms: C_18  and  N_19
REMARK                            x       y       z     vdW  Elec       q    Type
REMARK                         _______ _______ _______ _____ _____    ______ ____
ROOT
ATOM      1  O   UNL     1       2.694   3.064  18.257  0.00  0.00    +0.000 OA
ATOM      2  S   UNL     1       3.470   3.873  19.306  0.00  0.00    +0.000 S 
ATOM      3  O   UNL     1       3.123   3.113  20.595  0.00  0.00    +0.000 OA
ENDROOT
BRANCH   2   4
ATOM      4  C   UNL     1       2.894   5.566  19.312  0.00  0.00    +0.000 A 
ATOM      5  C   UNL     1       3.093   6.381  18.202  0.00  0.00    +0.000 A 
ATOM      6  C   UNL     1       2.550   7.665  18.173  0.00  0.00    +0.000 A 
ATOM      7  C   UNL     1       1.804   8.168  19.262  0.00  0.00    +0.000 A 
ATOM      8  C   UNL     1       1.657   7.347  20.402  0.00  0.00    +0.000 A 
ATOM      9  C   UNL     1       2.193   6.054  20.419  0.00  0.00    +0.000 A 
BRANCH   7  10
ATOM     10  N   UNL     1       1.179   9.463  19.185  0.00  0.00    +0.000 N 
ATOM     11  C   UNL     1       0.317   9.946  20.257  0.00  0.00    +0.000 C 
ATOM     12  C   UNL     1       0.928  11.231  20.820  0.00  0.00    +0.000 C 
ATOM     13  N   UNL     1       1.092  12.218  19.748  0.00  0.00    +0.000 NA
ATOM     14  C   UNL     1       1.997  11.708  18.706  0.00  0.00    +0.000 C 
ATOM     15  C   UNL     1       1.434  10.414  18.110  0.00  0.00    +0.000 C 
ATOM     16  H   UNL     1       1.501  13.092  20.152  0.00  0.00    +0.000 HD
ENDBRANCH   7  10
ENDBRANCH   2   4
BRANCH   2  17
ATOM     17  N   UNL     1       5.158   3.495  18.982  0.00  0.00    +0.000 N 
ATOM     18  H   UNL     1       5.219   2.561  18.549  0.00  0.00    +0.000 HD
BRANCH  17  19
ATOM     19  C   UNL     1       5.951   4.498  18.362  0.00  0.00    +0.000 A 
ATOM     20  C   UNL     1       6.603   5.435  19.174  0.00  0.00    +0.000 A 
ATOM     21  C   UNL     1       7.393   6.435  18.612  0.00  0.00    +0.000 A 
ATOM     22  C   UNL     1       7.538   6.516  17.230  0.00  0.00    +0.000 A 
ATOM     23  C   UNL     1       6.903   5.589  16.390  0.00  0.00    +0.000 A 
ATOM     24  C   UNL     1       6.086   4.571  16.954  0.00  0.00    +0.000 A 
ATOM     25  C   UNL     1       5.343   3.595  16.065  0.00  0.00    +0.000 C 
ATOM     26  C   UNL     1       5.274   4.053  14.598  0.00  0.00    +0.000 C 
ATOM     27  C   UNL     1       6.654   4.474  14.122  0.00  0.00    +0.000 C 
ATOM     28  C   UNL     1       7.109   5.717  14.895  0.00  0.00    +0.000 C 
ENDBRANCH  17  19
ENDBRANCH   2  17
TORSDOF 4
ENDMDL
MODEL 9
REMARK VINA RESULT:      -8.0      1.749      2.239
REMARK  Name = 
REMARK  4 active torsions:
REMARK  status: ('A' for Active; 'I' for Inactive)
REMARK    1  A    between atoms: S_2  and  N_4
REMARK    2  A    between atoms: S_2  and  C_15
REMARK    3  A    between atoms: N_4  and  C_5
REMARK    4  A    between atoms: C_18  and  N_19
REMARK                            x       y       z     vdW  Elec       q    Type
REMARK                         _______ _______ _______ _____ _____    ______ ____
ROOT
ATOM      1  O   UNL     1       1.413   3.680  19.436  0.00  0.00    +0.000 OA
ATOM      2  S   UNL     1       2.544   4.545  20.009  0.00  0.00    +0.000 S 
ATOM      3  O   UNL     1       2.427   4.244  21.511  0.00  0.00    +0.000 OA
ENDROOT
BRANCH   2   4
ATOM      4  C   UNL     1       2.251   6.264  19.613  0.00  0.00    +0.000 A 
ATOM      5  C   UNL     1       2.493   6.741  18.329  0.00  0.00    +0.000 A 
ATOM      6  C   UNL     1       2.165   8.055  17.999  0.00  0.00    +0.000 A 
ATOM      7  C   UNL     1       1.596   8.928  18.953  0.00  0.00    +0.000 A 
ATOM      8  C   UNL     1       1.408   8.444  20.267  0.00  0.00    +0.000 A 
ATOM      9  C   UNL     1       1.727   7.119  20.587  0.00  0.00    +0.000 A 
BRANCH   7  10
ATOM     10  N   UNL     1       1.186  10.256  18.578  0.00  0.00    +0.000 N 
ATOM     11  C   UNL     1      -0.222  10.638  18.584  0.00  0.00    +0.000 C 
ATOM     12  C   UNL     1      -0.399  11.794  19.569  0.00  0.00    +0.000 C 
ATOM     13  N   UNL     1       0.480  12.908  19.197  0.00  0.00    +0.000 NA
ATOM     14  C   UNL     1       1.890  12.493  19.239  0.00  0.00    +0.000 C 
ATOM     15  C   UNL     1       2.124  11.329  18.271  0.00  0.00    +0.000 C 
ATOM     16  H   UNL     1       0.339  13.692  19.874  0.00  0.00    +0.000 HD
ENDBRANCH   7  10
ENDBRANCH   2   4
BRANCH   2  17
ATOM     17  N   UNL     1       4.016   3.735  19.485  0.00  0.00    +0.000 N 
ATOM     18  H   UNL     1       3.907   2.718  19.614  0.00  0.00    +0.000 HD
BRANCH  17  19
ATOM     19  C   UNL     1       4.578   4.128  18.241  0.00  0.00    +0.000 A 
ATOM     20  C   UNL     1       3.994   3.651  17.060  0.00  0.00    +0.000 A 
ATOM     21  C   UNL     1       4.508   4.012  15.817  0.00  0.00    +0.000 A 
ATOM     22  C   UNL     1       5.616   4.849  15.736  0.00  0.00    +0.000 A 
ATOM     23  C   UNL     1       6.221   5.348  16.900  0.00  0.00    +0.000 A 
ATOM     24  C   UNL     1       5.709   4.977  18.173  0.00  0.00    +0.000 A 
ATOM     25  C   UNL     1       6.380   5.456  19.445  0.00  0.00    +0.000 C 
ATOM     26  C   UNL     1       7.793   6.015  19.203  0.00  0.00    +0.000 C 
ATOM     27  C   UNL     1       7.768   7.003  18.048  0.00  0.00    +0.000 C 
ATOM     28  C   UNL     1       7.414   6.268  16.750  0.00  0.00    +0.000 C 
ENDBRANCH  17  19
ENDBRANCH   2  17
TORSDOF 4
ENDMDL
