MODEL 1
REMARK VINA RESULT:      -7.7      0.000      0.000
REMARK  Name = 
REMARK  8 active torsions:
REMARK  status: ('A' for Active; 'I' for Inactive)
REMARK    1  A    between atoms: C_1  and  C_2
REMARK    2  A    between atoms: C_2  and  C_3
REMARK    3  A    between atoms: C_2  and  O_4
REMARK    4  A    between atoms: C_2  and  C_5
REMARK    5  A    between atoms: C_6  and  C_7
REMARK    6  A    between atoms: C_7  and  O_8
REMARK    7  A    between atoms: C_7  and  C_9
REMARK    8  A    between atoms: C_7  and  C_15
REMARK                            x       y       z     vdW  Elec       q    Type
REMARK                         _______ _______ _______ _____ _____    ______ ____
ROOT
ATOM      1  C   UNL     1       2.939   5.730  18.649  0.00  0.00    +0.000 C 
ENDROOT
BRANCH   1   2
ATOM      2  C   UNL     1       2.427   7.168  18.836  0.00  0.00    +0.000 A 
ATOM      3  C   UNL     1       1.854   7.594  20.051  0.00  0.00    +0.000 A 
ATOM      4  C   UNL     1       1.291   8.868  20.184  0.00  0.00    +0.000 A 
ATOM      5  C   UNL     1       1.294   9.742  19.102  0.00  0.00    +0.000 A 
ATOM      6 CL   UNL     1       0.565  11.293  19.251  0.00  0.00    +0.000 Cl
ATOM      7  C   UNL     1       1.872   9.361  17.896  0.00  0.00    +0.000 A 
ATOM      8  C   UNL     1       2.436   8.086  17.765  0.00  0.00    +0.000 A 
ENDBRANCH   1   2
BRANCH   1   9
ATOM      9  C   UNL     1       2.330   4.713  19.625  0.00  0.00    +0.000 A 
ATOM     10  C   UNL     1       2.871   4.513  20.912  0.00  0.00    +0.000 A 
ATOM     11  C   UNL     1       2.407   3.492  21.743  0.00  0.00    +0.000 A 
ATOM     12  C   UNL     1       1.382   2.658  21.311  0.00  0.00    +0.000 A 
ATOM     13  C   UNL     1       0.797   2.864  20.064  0.00  0.00    +0.000 A 
ATOM     14  C   UNL     1       1.257   3.891  19.233  0.00  0.00    +0.000 A 
ENDBRANCH   1   9
BRANCH   1  16
ATOM     15  C   UNL     1       5.719   5.690  18.774  0.00  0.00    +0.000 C 
ATOM     16  C   UNL     1       4.416   5.706  18.737  0.00  0.00    +0.000 C 
BRANCH  15  18
ATOM     17  C   UNL     1       7.779   7.019  18.340  0.00  0.00    +0.000 C 
ATOM     18  C   UNL     1       7.238   5.673  18.818  0.00  0.00    +0.000 C 
ATOM     19  C   UNL     1       7.766   4.527  17.960  0.00  0.00    +0.000 C 
BRANCH  18  20
ATOM     20  O   UNL     1       7.636   5.469  20.170  0.00  0.00    +0.000 OA
ATOM     21  H   UNL     1       8.071   6.283  20.473  0.00  0.00    +0.000 HD
ENDBRANCH  18  20
ENDBRANCH  15  18
ENDBRANCH   1  16
BRANCH   1  22
ATOM     22  O   UNL     1       2.635   5.295  17.315  0.00  0.00    +0.000 OA
ATOM     23  H   UNL     1       3.412   4.780  17.033  0.00  0.00    +0.000 HD
ENDBRANCH   1  22
TORSDOF 6
ENDMDL
MODEL 2
REMARK VINA RESULT:      -7.7      0.171      1.066
REMARK  Name = 
REMARK  8 active torsions:
REMARK  status: ('A' for Active; 'I' for Inactive)
REMARK    1  A    between atoms: C_1  and  C_2
REMARK    2  A    between atoms: C_2  and  C_3
REMARK    3  A    between atoms: C_2  and  O_4
REMARK    4  A    between atoms: C_2  and  C_5
REMARK    5  A    between atoms: C_6  and  C_7
REMARK    6  A    between atoms: C_7  and  O_8
REMARK    7  A    between atoms: C_7  and  C_9
REMARK    8  A    between atoms: C_7  and  C_15
REMARK                            x       y       z     vdW  Elec       q    Type
REMARK                         _______ _______ _______ _____ _____    ______ ____
ROOT
ATOM      1  C   UNL     1       3.042   5.671  18.607  0.00  0.00    +0.000 C 
ENDROOT
BRANCH   1   2
ATOM      2  C   UNL     1       2.475   7.077  18.870  0.00  0.00    +0.000 A 
ATOM      3  C   UNL     1       1.928   7.428  20.120  0.00  0.00    +0.000 A 
ATOM      4  C   UNL     1       1.316   8.670  20.324  0.00  0.00    +0.000 A 
ATOM      5  C   UNL     1       1.242   9.585  19.279  0.00  0.00    +0.000 A 
ATOM      6 CL   UNL     1       0.453  11.095  19.516  0.00  0.00    +0.000 Cl
ATOM      7  C   UNL     1       1.792   9.277  18.040  0.00  0.00    +0.000 A 
ATOM      8  C   UNL     1       2.406   8.036  17.838  0.00  0.00    +0.000 A 
ENDBRANCH   1   2
BRANCH   1   9
ATOM      9  C   UNL     1       2.461   4.578  19.515  0.00  0.00    +0.000 A 
ATOM     10  C   UNL     1       1.365   3.788  19.106  0.00  0.00    +0.000 A 
ATOM     11  C   UNL     1       0.749   2.894  19.983  0.00  0.00    +0.000 A 
ATOM     12  C   UNL     1       1.224   2.758  21.282  0.00  0.00    +0.000 A 
ATOM     13  C   UNL     1       2.335   3.490  21.697  0.00  0.00    +0.000 A 
ATOM     14  C   UNL     1       2.957   4.382  20.817  0.00  0.00    +0.000 A 
ENDBRANCH   1   9
BRANCH   1  16
ATOM     15  C   UNL     1       5.820   5.691  18.774  0.00  0.00    +0.000 C 
ATOM     16  C   UNL     1       4.518   5.696  18.712  0.00  0.00    +0.000 C 
BRANCH  15  18
ATOM     17  C   UNL     1       7.878   7.033  18.368  0.00  0.00    +0.000 C 
ATOM     18  C   UNL     1       7.338   5.686  18.845  0.00  0.00    +0.000 C 
ATOM     19  C   UNL     1       7.891   4.538  18.005  0.00  0.00    +0.000 C 
BRANCH  18  20
ATOM     20  O   UNL     1       7.713   5.494  20.206  0.00  0.00    +0.000 OA
ATOM     21  H   UNL     1       8.625   5.812  20.305  0.00  0.00    +0.000 HD
ENDBRANCH  18  20
ENDBRANCH  15  18
ENDBRANCH   1  16
BRANCH   1  22
ATOM     22  O   UNL     1       2.768   5.303  17.246  0.00  0.00    +0.000 OA
ATOM     23  H   UNL     1       1.809   5.431  17.137  0.00  0.00    +0.000 HD
ENDBRANCH   1  22
TORSDOF 6
ENDMDL
MODEL 3
REMARK VINA RESULT:      -7.6      3.089      5.320
REMARK  Name = 
REMARK  8 active torsions:
REMARK  status: ('A' for Active; 'I' for Inactive)
REMARK    1  A    between atoms: C_1  and  C_2
REMARK    2  A    between atoms: C_2  and  C_3
REMARK    3  A    between atoms: C_2  and  O_4
REMARK    4  A    between atoms: C_2  and  C_5
REMARK    5  A    between atoms: C_6  and  C_7
REMARK    6  A    between atoms: C_7  and  O_8
REMARK    7  A    between atoms: C_7  and  C_9
REMARK    8  A    between atoms: C_7  and  C_15
REMARK                            x       y       z     vdW  Elec       q    Type
REMARK                         _______ _______ _______ _____ _____    ______ ____
ROOT
ATOM      1  C   UNL     1       3.259   5.905  18.773  0.00  0.00    +0.000 C 
ENDROOT
BRANCH   1   2
ATOM      2  C   UNL     1       4.075   5.602  17.505  0.00  0.00    +0.000 A 
ATOM      3  C   UNL     1       4.493   4.292  17.194  0.00  0.00    +0.000 A 
ATOM      4  C   UNL     1       5.326   4.034  16.100  0.00  0.00    +0.000 A 
ATOM      5  C   UNL     1       5.753   5.084  15.293  0.00  0.00    +0.000 A 
ATOM      6 CL   UNL     1       6.811   4.773  13.972  0.00  0.00    +0.000 Cl
ATOM      7  C   UNL     1       5.340   6.384  15.559  0.00  0.00    +0.000 A 
ATOM      8  C   UNL     1       4.506   6.640  16.654  0.00  0.00    +0.000 A 
ENDBRANCH   1   2
BRANCH   1   9
ATOM      9  C   UNL     1       2.277   4.794  19.171  0.00  0.00    +0.000 A 
ATOM     10  C   UNL     1       2.095   4.421  20.520  0.00  0.00    +0.000 A 
ATOM     11  C   UNL     1       1.311   3.321  20.868  0.00  0.00    +0.000 A 
ATOM     12  C   UNL     1       0.679   2.578  19.877  0.00  0.00    +0.000 A 
ATOM     13  C   UNL     1       0.803   2.953  18.541  0.00  0.00    +0.000 A 
ATOM     14  C   UNL     1       1.583   4.059  18.192  0.00  0.00    +0.000 A 
ENDBRANCH   1   9
BRANCH   1  16
ATOM     15  C   UNL     1       1.949   8.341  18.462  0.00  0.00    +0.000 C 
ATOM     16  C   UNL     1       2.545   7.192  18.617  0.00  0.00    +0.000 C 
BRANCH  15  18
ATOM     17  C   UNL     1       1.147  10.388  19.631  0.00  0.00    +0.000 C 
ATOM     18  C   UNL     1       1.254   9.680  18.281  0.00  0.00    +0.000 C 
ATOM     19  C   UNL     1      -0.122   9.467  17.656  0.00  0.00    +0.000 C 
BRANCH  18  20
ATOM     20  O   UNL     1       2.050  10.473  17.405  0.00  0.00    +0.000 OA
ATOM     21  H   UNL     1       2.969  10.415  17.714  0.00  0.00    +0.000 HD
ENDBRANCH  18  20
ENDBRANCH  15  18
ENDBRANCH   1  16
BRANCH   1  22
ATOM     22  O   UNL     1       4.161   6.107  19.872  0.00  0.00    +0.000 OA
ATOM     23  H   UNL     1       5.041   5.881  19.522  0.00  0.00    +0.000 HD
ENDBRANCH   1  22
TORSDOF 6
ENDMDL
MODEL 4
REMARK VINA RESULT:      -7.5      3.068      5.394
REMARK  Name = 
REMARK  8 active torsions:
REMARK  status: ('A' for Active; 'I' for Inactive)
REMARK    1  A    between atoms: C_1  and  C_2
REMARK    2  A    between atoms: C_2  and  C_3
REMARK    3  A    between atoms: C_2  and  O_4
REMARK    4  A    between atoms: C_2  and  C_5
REMARK    5  A    between atoms: C_6  and  C_7
REMARK    6  A    between atoms: C_7  and  O_8
REMARK    7  A    between atoms: C_7  and  C_9
REMARK    8  A    between atoms: C_7  and  C_15
REMARK                            x       y       z     vdW  Elec       q    Type
REMARK                         _______ _______ _______ _____ _____    ______ ____
ROOT
ATOM      1  C   UNL     1       3.300   5.981  18.819  0.00  0.00    +0.000 C 
ENDROOT
BRANCH   1   2
ATOM      2  C   UNL     1       4.270   5.718  17.654  0.00  0.00    +0.000 A 
ATOM      3  C   UNL     1       4.461   6.665  16.628  0.00  0.00    +0.000 A 
ATOM      4  C   UNL     1       5.259   6.381  15.515  0.00  0.00    +0.000 A 
ATOM      5  C   UNL     1       5.884   5.142  15.410  0.00  0.00    +0.000 A 
ATOM      6 CL   UNL     1       6.832   4.775  14.022  0.00  0.00    +0.000 Cl
ATOM      7  C   UNL     1       5.733   4.195  16.416  0.00  0.00    +0.000 A 
ATOM      8  C   UNL     1       4.935   4.481  17.530  0.00  0.00    +0.000 A 
ENDBRANCH   1   2
BRANCH   1   9
ATOM      9  C   UNL     1       2.294   4.848  19.070  0.00  0.00    +0.000 A 
ATOM     10  C   UNL     1       1.888   4.500  20.376  0.00  0.00    +0.000 A 
ATOM     11  C   UNL     1       1.086   3.383  20.612  0.00  0.00    +0.000 A 
ATOM     12  C   UNL     1       0.659   2.598  19.547  0.00  0.00    +0.000 A 
ATOM     13  C   UNL     1       1.006   2.947  18.243  0.00  0.00    +0.000 A 
ATOM     14  C   UNL     1       1.804   4.069  18.005  0.00  0.00    +0.000 A 
ENDBRANCH   1   9
BRANCH   1  16
ATOM     15  C   UNL     1       1.969   8.398  18.451  0.00  0.00    +0.000 C 
ATOM     16  C   UNL     1       2.589   7.261  18.603  0.00  0.00    +0.000 C 
BRANCH  15  18
ATOM     17  C   UNL     1       1.135  10.430  19.624  0.00  0.00    +0.000 C 
ATOM     18  C   UNL     1       1.247   9.724  18.274  0.00  0.00    +0.000 C 
ATOM     19  C   UNL     1      -0.128   9.484  17.658  0.00  0.00    +0.000 C 
BRANCH  18  20
ATOM     20  O   UNL     1       2.022  10.531  17.393  0.00  0.00    +0.000 OA
ATOM     21  H   UNL     1       2.949  10.257  17.486  0.00  0.00    +0.000 HD
ENDBRANCH  18  20
ENDBRANCH  15  18
ENDBRANCH   1  16
BRANCH   1  22
ATOM     22  O   UNL     1       4.056   6.171  20.024  0.00  0.00    +0.000 OA
ATOM     23  H   UNL     1       4.719   5.457  20.022  0.00  0.00    +0.000 HD
ENDBRANCH   1  22
TORSDOF 6
ENDMDL
MODEL 5
REMARK VINA RESULT:      -7.4      0.386      1.510
REMARK  Name = 
REMARK  8 active torsions:
REMARK  status: ('A' for Active; 'I' for Inactive)
REMARK    1  A    between atoms: C_1  and  C_2
REMARK    2  A    between atoms: C_2  and  C_3
REMARK    3  A    between atoms: C_2  and  O_4
REMARK    4  A    between atoms: C_2  and  C_5
REMARK    5  A    between atoms: C_6  and  C_7
REMARK    6  A    between atoms: C_7  and  O_8
REMARK    7  A    between atoms: C_7  and  C_9
REMARK    8  A    between atoms: C_7  and  C_15
REMARK                            x       y       z     vdW  Elec       q    Type
REMARK                         _______ _______ _______ _____ _____    ______ ____
ROOT
ATOM      1  C   UNL     1       3.036   5.387  18.570  0.00  0.00    +0.000 C 
ENDROOT
BRANCH   1   2
ATOM      2  C   UNL     1       2.438   6.790  18.770  0.00  0.00    +0.000 A 
ATOM      3  C   UNL     1       2.407   7.733  17.722  0.00  0.00    +0.000 A 
ATOM      4  C   UNL     1       1.963   9.043  17.934  0.00  0.00    +0.000 A 
ATOM      5  C   UNL     1       1.538   9.433  19.200  0.00  0.00    +0.000 A 
ATOM      6 CL   UNL     1       1.031  11.054  19.473  0.00  0.00    +0.000 Cl
ATOM      7  C   UNL     1       1.535   8.520  20.249  0.00  0.00    +0.000 A 
ATOM      8  C   UNL     1       1.978   7.209  20.035  0.00  0.00    +0.000 A 
ENDBRANCH   1   2
BRANCH   1   9
ATOM      9  C   UNL     1       2.487   4.325  19.533  0.00  0.00    +0.000 A 
ATOM     10  C   UNL     1       1.165   3.843  19.420  0.00  0.00    +0.000 A 
ATOM     11  C   UNL     1       0.623   2.985  20.378  0.00  0.00    +0.000 A 
ATOM     12  C   UNL     1       1.394   2.578  21.460  0.00  0.00    +0.000 A 
ATOM     13  C   UNL     1       2.717   3.000  21.570  0.00  0.00    +0.000 A 
ATOM     14  C   UNL     1       3.264   3.854  20.607  0.00  0.00    +0.000 A 
ENDBRANCH   1   9
BRANCH   1  16
ATOM     15  C   UNL     1       5.810   5.548  18.735  0.00  0.00    +0.000 C 
ATOM     16  C   UNL     1       4.512   5.452  18.663  0.00  0.00    +0.000 C 
BRANCH  15  18
ATOM     17  C   UNL     1       7.766   7.027  18.303  0.00  0.00    +0.000 C 
ATOM     18  C   UNL     1       7.324   5.659  18.820  0.00  0.00    +0.000 C 
ATOM     19  C   UNL     1       7.969   4.530  18.022  0.00  0.00    +0.000 C 
BRANCH  18  20
ATOM     20  O   UNL     1       7.696   5.539  20.189  0.00  0.00    +0.000 OA
ATOM     21  H   UNL     1       7.547   4.617  20.453  0.00  0.00    +0.000 HD
ENDBRANCH  18  20
ENDBRANCH  15  18
ENDBRANCH   1  16
BRANCH   1  22
ATOM     22  O   UNL     1       2.764   4.949  17.230  0.00  0.00    +0.000 OA
ATOM     23  H   UNL     1       3.174   5.620  16.656  0.00  0.00    +0.000 HD
ENDBRANCH   1  22
TORSDOF 6
ENDMDL
MODEL 6
REMARK VINA RESULT:      -7.4      0.175      1.067
REMARK  Name = 
REMARK  8 active torsions:
REMARK  status: ('A' for Active; 'I' for Inactive)
REMARK    1  A    between atoms: C_1  and  C_2
REMARK    2  A    between atoms: C_2  and  C_3
REMARK    3  A    between atoms: C_2  and  O_4
REMARK    4  A    between atoms: C_2  and  C_5
REMARK    5  A    between atoms: C_6  and  C_7
REMARK    6  A    between atoms: C_7  and  O_8
REMARK    7  A    between atoms: C_7  and  C_9
REMARK    8  A    between atoms: C_7  and  C_15
REMARK                            x       y       z     vdW  Elec       q    Type
REMARK                         _______ _______ _______ _____ _____    ______ ____
ROOT
ATOM      1  C   UNL     1       2.946   5.616  18.612  0.00  0.00    +0.000 C 
ENDROOT
BRANCH   1   2
ATOM      2  C   UNL     1       2.380   7.039  18.755  0.00  0.00    +0.000 A 
ATOM      3  C   UNL     1       2.434   7.962  17.691  0.00  0.00    +0.000 A 
ATOM      4  C   UNL     1       2.018   9.288  17.856  0.00  0.00    +0.000 A 
ATOM      5  C   UNL     1       1.537   9.714  19.090  0.00  0.00    +0.000 A 
ATOM      6 CL   UNL     1       1.064  11.354  19.306  0.00  0.00    +0.000 Cl
ATOM      7  C   UNL     1       1.450   8.821  20.152  0.00  0.00    +0.000 A 
ATOM      8  C   UNL     1       1.865   7.495  19.985  0.00  0.00    +0.000 A 
ENDBRANCH   1   2
BRANCH   1   9
ATOM      9  C   UNL     1       2.368   4.604  19.613  0.00  0.00    +0.000 A 
ATOM     10  C   UNL     1       3.011   4.333  20.839  0.00  0.00    +0.000 A 
ATOM     11  C   UNL     1       2.564   3.314  21.682  0.00  0.00    +0.000 A 
ATOM     12  C   UNL     1       1.456   2.555  21.325  0.00  0.00    +0.000 A 
ATOM     13  C   UNL     1       0.774   2.834  20.142  0.00  0.00    +0.000 A 
ATOM     14  C   UNL     1       1.217   3.858  19.300  0.00  0.00    +0.000 A 
ENDBRANCH   1   9
BRANCH   1  16
ATOM     15  C   UNL     1       5.725   5.666  18.757  0.00  0.00    +0.000 C 
ATOM     16  C   UNL     1       4.423   5.649  18.710  0.00  0.00    +0.000 C 
BRANCH  15  18
ATOM     17  C   UNL     1       7.756   7.040  18.325  0.00  0.00    +0.000 C 
ATOM     18  C   UNL     1       7.244   5.686  18.813  0.00  0.00    +0.000 C 
ATOM     19  C   UNL     1       7.806   4.544  17.971  0.00  0.00    +0.000 C 
BRANCH  18  20
ATOM     20  O   UNL     1       7.636   5.506  20.171  0.00  0.00    +0.000 OA
ATOM     21  H   UNL     1       7.139   4.748  20.519  0.00  0.00    +0.000 HD
ENDBRANCH  18  20
ENDBRANCH  15  18
ENDBRANCH   1  16
BRANCH   1  22
ATOM     22  O   UNL     1       2.668   5.132  17.289  0.00  0.00    +0.000 OA
ATOM     23  H   UNL     1       1.989   5.734  16.937  0.00  0.00    +0.000 HD
ENDBRANCH   1  22
TORSDOF 6
ENDMDL
MODEL 7
REMARK VINA RESULT:      -7.4      3.106      5.471
REMARK  Name = 
REMARK  8 active torsions:
REMARK  status: ('A' for Active; 'I' for Inactive)
REMARK    1  A    between atoms: C_1  and  C_2
REMARK    2  A    between atoms: C_2  and  C_3
REMARK    3  A    between atoms: C_2  and  O_4
REMARK    4  A    between atoms: C_2  and  C_5
REMARK    5  A    between atoms: C_6  and  C_7
REMARK    6  A    between atoms: C_7  and  O_8
REMARK    7  A    between atoms: C_7  and  C_9
REMARK    8  A    between atoms: C_7  and  C_15
REMARK                            x       y       z     vdW  Elec       q    Type
REMARK                         _______ _______ _______ _____ _____    ______ ____
ROOT
ATOM      1  C   UNL     1       3.522   5.780  18.782  0.00  0.00    +0.000 C 
ENDROOT
BRANCH   1   2
ATOM      2  C   UNL     1       4.392   5.479  17.549  0.00  0.00    +0.000 A 
ATOM      3  C   UNL     1       4.665   6.467  16.583  0.00  0.00    +0.000 A 
ATOM      4  C   UNL     1       5.363   6.164  15.409  0.00  0.00    +0.000 A 
ATOM      5  C   UNL     1       5.805   4.864  15.182  0.00  0.00    +0.000 A 
ATOM      6 CL   UNL     1       6.627   4.480  13.721  0.00  0.00    +0.000 Cl
ATOM      7  C   UNL     1       5.571   3.871  16.127  0.00  0.00    +0.000 A 
ATOM      8  C   UNL     1       4.873   4.177  17.302  0.00  0.00    +0.000 A 
ENDBRANCH   1   2
BRANCH   1   9
ATOM      9  C   UNL     1       2.560   4.647  19.168  0.00  0.00    +0.000 A 
ATOM     10  C   UNL     1       1.737   4.022  18.207  0.00  0.00    +0.000 A 
ATOM     11  C   UNL     1       0.765   3.093  18.580  0.00  0.00    +0.000 A 
ATOM     12  C   UNL     1       0.604   2.758  19.919  0.00  0.00    +0.000 A 
ATOM     13  C   UNL     1       1.435   3.324  20.883  0.00  0.00    +0.000 A 
ATOM     14  C   UNL     1       2.415   4.250  20.510  0.00  0.00    +0.000 A 
ENDBRANCH   1   9
BRANCH   1  16
ATOM     15  C   UNL     1       2.122   8.160  18.433  0.00  0.00    +0.000 C 
ATOM     16  C   UNL     1       2.775   7.041  18.575  0.00  0.00    +0.000 C 
BRANCH  15  18
ATOM     17  C   UNL     1       1.140  10.107  19.634  0.00  0.00    +0.000 C 
ATOM     18  C   UNL     1       1.361   9.465  18.266  0.00  0.00    +0.000 C 
ATOM     19  C   UNL     1       0.036   9.202  17.555  0.00  0.00    +0.000 C 
BRANCH  18  20
ATOM     20  O   UNL     1       2.156  10.337  17.468  0.00  0.00    +0.000 OA
ATOM     21  H   UNL     1       2.799  10.765  18.057  0.00  0.00    +0.000 HD
ENDBRANCH  18  20
ENDBRANCH  15  18
ENDBRANCH   1  16
BRANCH   1  22
ATOM     22  O   UNL     1       4.378   6.031  19.908  0.00  0.00    +0.000 OA
ATOM     23  H   UNL     1       5.247   6.244  19.523  0.00  0.00    +0.000 HD
ENDBRANCH   1  22
TORSDOF 6
ENDMDL
MODEL 8
REMARK VINA RESULT:      -7.3      3.138      5.460
REMARK  Name = 
REMARK  8 active torsions:
REMARK  status: ('A' for Active; 'I' for Inactive)
REMARK    1  A    between atoms: C_1  and  C_2
REMARK    2  A    between atoms: C_2  and  C_3
REMARK    3  A    between atoms: C_2  and  O_4
REMARK    4  A    between atoms: C_2  and  C_5
REMARK    5  A    between atoms: C_6  and  C_7
REMARK    6  A    between atoms: C_7  and  O_8
REMARK    7  A    between atoms: C_7  and  C_9
REMARK    8  A    between atoms: C_7  and  C_15
REMARK                            x       y       z     vdW  Elec       q    Type
REMARK                         _______ _______ _______ _____ _____    ______ ____
ROOT
ATOM      1  C   UNL     1       3.553   5.758  18.620  0.00  0.00    +0.000 C 
ENDROOT
BRANCH   1   2
ATOM      2  C   UNL     1       4.359   5.456  17.345  0.00  0.00    +0.000 A 
ATOM      3  C   UNL     1       4.799   4.152  17.044  0.00  0.00    +0.000 A 
ATOM      4  C   UNL     1       5.623   3.897  15.942  0.00  0.00    +0.000 A 
ATOM      5  C   UNL     1       6.020   4.946  15.118  0.00  0.00    +0.000 A 
ATOM      6 CL   UNL     1       7.067   4.642  13.787  0.00  0.00    +0.000 Cl
ATOM      7  C   UNL     1       5.584   6.241  15.375  0.00  0.00    +0.000 A 
ATOM      8  C   UNL     1       4.758   6.493  16.477  0.00  0.00    +0.000 A 
ENDBRANCH   1   2
BRANCH   1   9
ATOM      9  C   UNL     1       2.615   4.623  19.056  0.00  0.00    +0.000 A 
ATOM     10  C   UNL     1       1.720   4.018  18.148  0.00  0.00    +0.000 A 
ATOM     11  C   UNL     1       0.772   3.088  18.576  0.00  0.00    +0.000 A 
ATOM     12  C   UNL     1       0.708   2.731  19.918  0.00  0.00    +0.000 A 
ATOM     13  C   UNL     1       1.611   3.277  20.827  0.00  0.00    +0.000 A 
ATOM     14  C   UNL     1       2.565   4.204  20.398  0.00  0.00    +0.000 A 
ENDBRANCH   1   9
BRANCH   1  16
ATOM     15  C   UNL     1       2.139   8.139  18.333  0.00  0.00    +0.000 C 
ATOM     16  C   UNL     1       2.793   7.016  18.449  0.00  0.00    +0.000 C 
BRANCH  15  18
ATOM     17  C   UNL     1       1.125  10.038  19.583  0.00  0.00    +0.000 C 
ATOM     18  C   UNL     1       1.378   9.447  18.198  0.00  0.00    +0.000 C 
ATOM     19  C   UNL     1       0.070   9.207  17.450  0.00  0.00    +0.000 C 
BRANCH  18  20
ATOM     20  O   UNL     1       2.187  10.350  17.450  0.00  0.00    +0.000 OA
ATOM     21  H   UNL     1       1.606  10.813  16.825  0.00  0.00    +0.000 HD
ENDBRANCH  18  20
ENDBRANCH  15  18
ENDBRANCH   1  16
BRANCH   1  22
ATOM     22  O   UNL     1       4.464   6.013  19.699  0.00  0.00    +0.000 OA
ATOM     23  H   UNL     1       5.351   5.961  19.300  0.00  0.00    +0.000 HD
ENDBRANCH   1  22
TORSDOF 6
ENDMDL
MODEL 9
REMARK VINA RESULT:      -7.2      1.125      1.452
REMARK  Name = 
REMARK  8 active torsions:
REMARK  status: ('A' for Active; 'I' for Inactive)
REMARK    1  A    between atoms: C_1  and  C_2
REMARK    2  A    between atoms: C_2  and  C_3
REMARK    3  A    between atoms: C_2  and  O_4
REMARK    4  A    between atoms: C_2  and  C_5
REMARK    5  A    between atoms: C_6  and  C_7
REMARK    6  A    between atoms: C_7  and  O_8
REMARK    7  A    between atoms: C_7  and  C_9
REMARK    8  A    between atoms: C_7  and  C_15
REMARK                            x       y       z     vdW  Elec       q    Type
REMARK                         _______ _______ _______ _____ _____    ______ ____
ROOT
ATOM      1  C   UNL     1       2.689   5.221  18.417  0.00  0.00    +0.000 C 
ENDROOT
BRANCH   1   2
ATOM      2  C   UNL     1       2.311   6.651  18.837  0.00  0.00    +0.000 A 
ATOM      3  C   UNL     1       1.978   6.962  20.171  0.00  0.00    +0.000 A 
ATOM      4  C   UNL     1       1.530   8.238  20.530  0.00  0.00    +0.000 A 
ATOM      5  C   UNL     1       1.409   9.228  19.560  0.00  0.00    +0.000 A 
ATOM      6 CL   UNL     1       0.818  10.785  19.993  0.00  0.00    +0.000 Cl
ATOM      7  C   UNL     1       1.751   8.959  18.240  0.00  0.00    +0.000 A 
ATOM      8  C   UNL     1       2.201   7.682  17.882  0.00  0.00    +0.000 A 
ENDBRANCH   1   2
BRANCH   1   9
ATOM      9  C   UNL     1       2.414   4.155  19.488  0.00  0.00    +0.000 A 
ATOM     10  C   UNL     1       1.099   3.839  19.890  0.00  0.00    +0.000 A 
ATOM     11  C   UNL     1       0.857   2.976  20.960  0.00  0.00    +0.000 A 
ATOM     12  C   UNL     1       1.922   2.398  21.640  0.00  0.00    +0.000 A 
ATOM     13  C   UNL     1       3.230   2.655  21.232  0.00  0.00    +0.000 A 
ATOM     14  C   UNL     1       3.473   3.515  20.157  0.00  0.00    +0.000 A 
ENDBRANCH   1   9
BRANCH   1  16
ATOM     15  C   UNL     1       5.363   5.178  17.642  0.00  0.00    +0.000 C 
ATOM     16  C   UNL     1       4.109   5.177  18.001  0.00  0.00    +0.000 C 
BRANCH  15  18
ATOM     17  C   UNL     1       7.412   6.575  17.422  0.00  0.00    +0.000 C 
ATOM     18  C   UNL     1       6.824   5.179  17.225  0.00  0.00    +0.000 C 
ATOM     19  C   UNL     1       6.946   4.726  15.773  0.00  0.00    +0.000 C 
BRANCH  18  20
ATOM     20  O   UNL     1       7.520   4.261  18.063  0.00  0.00    +0.000 OA
ATOM     21  H   UNL     1       7.339   3.367  17.730  0.00  0.00    +0.000 HD
ENDBRANCH  18  20
ENDBRANCH  15  18
ENDBRANCH   1  16
BRANCH   1  22
ATOM     22  O   UNL     1       1.943   4.865  17.242  0.00  0.00    +0.000 OA
ATOM     23  H   UNL     1       1.158   4.394  17.574  0.00  0.00    +0.000 HD
ENDBRANCH   1  22
TORSDOF 6
ENDMDL
