MODEL 1
REMARK VINA RESULT:      -7.0      0.000      0.000
REMARK  Name = 
REMARK  8 active torsions:
REMARK  status: ('A' for Active; 'I' for Inactive)
REMARK    1  A    between atoms: C_1  and  C_2
REMARK    2  A    between atoms: C_2  and  C_3
REMARK    3  A    between atoms: C_2  and  C_5
REMARK    4  A    between atoms: C_2  and  N_7
REMARK    5  A    between atoms: C_3  and  O_4
REMARK    6  A    between atoms: C_5  and  O_6
REMARK    7  A    between atoms: C_8  and  C_10
REMARK    8  A    between atoms: C_13  and  C_14
REMARK                            x       y       z     vdW  Elec       q    Type
REMARK                         _______ _______ _______ _____ _____    ______ ____
ROOT
ATOM      1  N   UNL     1       3.505   3.515  19.170  0.00  0.00    +0.000 N 
ATOM      2  C   UNL     1       3.641   4.538  18.253  0.00  0.00    +0.000 C 
ATOM      3  O   UNL     1       2.739   5.342  18.026  0.00  0.00    +0.000 OA
ATOM      4  H   UNL     1       4.277   2.860  19.256  0.00  0.00    +0.000 HD
ENDROOT
BRANCH   2   5
ATOM      5  C   UNL     1       4.922   4.605  17.585  0.00  0.00    +0.000 A 
ATOM      6  C   UNL     1       6.196   4.695  18.110  0.00  0.00    +0.000 A 
ATOM      7  C   UNL     1       7.090   4.677  17.017  0.00  0.00    +0.000 A 
ATOM      8  C   UNL     1       6.319   4.572  15.875  0.00  0.00    +0.000 A 
ATOM      9  O   UNL     1       4.995   4.546  16.220  0.00  0.00    +0.000 OA
BRANCH   8  10
ATOM     10  C   UNL     1       6.623   4.447  14.453  0.00  0.00    +0.000 A 
ATOM     11  C   UNL     1       5.924   3.531  13.648  0.00  0.00    +0.000 A 
ATOM     12  C   UNL     1       6.172   3.448  12.276  0.00  0.00    +0.000 A 
ATOM     13  C   UNL     1       7.124   4.276  11.687  0.00  0.00    +0.000 A 
ATOM     14  C   UNL     1       7.838   5.179  12.473  0.00  0.00    +0.000 A 
ATOM     15  C   UNL     1       7.591   5.260  13.844  0.00  0.00    +0.000 A 
ENDBRANCH   8  10
ENDBRANCH   2   5
BRANCH   1  17
ATOM     16  C   UNL     1       1.327   2.345  19.132  0.00  0.00    +0.000 C 
ATOM     17  C   UNL     1       2.274   3.253  19.945  0.00  0.00    +0.000 C 
BRANCH  17  18
ATOM     18  C   UNL     1       1.564   4.583  20.321  0.00  0.00    +0.000 C 
BRANCH  18  19
ATOM     19  O   UNL     1       2.345   5.373  21.217  0.00  0.00    +0.000 OA
ATOM     20  H   UNL     1       3.204   5.527  20.788  0.00  0.00    +0.000 HD
ENDBRANCH  18  19
ENDBRANCH  17  18
BRANCH  17  21
ATOM     21  C   UNL     1       2.646   2.524  21.268  0.00  0.00    +0.000 C 
BRANCH  21  22
ATOM     22  O   UNL     1       1.641   2.700  22.268  0.00  0.00    +0.000 OA
ATOM     23  H   UNL     1       1.917   2.195  23.053  0.00  0.00    +0.000 HD
ENDBRANCH  21  22
ENDBRANCH  17  21
ENDBRANCH   1  17
TORSDOF 7
ENDMDL
MODEL 2
REMARK VINA RESULT:      -7.0      0.904      1.407
REMARK  Name = 
REMARK  8 active torsions:
REMARK  status: ('A' for Active; 'I' for Inactive)
REMARK    1  A    between atoms: C_1  and  C_2
REMARK    2  A    between atoms: C_2  and  C_3
REMARK    3  A    between atoms: C_2  and  C_5
REMARK    4  A    between atoms: C_2  and  N_7
REMARK    5  A    between atoms: C_3  and  O_4
REMARK    6  A    between atoms: C_5  and  O_6
REMARK    7  A    between atoms: C_8  and  C_10
REMARK    8  A    between atoms: C_13  and  C_14
REMARK                            x       y       z     vdW  Elec       q    Type
REMARK                         _______ _______ _______ _____ _____    ______ ____
ROOT
ATOM      1  N   UNL     1       3.207   4.083  19.118  0.00  0.00    +0.000 N 
ATOM      2  C   UNL     1       3.985   3.245  18.346  0.00  0.00    +0.000 C 
ATOM      3  O   UNL     1       3.762   2.039  18.254  0.00  0.00    +0.000 OA
ATOM      4  H   UNL     1       3.492   5.055  19.186  0.00  0.00    +0.000 HD
ENDROOT
BRANCH   2   5
ATOM      5  C   UNL     1       5.076   3.885  17.643  0.00  0.00    +0.000 A 
ATOM      6  C   UNL     1       6.173   4.565  18.133  0.00  0.00    +0.000 A 
ATOM      7  C   UNL     1       6.953   4.940  17.018  0.00  0.00    +0.000 A 
ATOM      8  C   UNL     1       6.296   4.467  15.898  0.00  0.00    +0.000 A 
ATOM      9  O   UNL     1       5.142   3.838  16.278  0.00  0.00    +0.000 OA
BRANCH   8  10
ATOM     10  C   UNL     1       6.596   4.469  14.469  0.00  0.00    +0.000 A 
ATOM     11  C   UNL     1       7.574   5.331  13.943  0.00  0.00    +0.000 A 
ATOM     12  C   UNL     1       7.904   5.296  12.586  0.00  0.00    +0.000 A 
ATOM     13  C   UNL     1       7.262   4.402  11.733  0.00  0.00    +0.000 A 
ATOM     14  C   UNL     1       6.278   3.552  12.235  0.00  0.00    +0.000 A 
ATOM     15  C   UNL     1       5.947   3.589  13.591  0.00  0.00    +0.000 A 
ENDBRANCH   8  10
ENDBRANCH   2   5
BRANCH   1  17
ATOM     16  C   UNL     1       1.071   2.838  19.052  0.00  0.00    +0.000 C 
ATOM     17  C   UNL     1       2.058   3.632  19.933  0.00  0.00    +0.000 C 
BRANCH  17  18
ATOM     18  C   UNL     1       1.344   4.841  20.599  0.00  0.00    +0.000 C 
BRANCH  18  19
ATOM     19  O   UNL     1       2.253   5.667  21.327  0.00  0.00    +0.000 OA
ATOM     20  H   UNL     1       3.150   5.436  21.030  0.00  0.00    +0.000 HD
ENDBRANCH  18  19
ENDBRANCH  17  18
BRANCH  17  21
ATOM     21  C   UNL     1       2.571   2.701  21.069  0.00  0.00    +0.000 C 
BRANCH  21  22
ATOM     22  O   UNL     1       1.705   2.729  22.205  0.00  0.00    +0.000 OA
ATOM     23  H   UNL     1       1.588   3.661  22.462  0.00  0.00    +0.000 HD
ENDBRANCH  21  22
ENDBRANCH  17  21
ENDBRANCH   1  17
TORSDOF 7
ENDMDL
MODEL 3
REMARK VINA RESULT:      -7.0      4.205      8.296
REMARK  Name = 
REMARK  8 active torsions:
REMARK  status: ('A' for Active; 'I' for Inactive)
REMARK    1  A    between atoms: C_1  and  C_2
REMARK    2  A    between atoms: C_2  and  C_3
REMARK    3  A    between atoms: C_2  and  C_5
REMARK    4  A    between atoms: C_2  and  N_7
REMARK    5  A    between atoms: C_3  and  O_4
REMARK    6  A    between atoms: C_5  and  O_6
REMARK    7  A    between atoms: C_8  and  C_10
REMARK    8  A    between atoms: C_13  and  C_14
REMARK                            x       y       z     vdW  Elec       q    Type
REMARK                         _______ _______ _______ _____ _____    ______ ____
ROOT
ATOM      1  N   UNL     1       3.769   5.821  17.669  0.00  0.00    +0.000 N 
ATOM      2  C   UNL     1       3.162   6.156  18.863  0.00  0.00    +0.000 C 
ATOM      3  O   UNL     1       3.225   5.436  19.858  0.00  0.00    +0.000 OA
ATOM      4  H   UNL     1       3.621   6.442  16.879  0.00  0.00    +0.000 HD
ENDROOT
BRANCH   2   5
ATOM      5  C   UNL     1       2.456   7.419  18.866  0.00  0.00    +0.000 A 
ATOM      6  C   UNL     1       2.230   8.314  17.840  0.00  0.00    +0.000 A 
ATOM      7  C   UNL     1       1.441   9.357  18.375  0.00  0.00    +0.000 A 
ATOM      8  C   UNL     1       1.221   9.045  19.703  0.00  0.00    +0.000 A 
ATOM      9  O   UNL     1       1.854   7.872  20.008  0.00  0.00    +0.000 OA
BRANCH   8  10
ATOM     10  C   UNL     1       0.451   9.667  20.776  0.00  0.00    +0.000 A 
ATOM     11  C   UNL     1       0.352   9.053  22.037  0.00  0.00    +0.000 A 
ATOM     12  C   UNL     1      -0.336   9.671  23.083  0.00  0.00    +0.000 A 
ATOM     13  C   UNL     1      -0.939  10.910  22.887  0.00  0.00    +0.000 A 
ATOM     14  C   UNL     1      -0.866  11.525  21.639  0.00  0.00    +0.000 A 
ATOM     15  C   UNL     1      -0.180  10.906  20.592  0.00  0.00    +0.000 A 
ENDBRANCH   8  10
ENDBRANCH   2   5
BRANCH   1  17
ATOM     16  C   UNL     1       3.555   3.364  17.482  0.00  0.00    +0.000 C 
ATOM     17  C   UNL     1       4.520   4.567  17.443  0.00  0.00    +0.000 C 
BRANCH  17  18
ATOM     18  C   UNL     1       5.645   4.398  18.502  0.00  0.00    +0.000 C 
BRANCH  18  19
ATOM     19  O   UNL     1       5.406   3.287  19.366  0.00  0.00    +0.000 OA
ATOM     20  H   UNL     1       6.172   2.693  19.285  0.00  0.00    +0.000 HD
ENDBRANCH  18  19
ENDBRANCH  17  18
BRANCH  17  21
ATOM     21  C   UNL     1       5.193   4.619  16.041  0.00  0.00    +0.000 C 
BRANCH  21  22
ATOM     22  O   UNL     1       5.994   3.462  15.798  0.00  0.00    +0.000 OA
ATOM     23  H   UNL     1       5.399   2.751  15.499  0.00  0.00    +0.000 HD
ENDBRANCH  21  22
ENDBRANCH  17  21
ENDBRANCH   1  17
TORSDOF 7
ENDMDL
MODEL 4
REMARK VINA RESULT:      -7.0      4.178      8.204
REMARK  Name = 
REMARK  8 active torsions:
REMARK  status: ('A' for Active; 'I' for Inactive)
REMARK    1  A    between atoms: C_1  and  C_2
REMARK    2  A    between atoms: C_2  and  C_3
REMARK    3  A    between atoms: C_2  and  C_5
REMARK    4  A    between atoms: C_2  and  N_7
REMARK    5  A    between atoms: C_3  and  O_4
REMARK    6  A    between atoms: C_5  and  O_6
REMARK    7  A    between atoms: C_8  and  C_10
REMARK    8  A    between atoms: C_13  and  C_14
REMARK                            x       y       z     vdW  Elec       q    Type
REMARK                         _______ _______ _______ _____ _____    ______ ____
ROOT
ATOM      1  N   UNL     1       3.683   5.717  17.682  0.00  0.00    +0.000 N 
ATOM      2  C   UNL     1       3.166   6.085  18.907  0.00  0.00    +0.000 C 
ATOM      3  O   UNL     1       3.310   5.395  19.916  0.00  0.00    +0.000 OA
ATOM      4  H   UNL     1       3.470   6.314  16.887  0.00  0.00    +0.000 HD
ENDROOT
BRANCH   2   5
ATOM      5  C   UNL     1       2.451   7.342  18.927  0.00  0.00    +0.000 A 
ATOM      6  C   UNL     1       2.159   8.216  17.899  0.00  0.00    +0.000 A 
ATOM      7  C   UNL     1       1.393   9.263  18.458  0.00  0.00    +0.000 A 
ATOM      8  C   UNL     1       1.251   8.975  19.802  0.00  0.00    +0.000 A 
ATOM      9  O   UNL     1       1.910   7.812  20.092  0.00  0.00    +0.000 OA
BRANCH   8  10
ATOM     10  C   UNL     1       0.537   9.612  20.906  0.00  0.00    +0.000 A 
ATOM     11  C   UNL     1      -0.167  10.812  20.707  0.00  0.00    +0.000 A 
ATOM     12  C   UNL     1      -0.897  11.394  21.745  0.00  0.00    +0.000 A 
ATOM     13  C   UNL     1      -0.934  10.789  22.999  0.00  0.00    +0.000 A 
ATOM     14  C   UNL     1      -0.227   9.608  23.218  0.00  0.00    +0.000 A 
ATOM     15  C   UNL     1       0.504   9.027  22.180  0.00  0.00    +0.000 A 
ENDBRANCH   8  10
ENDBRANCH   2   5
BRANCH   1  17
ATOM     16  C   UNL     1       4.985   4.459  15.998  0.00  0.00    +0.000 C 
ATOM     17  C   UNL     1       4.427   4.463  17.436  0.00  0.00    +0.000 C 
BRANCH  17  18
ATOM     18  C   UNL     1       3.517   3.226  17.672  0.00  0.00    +0.000 C 
BRANCH  18  19
ATOM     19  O   UNL     1       2.326   3.278  16.887  0.00  0.00    +0.000 OA
ATOM     20  H   UNL     1       1.875   4.111  17.107  0.00  0.00    +0.000 HD
ENDBRANCH  18  19
ENDBRANCH  17  18
BRANCH  17  21
ATOM     21  C   UNL     1       5.619   4.371  18.432  0.00  0.00    +0.000 C 
BRANCH  21  22
ATOM     22  O   UNL     1       5.434   3.317  19.379  0.00  0.00    +0.000 OA
ATOM     23  H   UNL     1       5.950   2.552  19.070  0.00  0.00    +0.000 HD
ENDBRANCH  21  22
ENDBRANCH  17  21
ENDBRANCH   1  17
TORSDOF 7
ENDMDL
MODEL 5
REMARK VINA RESULT:      -7.0      1.006      1.525
REMARK  Name = 
REMARK  8 active torsions:
REMARK  status: ('A' for Active; 'I' for Inactive)
REMARK    1  A    between atoms: C_1  and  C_2
REMARK    2  A    between atoms: C_2  and  C_3
REMARK    3  A    between atoms: C_2  and  C_5
REMARK    4  A    between atoms: C_2  and  N_7
REMARK    5  A    between atoms: C_3  and  O_4
REMARK    6  A    between atoms: C_5  and  O_6
REMARK    7  A    between atoms: C_8  and  C_10
REMARK    8  A    between atoms: C_13  and  C_14
REMARK                            x       y       z     vdW  Elec       q    Type
REMARK                         _______ _______ _______ _____ _____    ______ ____
ROOT
ATOM      1  N   UNL     1       3.262   3.761  19.317  0.00  0.00    +0.000 N 
ATOM      2  C   UNL     1       3.154   4.235  18.025  0.00  0.00    +0.000 C 
ATOM      3  O   UNL     1       2.075   4.301  17.437  0.00  0.00    +0.000 OA
ATOM      4  H   UNL     1       4.195   3.686  19.710  0.00  0.00    +0.000 HD
ENDROOT
BRANCH   2   5
ATOM      5  C   UNL     1       4.394   4.658  17.414  0.00  0.00    +0.000 A 
ATOM      6  C   UNL     1       5.485   5.299  17.967  0.00  0.00    +0.000 A 
ATOM      7  C   UNL     1       6.446   5.429  16.940  0.00  0.00    +0.000 A 
ATOM      8  C   UNL     1       5.896   4.857  15.808  0.00  0.00    +0.000 A 
ATOM      9  O   UNL     1       4.638   4.402  16.093  0.00  0.00    +0.000 OA
BRANCH   8  10
ATOM     10  C   UNL     1       6.384   4.617  14.453  0.00  0.00    +0.000 A 
ATOM     11  C   UNL     1       5.750   3.681  13.618  0.00  0.00    +0.000 A 
ATOM     12  C   UNL     1       6.178   3.489  12.303  0.00  0.00    +0.000 A 
ATOM     13  C   UNL     1       7.248   4.226  11.802  0.00  0.00    +0.000 A 
ATOM     14  C   UNL     1       7.899   5.146  12.621  0.00  0.00    +0.000 A 
ATOM     15  C   UNL     1       7.472   5.336  13.937  0.00  0.00    +0.000 A 
ENDBRANCH   8  10
ENDBRANCH   2   5
BRANCH   1  17
ATOM     16  C   UNL     1       1.041   4.353  20.230  0.00  0.00    +0.000 C 
ATOM     17  C   UNL     1       2.123   3.258  20.115  0.00  0.00    +0.000 C 
BRANCH  17  18
ATOM     18  C   UNL     1       2.593   2.806  21.526  0.00  0.00    +0.000 C 
BRANCH  18  19
ATOM     19  O   UNL     1       1.507   2.350  22.332  0.00  0.00    +0.000 OA
ATOM     20  H   UNL     1       0.793   2.086  21.727  0.00  0.00    +0.000 HD
ENDBRANCH  18  19
ENDBRANCH  17  18
BRANCH  17  21
ATOM     21  C   UNL     1       1.505   2.021  19.403  0.00  0.00    +0.000 C 
BRANCH  21  22
ATOM     22  O   UNL     1       0.247   2.332  18.802  0.00  0.00    +0.000 OA
ATOM     23  H   UNL     1      -0.410   1.707  19.156  0.00  0.00    +0.000 HD
ENDBRANCH  21  22
ENDBRANCH  17  21
ENDBRANCH   1  17
TORSDOF 7
ENDMDL
MODEL 6
REMARK VINA RESULT:      -7.0      4.257      8.022
REMARK  Name = 
REMARK  8 active torsions:
REMARK  status: ('A' for Active; 'I' for Inactive)
REMARK    1  A    between atoms: C_1  and  C_2
REMARK    2  A    between atoms: C_2  and  C_3
REMARK    3  A    between atoms: C_2  and  C_5
REMARK    4  A    between atoms: C_2  and  N_7
REMARK    5  A    between atoms: C_3  and  O_4
REMARK    6  A    between atoms: C_5  and  O_6
REMARK    7  A    between atoms: C_8  and  C_10
REMARK    8  A    between atoms: C_13  and  C_14
REMARK                            x       y       z     vdW  Elec       q    Type
REMARK                         _______ _______ _______ _____ _____    ______ ____
ROOT
ATOM      1  N   UNL     1       2.385   5.152  18.474  0.00  0.00    +0.000 N 
ATOM      2  C   UNL     1       3.174   6.282  18.536  0.00  0.00    +0.000 C 
ATOM      3  O   UNL     1       4.402   6.231  18.479  0.00  0.00    +0.000 OA
ATOM      4  H   UNL     1       1.383   5.276  18.586  0.00  0.00    +0.000 HD
ENDROOT
BRANCH   2   5
ATOM      5  C   UNL     1       2.459   7.533  18.664  0.00  0.00    +0.000 A 
ATOM      6  C   UNL     1       2.154   8.485  17.712  0.00  0.00    +0.000 A 
ATOM      7  C   UNL     1       1.395   9.483  18.361  0.00  0.00    +0.000 A 
ATOM      8  C   UNL     1       1.268   9.090  19.680  0.00  0.00    +0.000 A 
ATOM      9  O   UNL     1       1.931   7.908  19.869  0.00  0.00    +0.000 OA
BRANCH   8  10
ATOM     10  C   UNL     1       0.567   9.635  20.838  0.00  0.00    +0.000 A 
ATOM     11  C   UNL     1      -0.239  10.780  20.715  0.00  0.00    +0.000 A 
ATOM     12  C   UNL     1      -0.956  11.273  21.808  0.00  0.00    +0.000 A 
ATOM     13  C   UNL     1      -0.877  10.631  23.041  0.00  0.00    +0.000 A 
ATOM     14  C   UNL     1      -0.070   9.505  23.185  0.00  0.00    +0.000 A 
ATOM     15  C   UNL     1       0.648   9.014  22.093  0.00  0.00    +0.000 A 
ENDBRANCH   8  10
ENDBRANCH   2   5
BRANCH   1  17
ATOM     16  C   UNL     1       3.810   3.656  17.116  0.00  0.00    +0.000 C 
ATOM     17  C   UNL     1       2.913   3.775  18.366  0.00  0.00    +0.000 C 
BRANCH  17  18
ATOM     18  C   UNL     1       1.754   2.742  18.306  0.00  0.00    +0.000 C 
BRANCH  18  19
ATOM     19  O   UNL     1       2.198   1.420  18.615  0.00  0.00    +0.000 OA
ATOM     20  H   UNL     1       1.817   1.186  19.479  0.00  0.00    +0.000 HD
ENDBRANCH  18  19
ENDBRANCH  17  18
BRANCH  17  21
ATOM     21  C   UNL     1       3.769   3.454  19.625  0.00  0.00    +0.000 C 
BRANCH  21  22
ATOM     22  O   UNL     1       4.946   2.718  19.288  0.00  0.00    +0.000 OA
ATOM     23  H   UNL     1       5.712   3.229  19.602  0.00  0.00    +0.000 HD
ENDBRANCH  21  22
ENDBRANCH  17  21
ENDBRANCH   1  17
TORSDOF 7
ENDMDL
MODEL 7
REMARK VINA RESULT:      -6.9      1.272      2.045
REMARK  Name = 
REMARK  8 active torsions:
REMARK  status: ('A' for Active; 'I' for Inactive)
REMARK    1  A    between atoms: C_1  and  C_2
REMARK    2  A    between atoms: C_2  and  C_3
REMARK    3  A    between atoms: C_2  and  C_5
REMARK    4  A    between atoms: C_2  and  N_7
REMARK    5  A    between atoms: C_3  and  O_4
REMARK    6  A    between atoms: C_5  and  O_6
REMARK    7  A    between atoms: C_8  and  C_10
REMARK    8  A    between atoms: C_13  and  C_14
REMARK                            x       y       z     vdW  Elec       q    Type
REMARK                         _______ _______ _______ _____ _____    ______ ____
ROOT
ATOM      1  N   UNL     1       2.902   4.232  18.991  0.00  0.00    +0.000 N 
ATOM      2  C   UNL     1       4.099   3.647  18.632  0.00  0.00    +0.000 C 
ATOM      3  O   UNL     1       4.440   2.540  19.045  0.00  0.00    +0.000 OA
ATOM      4  H   UNL     1       2.721   5.172  18.652  0.00  0.00    +0.000 HD
ENDROOT
BRANCH   2   5
ATOM      5  C   UNL     1       4.921   4.421  17.728  0.00  0.00    +0.000 A 
ATOM      6  C   UNL     1       5.667   5.559  17.957  0.00  0.00    +0.000 A 
ATOM      7  C   UNL     1       6.319   5.872  16.744  0.00  0.00    +0.000 A 
ATOM      8  C   UNL     1       5.941   4.906  15.831  0.00  0.00    +0.000 A 
ATOM      9  O   UNL     1       5.075   4.030  16.426  0.00  0.00    +0.000 OA
BRANCH   8  10
ATOM     10  C   UNL     1       6.299   4.626  14.444  0.00  0.00    +0.000 A 
ATOM     11  C   UNL     1       7.407   5.254  13.849  0.00  0.00    +0.000 A 
ATOM     12  C   UNL     1       7.787   4.947  12.540  0.00  0.00    +0.000 A 
ATOM     13  C   UNL     1       7.064   4.011  11.804  0.00  0.00    +0.000 A 
ATOM     14  C   UNL     1       5.953   3.391  12.373  0.00  0.00    +0.000 A 
ATOM     15  C   UNL     1       5.573   3.700  13.681  0.00  0.00    +0.000 A 
ENDBRANCH   8  10
ENDBRANCH   2   5
BRANCH   1  17
ATOM     16  C   UNL     1       1.046   4.724  20.549  0.00  0.00    +0.000 C 
ATOM     17  C   UNL     1       1.926   3.623  19.921  0.00  0.00    +0.000 C 
BRANCH  17  18
ATOM     18  C   UNL     1       2.650   2.807  21.026  0.00  0.00    +0.000 C 
BRANCH  18  19
ATOM     19  O   UNL     1       1.803   2.551  22.146  0.00  0.00    +0.000 OA
ATOM     20  H   UNL     1       2.193   3.008  22.911  0.00  0.00    +0.000 HD
ENDBRANCH  18  19
ENDBRANCH  17  18
BRANCH  17  21
ATOM     21  C   UNL     1       1.009   2.644  19.132  0.00  0.00    +0.000 C 
BRANCH  21  22
ATOM     22  O   UNL     1       1.664   1.401  18.875  0.00  0.00    +0.000 OA
ATOM     23  H   UNL     1       2.018   1.438  17.968  0.00  0.00    +0.000 HD
ENDBRANCH  21  22
ENDBRANCH  17  21
ENDBRANCH   1  17
TORSDOF 7
ENDMDL
MODEL 8
REMARK VINA RESULT:      -6.9      4.395      7.810
REMARK  Name = 
REMARK  8 active torsions:
REMARK  status: ('A' for Active; 'I' for Inactive)
REMARK    1  A    between atoms: C_1  and  C_2
REMARK    2  A    between atoms: C_2  and  C_3
REMARK    3  A    between atoms: C_2  and  C_5
REMARK    4  A    between atoms: C_2  and  N_7
REMARK    5  A    between atoms: C_3  and  O_4
REMARK    6  A    between atoms: C_5  and  O_6
REMARK    7  A    between atoms: C_8  and  C_10
REMARK    8  A    between atoms: C_13  and  C_14
REMARK                            x       y       z     vdW  Elec       q    Type
REMARK                         _______ _______ _______ _____ _____    ______ ____
ROOT
ATOM      1  N   UNL     1       2.585   4.794  19.717  0.00  0.00    +0.000 N 
ATOM      2  C   UNL     1       3.003   5.643  18.712  0.00  0.00    +0.000 C 
ATOM      3  O   UNL     1       3.744   5.272  17.803  0.00  0.00    +0.000 OA
ATOM      4  H   UNL     1       2.021   5.194  20.461  0.00  0.00    +0.000 HD
ENDROOT
BRANCH   2   5
ATOM      5  C   UNL     1       2.503   6.997  18.797  0.00  0.00    +0.000 A 
ATOM      6  C   UNL     1       2.474   7.996  17.844  0.00  0.00    +0.000 A 
ATOM      7  C   UNL     1       1.830   9.106  18.434  0.00  0.00    +0.000 A 
ATOM      8  C   UNL     1       1.492   8.729  19.721  0.00  0.00    +0.000 A 
ATOM      9  O   UNL     1       1.918   7.449  19.948  0.00  0.00    +0.000 OA
BRANCH   8  10
ATOM     10  C   UNL     1       0.772   9.379  20.812  0.00  0.00    +0.000 A 
ATOM     11  C   UNL     1      -0.010  10.522  20.574  0.00  0.00    +0.000 A 
ATOM     12  C   UNL     1      -0.746  11.114  21.603  0.00  0.00    +0.000 A 
ATOM     13  C   UNL     1      -0.711  10.574  22.886  0.00  0.00    +0.000 A 
ATOM     14  C   UNL     1       0.073   9.451  23.143  0.00  0.00    +0.000 A 
ATOM     15  C   UNL     1       0.810   8.861  22.115  0.00  0.00    +0.000 A 
ENDBRANCH   8  10
ENDBRANCH   2   5
BRANCH   1  17
ATOM     16  C   UNL     1       2.650   2.847  21.239  0.00  0.00    +0.000 C 
ATOM     17  C   UNL     1       2.996   3.378  19.832  0.00  0.00    +0.000 C 
BRANCH  17  18
ATOM     18  C   UNL     1       4.514   3.218  19.546  0.00  0.00    +0.000 C 
BRANCH  18  19
ATOM     19  O   UNL     1       4.976   1.896  19.826  0.00  0.00    +0.000 OA
ATOM     20  H   UNL     1       4.697   1.333  19.084  0.00  0.00    +0.000 HD
ENDBRANCH  18  19
ENDBRANCH  17  18
BRANCH  17  21
ATOM     21  C   UNL     1       2.223   2.533  18.779  0.00  0.00    +0.000 C 
BRANCH  21  22
ATOM     22  O   UNL     1       3.018   2.283  17.618  0.00  0.00    +0.000 OA
ATOM     23  H   UNL     1       3.161   1.322  17.562  0.00  0.00    +0.000 HD
ENDBRANCH  21  22
ENDBRANCH  17  21
ENDBRANCH   1  17
TORSDOF 7
ENDMDL
MODEL 9
REMARK VINA RESULT:      -6.9      4.246      7.885
REMARK  Name = 
REMARK  8 active torsions:
REMARK  status: ('A' for Active; 'I' for Inactive)
REMARK    1  A    between atoms: C_1  and  C_2
REMARK    2  A    between atoms: C_2  and  C_3
REMARK    3  A    between atoms: C_2  and  C_5
REMARK    4  A    between atoms: C_2  and  N_7
REMARK    5  A    between atoms: C_3  and  O_4
REMARK    6  A    between atoms: C_5  and  O_6
REMARK    7  A    between atoms: C_8  and  C_10
REMARK    8  A    between atoms: C_13  and  C_14
REMARK                            x       y       z     vdW  Elec       q    Type
REMARK                         _______ _______ _______ _____ _____    ______ ____
ROOT
ATOM      1  N   UNL     1       2.627   5.089  19.449  0.00  0.00    +0.000 N 
ATOM      2  C   UNL     1       2.975   5.997  18.470  0.00  0.00    +0.000 C 
ATOM      3  O   UNL     1       3.692   5.695  17.517  0.00  0.00    +0.000 OA
ATOM      4  H   UNL     1       2.080   5.433  20.232  0.00  0.00    +0.000 HD
ENDROOT
BRANCH   2   5
ATOM      5  C   UNL     1       2.432   7.327  18.637  0.00  0.00    +0.000 A 
ATOM      6  C   UNL     1       2.386   8.387  17.753  0.00  0.00    +0.000 A 
ATOM      7  C   UNL     1       1.698   9.434  18.406  0.00  0.00    +0.000 A 
ATOM      8  C   UNL     1       1.354   8.961  19.658  0.00  0.00    +0.000 A 
ATOM      9  O   UNL     1       1.816   7.682  19.806  0.00  0.00    +0.000 OA
BRANCH   8  10
ATOM     10  C   UNL     1       0.597   9.513  20.778  0.00  0.00    +0.000 A 
ATOM     11  C   UNL     1       0.694   8.943  22.059  0.00  0.00    +0.000 A 
ATOM     12  C   UNL     1       0.016   9.502  23.145  0.00  0.00    +0.000 A 
ATOM     13  C   UNL     1      -0.772  10.636  22.968  0.00  0.00    +0.000 A 
ATOM     14  C   UNL     1      -0.892  11.204  21.701  0.00  0.00    +0.000 A 
ATOM     15  C   UNL     1      -0.216  10.644  20.616  0.00  0.00    +0.000 A 
ENDBRANCH   8  10
ENDBRANCH   2   5
BRANCH   1  17
ATOM     16  C   UNL     1       2.644   3.018  20.800  0.00  0.00    +0.000 C 
ATOM     17  C   UNL     1       3.092   3.685  19.482  0.00  0.00    +0.000 C 
BRANCH  17  18
ATOM     18  C   UNL     1       4.636   3.610  19.330  0.00  0.00    +0.000 C 
BRANCH  18  19
ATOM     19  O   UNL     1       5.152   2.337  19.718  0.00  0.00    +0.000 OA
ATOM     20  H   UNL     1       5.580   2.454  20.584  0.00  0.00    +0.000 HD
ENDBRANCH  18  19
ENDBRANCH  17  18
BRANCH  17  21
ATOM     21  C   UNL     1       2.459   2.908  18.292  0.00  0.00    +0.000 C 
BRANCH  21  22
ATOM     22  O   UNL     1       2.644   1.498  18.425  0.00  0.00    +0.000 OA
ATOM     23  H   UNL     1       3.236   1.210  17.709  0.00  0.00    +0.000 HD
ENDBRANCH  21  22
ENDBRANCH  17  21
ENDBRANCH   1  17
TORSDOF 7
ENDMDL
