MODEL 1
REMARK VINA RESULT:      -7.1      0.000      0.000
REMARK  Name = 
REMARK  9 active torsions:
REMARK  status: ('A' for Active; 'I' for Inactive)
REMARK    1  A    between atoms: C_1  and  C_2
REMARK    2  A    between atoms: C_2  and  C_3
REMARK    3  A    between atoms: C_3  and  O_5
REMARK    4  A    between atoms: O_5  and  C_6
REMARK    5  A    between atoms: C_6  and  C_7
REMARK    6  A    between atoms: C_7  and  C_9
REMARK    7  A    between atoms: C_9  and  O_10
REMARK    8  A    between atoms: C_23  and  C_24
REMARK    9  A    between atoms: C_28  and  C_29
REMARK                            x       y       z     vdW  Elec       q    Type
REMARK                         _______ _______ _______ _____ _____    ______ ____
ROOT
ATOM      1  C   UNL     1       6.607   6.027  16.167  0.00  0.00    +0.000 C 
ATOM      2  C   UNL     1       5.149   6.363  15.814  0.00  0.00    +0.000 C 
ATOM      3  C   UNL     1       4.783   7.162  17.010  0.00  0.00    +0.000 C 
ATOM      4  C   UNL     1       5.240   6.207  18.104  0.00  0.00    +0.000 C 
ATOM      5  C   UNL     1       4.398   4.921  18.226  0.00  0.00    +0.000 C 
ATOM      6  C   UNL     1       2.903   5.091  17.962  0.00  0.00    +0.000 C 
ATOM      7  C   UNL     1       2.439   3.759  17.431  0.00  0.00    +0.000 C 
ATOM      8  C   UNL     1       2.673   2.657  18.430  0.00  0.00    +0.000 C 
ATOM      9  C   UNL     1       1.676   1.751  18.544  0.00  0.00    +0.000 C 
ATOM     10  C   UNL     1       0.713   2.456  19.443  0.00  0.00    +0.000 C 
ATOM     11  O   UNL     1      -0.431   2.706  19.076  0.00  0.00    +0.000 OA
ATOM     12  C   UNL     1       1.260   2.813  20.813  0.00  0.00    +0.000 C 
ATOM     13  C   UNL     1       2.810   2.706  20.938  0.00  0.00    +0.000 C 
ATOM     14  C   UNL     1       3.675   2.846  19.609  0.00  0.00    +0.000 C 
ATOM     15  C   UNL     1       4.644   1.644  19.554  0.00  0.00    +0.000 C 
ATOM     16  C   UNL     1       4.529   4.236  19.588  0.00  0.00    +0.000 C 
ATOM     17  C   UNL     1       6.048   4.202  19.911  0.00  0.00    +0.000 C 
ATOM     18  C   UNL     1       6.852   5.473  19.432  0.00  0.00    +0.000 C 
ATOM     19  C   UNL     1       6.858   5.875  17.847  0.00  0.00    +0.000 C 
ATOM     20  C   UNL     1       7.781   4.601  17.595  0.00  0.00    +0.000 C 
ENDROOT
BRANCH   1  21
ATOM     21  C   UNL     1       6.982   4.901  15.093  0.00  0.00    +0.000 C 
ATOM     22  O   UNL     1       8.137   4.760  14.673  0.00  0.00    +0.000 OA
BRANCH  21  23
ATOM     23  C   UNL     1       5.864   3.921  14.674  0.00  0.00    +0.000 C 
BRANCH  23  24
ATOM     24  O   UNL     1       5.305   4.109  13.373  0.00  0.00    +0.000 OA
BRANCH  24  25
ATOM     25  C   UNL     1       5.952   3.461  12.361  0.00  0.00    +0.000 C 
ATOM     26  O   UNL     1       7.119   3.679  12.038  0.00  0.00    +0.000 OA
BRANCH  25  28
ATOM     27  C   UNL     1       3.793   3.246  11.075  0.00  0.00    +0.000 C 
ATOM     28  C   UNL     1       5.010   2.527  11.640  0.00  0.00    +0.000 C 
ENDBRANCH  25  28
ENDBRANCH  24  25
ENDBRANCH  23  24
ENDBRANCH  21  23
ENDBRANCH   1  21
BRANCH   1  29
ATOM     29  O   UNL     1       7.380   7.212  15.822  0.00  0.00    +0.000 OA
ATOM     30  H   UNL     1       7.470   7.767  16.616  0.00  0.00    +0.000 HD
ENDBRANCH   1  29
TORSDOF 6
ENDMDL
MODEL 2
REMARK VINA RESULT:      -6.5      2.815      5.573
REMARK  Name = 
REMARK  9 active torsions:
REMARK  status: ('A' for Active; 'I' for Inactive)
REMARK    1  A    between atoms: C_1  and  C_2
REMARK    2  A    between atoms: C_2  and  C_3
REMARK    3  A    between atoms: C_3  and  O_5
REMARK    4  A    between atoms: O_5  and  C_6
REMARK    5  A    between atoms: C_6  and  C_7
REMARK    6  A    between atoms: C_7  and  C_9
REMARK    7  A    between atoms: C_9  and  O_10
REMARK    8  A    between atoms: C_23  and  C_24
REMARK    9  A    between atoms: C_28  and  C_29
REMARK                            x       y       z     vdW  Elec       q    Type
REMARK                         _______ _______ _______ _____ _____    ______ ____
ROOT
ATOM      1  C   UNL     1       6.980   6.126  17.054  0.00  0.00    +0.000 C 
ATOM      2  C   UNL     1       7.054   4.633  17.407  0.00  0.00    +0.000 C 
ATOM      3  C   UNL     1       6.049   4.102  16.453  0.00  0.00    +0.000 C 
ATOM      4  C   UNL     1       4.887   5.038  16.762  0.00  0.00    +0.000 C 
ATOM      5  C   UNL     1       4.249   4.830  18.150  0.00  0.00    +0.000 C 
ATOM      6  C   UNL     1       4.188   3.382  18.632  0.00  0.00    +0.000 C 
ATOM      7  C   UNL     1       4.240   3.461  20.136  0.00  0.00    +0.000 C 
ATOM      8  C   UNL     1       3.077   4.246  20.686  0.00  0.00    +0.000 C 
ATOM      9  C   UNL     1       2.507   3.740  21.802  0.00  0.00    +0.000 C 
ATOM     10  C   UNL     1       1.616   2.677  21.243  0.00  0.00    +0.000 C 
ATOM     11  O   UNL     1       1.755   1.501  21.562  0.00  0.00    +0.000 OA
ATOM     12  C   UNL     1       0.550   3.175  20.286  0.00  0.00    +0.000 C 
ATOM     13  C   UNL     1       0.769   4.631  19.774  0.00  0.00    +0.000 C 
ATOM     14  C   UNL     1       2.255   5.202  19.771  0.00  0.00    +0.000 C 
ATOM     15  C   UNL     1       2.230   6.573  20.484  0.00  0.00    +0.000 C 
ATOM     16  C   UNL     1       2.828   5.388  18.254  0.00  0.00    +0.000 C 
ATOM     17  C   UNL     1       2.873   6.808  17.625  0.00  0.00    +0.000 C 
ATOM     18  C   UNL     1       3.834   6.946  16.380  0.00  0.00    +0.000 C 
ATOM     19  C   UNL     1       5.424   6.606  16.546  0.00  0.00    +0.000 C 
ATOM     20  C   UNL     1       5.554   7.942  17.403  0.00  0.00    +0.000 C 
ENDROOT
BRANCH   1  21
ATOM     21  C   UNL     1       7.790   6.815  18.250  0.00  0.00    +0.000 C 
ATOM     22  O   UNL     1       8.086   6.197  19.279  0.00  0.00    +0.000 OA
BRANCH  21  23
ATOM     23  C   UNL     1       8.284   8.262  18.030  0.00  0.00    +0.000 C 
BRANCH  23  24
ATOM     24  O   UNL     1       8.958   8.881  19.126  0.00  0.00    +0.000 OA
BRANCH  24  25
ATOM     25  C   UNL     1       9.236  10.208  18.967  0.00  0.00    +0.000 C 
ATOM     26  O   UNL     1       9.423  10.747  17.877  0.00  0.00    +0.000 OA
BRANCH  25  28
ATOM     27  C   UNL     1      10.588  11.809  20.370  0.00  0.00    +0.000 C 
ATOM     28  C   UNL     1       9.379  10.886  20.309  0.00  0.00    +0.000 C 
ENDBRANCH  25  28
ENDBRANCH  24  25
ENDBRANCH  23  24
ENDBRANCH  21  23
ENDBRANCH   1  21
BRANCH   1  29
ATOM     29  O   UNL     1       7.786   6.288  15.852  0.00  0.00    +0.000 OA
ATOM     30  H   UNL     1       7.750   5.462  15.339  0.00  0.00    +0.000 HD
ENDBRANCH   1  29
TORSDOF 6
ENDMDL
MODEL 3
REMARK VINA RESULT:      -6.5      2.707      5.373
REMARK  Name = 
REMARK  9 active torsions:
REMARK  status: ('A' for Active; 'I' for Inactive)
REMARK    1  A    between atoms: C_1  and  C_2
REMARK    2  A    between atoms: C_2  and  C_3
REMARK    3  A    between atoms: C_3  and  O_5
REMARK    4  A    between atoms: O_5  and  C_6
REMARK    5  A    between atoms: C_6  and  C_7
REMARK    6  A    between atoms: C_7  and  C_9
REMARK    7  A    between atoms: C_9  and  O_10
REMARK    8  A    between atoms: C_23  and  C_24
REMARK    9  A    between atoms: C_28  and  C_29
REMARK                            x       y       z     vdW  Elec       q    Type
REMARK                         _______ _______ _______ _____ _____    ______ ____
ROOT
ATOM      1  C   UNL     1       6.928   6.526  17.235  0.00  0.00    +0.000 C 
ATOM      2  C   UNL     1       7.122   6.006  18.667  0.00  0.00    +0.000 C 
ATOM      3  C   UNL     1       7.317   4.562  18.383  0.00  0.00    +0.000 C 
ATOM      4  C   UNL     1       6.103   4.312  17.498  0.00  0.00    +0.000 C 
ATOM      5  C   UNL     1       4.749   4.382  18.232  0.00  0.00    +0.000 C 
ATOM      6  C   UNL     1       4.752   3.845  19.663  0.00  0.00    +0.000 C 
ATOM      7  C   UNL     1       3.675   4.617  20.380  0.00  0.00    +0.000 C 
ATOM      8  C   UNL     1       2.327   4.403  19.742  0.00  0.00    +0.000 C 
ATOM      9  C   UNL     1       1.294   4.249  20.599  0.00  0.00    +0.000 C 
ATOM     10  C   UNL     1       1.418   2.810  20.984  0.00  0.00    +0.000 C 
ATOM     11  O   UNL     1       1.593   2.479  22.153  0.00  0.00    +0.000 OA
ATOM     12  C   UNL     1       1.300   1.827  19.834  0.00  0.00    +0.000 C 
ATOM     13  C   UNL     1       1.417   2.472  18.419  0.00  0.00    +0.000 C 
ATOM     14  C   UNL     1       2.209   3.847  18.292  0.00  0.00    +0.000 C 
ATOM     15  C   UNL     1       1.307   4.835  17.518  0.00  0.00    +0.000 C 
ATOM     16  C   UNL     1       3.620   3.659  17.494  0.00  0.00    +0.000 C 
ATOM     17  C   UNL     1       3.721   4.102  16.008  0.00  0.00    +0.000 C 
ATOM     18  C   UNL     1       5.195   4.303  15.479  0.00  0.00    +0.000 C 
ATOM     19  C   UNL     1       6.177   5.382  16.216  0.00  0.00    +0.000 C 
ATOM     20  C   UNL     1       5.279   6.534  15.581  0.00  0.00    +0.000 C 
ENDROOT
BRANCH   1  21
ATOM     21  C   UNL     1       6.391   8.016  17.466  0.00  0.00    +0.000 C 
ATOM     22  O   UNL     1       5.198   8.252  17.692  0.00  0.00    +0.000 OA
BRANCH  21  23
ATOM     23  C   UNL     1       7.440   9.150  17.502  0.00  0.00    +0.000 C 
BRANCH  23  24
ATOM     24  O   UNL     1       8.539   8.975  18.398  0.00  0.00    +0.000 OA
BRANCH  24  25
ATOM     25  C   UNL     1       9.016  10.120  18.966  0.00  0.00    +0.000 C 
ATOM     26  O   UNL     1       9.239  10.253  20.169  0.00  0.00    +0.000 OA
BRANCH  25  28
ATOM     27  C   UNL     1      10.572  11.650  17.702  0.00  0.00    +0.000 C 
ATOM     28  C   UNL     1       9.132  11.217  17.934  0.00  0.00    +0.000 C 
ENDBRANCH  25  28
ENDBRANCH  24  25
ENDBRANCH  23  24
ENDBRANCH  21  23
ENDBRANCH   1  21
BRANCH   1  29
ATOM     29  O   UNL     1       8.266   6.643  16.672  0.00  0.00    +0.000 OA
ATOM     30  H   UNL     1       8.894   6.813  17.396  0.00  0.00    +0.000 HD
ENDBRANCH   1  29
TORSDOF 6
ENDMDL
MODEL 4
REMARK VINA RESULT:      -6.4      9.013     11.047
REMARK  Name = 
REMARK  9 active torsions:
REMARK  status: ('A' for Active; 'I' for Inactive)
REMARK    1  A    between atoms: C_1  and  C_2
REMARK    2  A    between atoms: C_2  and  C_3
REMARK    3  A    between atoms: C_3  and  O_5
REMARK    4  A    between atoms: O_5  and  C_6
REMARK    5  A    between atoms: C_6  and  C_7
REMARK    6  A    between atoms: C_7  and  C_9
REMARK    7  A    between atoms: C_9  and  O_10
REMARK    8  A    between atoms: C_23  and  C_24
REMARK    9  A    between atoms: C_28  and  C_29
REMARK                            x       y       z     vdW  Elec       q    Type
REMARK                         _______ _______ _______ _____ _____    ______ ____
ROOT
ATOM      1  C   UNL     1       0.030  10.621  18.947  0.00  0.00    +0.000 C 
ATOM      2  C   UNL     1      -1.483  10.360  18.928  0.00  0.00    +0.000 C 
ATOM      3  C   UNL     1      -1.919  11.485  18.064  0.00  0.00    +0.000 C 
ATOM      4  C   UNL     1      -1.219  12.637  18.775  0.00  0.00    +0.000 C 
ATOM      5  C   UNL     1      -1.792  12.974  20.166  0.00  0.00    +0.000 C 
ATOM      6  C   UNL     1      -3.306  12.822  20.304  0.00  0.00    +0.000 C 
ATOM      7  C   UNL     1      -3.541  12.486  21.754  0.00  0.00    +0.000 C 
ATOM      8  C   UNL     1      -3.039  13.579  22.661  0.00  0.00    +0.000 C 
ATOM      9  C   UNL     1      -3.836  13.880  23.711  0.00  0.00    +0.000 C 
ATOM     10  C   UNL     1      -4.856  14.773  23.083  0.00  0.00    +0.000 C 
ATOM     11  O   UNL     1      -6.048  14.480  23.093  0.00  0.00    +0.000 OA
ATOM     12  C   UNL     1      -4.301  16.042  22.463  0.00  0.00    +0.000 C 
ATOM     13  C   UNL     1      -2.754  16.044  22.271  0.00  0.00    +0.000 C 
ATOM     14  C   UNL     1      -2.018  14.638  22.146  0.00  0.00    +0.000 C 
ATOM     15  C   UNL     1      -0.843  14.635  23.150  0.00  0.00    +0.000 C 
ATOM     16  C   UNL     1      -1.447  14.388  20.638  0.00  0.00    +0.000 C 
ATOM     17  C   UNL     1       0.069  14.581  20.355  0.00  0.00    +0.000 C 
ATOM     18  C   UNL     1       0.584  13.895  19.031  0.00  0.00    +0.000 C 
ATOM     19  C   UNL     1       0.413  12.280  18.839  0.00  0.00    +0.000 C 
ATOM     20  C   UNL     1       1.543  12.094  19.945  0.00  0.00    +0.000 C 
ENDROOT
BRANCH   1  21
ATOM     21  C   UNL     1       0.544   9.653  20.114  0.00  0.00    +0.000 C 
ATOM     22  O   UNL     1       0.032   9.658  21.239  0.00  0.00    +0.000 OA
BRANCH  21  23
ATOM     23  C   UNL     1       1.643   8.629  19.751  0.00  0.00    +0.000 C 
BRANCH  23  24
ATOM     24  O   UNL     1       1.659   7.415  20.505  0.00  0.00    +0.000 OA
BRANCH  24  25
ATOM     25  C   UNL     1       2.183   6.334  19.858  0.00  0.00    +0.000 C 
ATOM     26  O   UNL     1       2.571   6.350  18.690  0.00  0.00    +0.000 OA
BRANCH  25  28
ATOM     27  C   UNL     1       1.006   4.155  20.336  0.00  0.00    +0.000 C 
ATOM     28  C   UNL     1       2.123   5.108  20.738  0.00  0.00    +0.000 C 
ENDBRANCH  25  28
ENDBRANCH  24  25
ENDBRANCH  23  24
ENDBRANCH  21  23
ENDBRANCH   1  21
BRANCH   1  29
ATOM     29  O   UNL     1       0.541  10.080  17.695  0.00  0.00    +0.000 OA
ATOM     30  H   UNL     1      -0.145  10.178  17.012  0.00  0.00    +0.000 HD
ENDBRANCH   1  29
TORSDOF 6
ENDMDL
MODEL 5
REMARK VINA RESULT:      -6.3     10.048     12.664
REMARK  Name = 
REMARK  9 active torsions:
REMARK  status: ('A' for Active; 'I' for Inactive)
REMARK    1  A    between atoms: C_1  and  C_2
REMARK    2  A    between atoms: C_2  and  C_3
REMARK    3  A    between atoms: C_3  and  O_5
REMARK    4  A    between atoms: O_5  and  C_6
REMARK    5  A    between atoms: C_6  and  C_7
REMARK    6  A    between atoms: C_7  and  C_9
REMARK    7  A    between atoms: C_9  and  O_10
REMARK    8  A    between atoms: C_23  and  C_24
REMARK    9  A    between atoms: C_28  and  C_29
REMARK                            x       y       z     vdW  Elec       q    Type
REMARK                         _______ _______ _______ _____ _____    ______ ____
ROOT
ATOM      1  C   UNL     1       6.344  13.754  23.731  0.00  0.00    +0.000 C 
ATOM      2  C   UNL     1       6.536  12.375  23.083  0.00  0.00    +0.000 C 
ATOM      3  C   UNL     1       7.833  11.992  23.693  0.00  0.00    +0.000 C 
ATOM      4  C   UNL     1       8.640  13.245  23.382  0.00  0.00    +0.000 C 
ATOM      5  C   UNL     1       8.961  13.446  21.887  0.00  0.00    +0.000 C 
ATOM      6  C   UNL     1       9.238  12.166  21.100  0.00  0.00    +0.000 C 
ATOM      7  C   UNL     1       8.814  12.470  19.686  0.00  0.00    +0.000 C 
ATOM      8  C   UNL     1       9.600  13.620  19.111  0.00  0.00    +0.000 C 
ATOM      9  C   UNL     1       9.990  13.475  17.825  0.00  0.00    +0.000 C 
ATOM     10  C   UNL     1      11.209  12.620  17.962  0.00  0.00    +0.000 C 
ATOM     11  O   UNL     1      11.273  11.517  17.428  0.00  0.00    +0.000 OA
ATOM     12  C   UNL     1      12.327  13.228  18.787  0.00  0.00    +0.000 C 
ATOM     13  C   UNL     1      11.905  14.467  19.635  0.00  0.00    +0.000 C 
ATOM     14  C   UNL     1      10.372  14.603  20.040  0.00  0.00    +0.000 C 
ATOM     15  C   UNL     1       9.910  16.025  19.649  0.00  0.00    +0.000 C 
ATOM     16  C   UNL     1      10.149  14.379  21.641  0.00  0.00    +0.000 C 
ATOM     17  C   UNL     1       9.927  15.612  22.560  0.00  0.00    +0.000 C 
ATOM     18  C   UNL     1       9.284  15.282  23.963  0.00  0.00    +0.000 C 
ATOM     19  C   UNL     1       7.822  14.552  24.029  0.00  0.00    +0.000 C 
ATOM     20  C   UNL     1       7.188  15.922  23.522  0.00  0.00    +0.000 C 
ENDROOT
BRANCH   1  21
ATOM     21  C   UNL     1       5.137  14.380  22.886  0.00  0.00    +0.000 C 
ATOM     22  O   UNL     1       4.107  14.795  23.430  0.00  0.00    +0.000 OA
BRANCH  21  23
ATOM     23  C   UNL     1       5.348  14.545  21.365  0.00  0.00    +0.000 C 
BRANCH  23  24
ATOM     24  O   UNL     1       4.177  14.492  20.548  0.00  0.00    +0.000 OA
BRANCH  24  25
ATOM     25  C   UNL     1       4.282  15.113  19.338  0.00  0.00    +0.000 C 
ATOM     26  O   UNL     1       3.326  15.357  18.602  0.00  0.00    +0.000 OA
BRANCH  25  28
ATOM     27  C   UNL     1       6.203  14.515  17.817  0.00  0.00    +0.000 C 
ATOM     28  C   UNL     1       5.731  15.361  18.991  0.00  0.00    +0.000 C 
ENDBRANCH  25  28
ENDBRANCH  24  25
ENDBRANCH  23  24
ENDBRANCH  21  23
ENDBRANCH   1  21
BRANCH   1  29
ATOM     29  O   UNL     1       5.832  13.495  25.069  0.00  0.00    +0.000 OA
ATOM     30  H   UNL     1       5.453  12.599  25.089  0.00  0.00    +0.000 HD
ENDBRANCH   1  29
TORSDOF 6
ENDMDL
MODEL 6
REMARK VINA RESULT:      -6.2     10.191     12.342
REMARK  Name = 
REMARK  9 active torsions:
REMARK  status: ('A' for Active; 'I' for Inactive)
REMARK    1  A    between atoms: C_1  and  C_2
REMARK    2  A    between atoms: C_2  and  C_3
REMARK    3  A    between atoms: C_3  and  O_5
REMARK    4  A    between atoms: O_5  and  C_6
REMARK    5  A    between atoms: C_6  and  C_7
REMARK    6  A    between atoms: C_7  and  C_9
REMARK    7  A    between atoms: C_9  and  O_10
REMARK    8  A    between atoms: C_23  and  C_24
REMARK    9  A    between atoms: C_28  and  C_29
REMARK                            x       y       z     vdW  Elec       q    Type
REMARK                         _______ _______ _______ _____ _____    ______ ____
ROOT
ATOM      1  C   UNL     1      -0.158  11.288  18.637  0.00  0.00    +0.000 C 
ATOM      2  C   UNL     1      -0.105  12.792  18.331  0.00  0.00    +0.000 C 
ATOM      3  C   UNL     1       0.958  13.202  19.282  0.00  0.00    +0.000 C 
ATOM      4  C   UNL     1       0.417  12.568  20.557  0.00  0.00    +0.000 C 
ATOM      5  C   UNL     1      -0.866  13.225  21.105  0.00  0.00    +0.000 C 
ATOM      6  C   UNL     1      -0.949  14.741  20.933  0.00  0.00    +0.000 C 
ATOM      7  C   UNL     1      -2.421  15.050  20.837  0.00  0.00    +0.000 C 
ATOM      8  C   UNL     1      -3.155  14.623  22.082  0.00  0.00    +0.000 C 
ATOM      9  C   UNL     1      -4.096  15.483  22.529  0.00  0.00    +0.000 C 
ATOM     10  C   UNL     1      -3.274  16.486  23.274  0.00  0.00    +0.000 C 
ATOM     11  O   UNL     1      -3.272  17.669  22.950  0.00  0.00    +0.000 OA
ATOM     12  C   UNL     1      -2.478  15.924  24.437  0.00  0.00    +0.000 C 
ATOM     13  C   UNL     1      -2.369  14.369  24.454  0.00  0.00    +0.000 C 
ATOM     14  C   UNL     1      -2.522  13.597  23.069  0.00  0.00    +0.000 C 
ATOM     15  C   UNL     1      -3.571  12.481  23.271  0.00  0.00    +0.000 C 
ATOM     16  C   UNL     1      -1.109  12.937  22.588  0.00  0.00    +0.000 C 
ATOM     17  C   UNL     1      -0.877  11.412  22.776  0.00  0.00    +0.000 C 
ATOM     18  C   UNL     1       0.284  10.809  21.894  0.00  0.00    +0.000 C 
ATOM     19  C   UNL     1       0.209  10.935  20.265  0.00  0.00    +0.000 C 
ATOM     20  C   UNL     1      -0.970   9.865  20.302  0.00  0.00    +0.000 C 
ENDROOT
BRANCH   1  21
ATOM     21  C   UNL     1      -1.496  10.820  17.894  0.00  0.00    +0.000 C 
ATOM     22  O   UNL     1      -1.529   9.805  17.188  0.00  0.00    +0.000 OA
BRANCH  21  23
ATOM     23  C   UNL     1      -2.783  11.628  18.175  0.00  0.00    +0.000 C 
BRANCH  23  24
ATOM     24  O   UNL     1      -4.010  11.051  17.728  0.00  0.00    +0.000 OA
BRANCH  24  25
ATOM     25  C   UNL     1      -5.131  11.494  18.368  0.00  0.00    +0.000 C 
ATOM     26  O   UNL     1      -6.276  11.322  17.953  0.00  0.00    +0.000 OA
BRANCH  25  28
ATOM     27  C   UNL     1      -5.801  13.362  19.924  0.00  0.00    +0.000 C 
ATOM     28  C   UNL     1      -4.760  12.302  19.589  0.00  0.00    +0.000 C 
ENDBRANCH  25  28
ENDBRANCH  24  25
ENDBRANCH  23  24
ENDBRANCH  21  23
ENDBRANCH   1  21
BRANCH   1  29
ATOM     29  O   UNL     1       0.956  10.697  17.910  0.00  0.00    +0.000 OA
ATOM     30  H   UNL     1       1.046   9.767  18.181  0.00  0.00    +0.000 HD
ENDBRANCH   1  29
TORSDOF 6
ENDMDL
MODEL 7
REMARK VINA RESULT:      -6.2      9.070     10.907
REMARK  Name = 
REMARK  9 active torsions:
REMARK  status: ('A' for Active; 'I' for Inactive)
REMARK    1  A    between atoms: C_1  and  C_2
REMARK    2  A    between atoms: C_2  and  C_3
REMARK    3  A    between atoms: C_3  and  O_5
REMARK    4  A    between atoms: O_5  and  C_6
REMARK    5  A    between atoms: C_6  and  C_7
REMARK    6  A    between atoms: C_7  and  C_9
REMARK    7  A    between atoms: C_9  and  O_10
REMARK    8  A    between atoms: C_23  and  C_24
REMARK    9  A    between atoms: C_28  and  C_29
REMARK                            x       y       z     vdW  Elec       q    Type
REMARK                         _______ _______ _______ _____ _____    ______ ____
ROOT
ATOM      1  C   UNL     1      -0.006  10.677  19.016  0.00  0.00    +0.000 C 
ATOM      2  C   UNL     1      -1.520  10.452  18.884  0.00  0.00    +0.000 C 
ATOM      3  C   UNL     1      -1.879  11.643  18.073  0.00  0.00    +0.000 C 
ATOM      4  C   UNL     1      -1.205  12.728  18.904  0.00  0.00    +0.000 C 
ATOM      5  C   UNL     1      -1.860  12.983  20.276  0.00  0.00    +0.000 C 
ATOM      6  C   UNL     1      -3.383  12.857  20.308  0.00  0.00    +0.000 C 
ATOM      7  C   UNL     1      -3.717  12.430  21.714  0.00  0.00    +0.000 C 
ATOM      8  C   UNL     1      -3.254  13.448  22.723  0.00  0.00    +0.000 C 
ATOM      9  C   UNL     1      -4.111  13.695  23.739  0.00  0.00    +0.000 C 
ATOM     10  C   UNL     1      -5.073  14.651  23.111  0.00  0.00    +0.000 C 
ATOM     11  O   UNL     1      -6.267  14.385  23.026  0.00  0.00    +0.000 OA
ATOM     12  C   UNL     1      -4.456  15.946  22.615  0.00  0.00    +0.000 C 
ATOM     13  C   UNL     1      -2.900  15.926  22.522  0.00  0.00    +0.000 C 
ATOM     14  C   UNL     1      -2.183  14.515  22.347  0.00  0.00    +0.000 C 
ATOM     15  C   UNL     1      -1.075  14.419  23.420  0.00  0.00    +0.000 C 
ATOM     16  C   UNL     1      -1.521  14.355  20.864  0.00  0.00    +0.000 C 
ATOM     17  C   UNL     1       0.013  14.532  20.691  0.00  0.00    +0.000 C 
ATOM     18  C   UNL     1       0.600  13.925  19.358  0.00  0.00    +0.000 C 
ATOM     19  C   UNL     1       0.412  12.331  19.045  0.00  0.00    +0.000 C 
ATOM     20  C   UNL     1       1.465  12.046  20.205  0.00  0.00    +0.000 C 
ENDROOT
BRANCH   1  21
ATOM     21  C   UNL     1       0.414   9.622  20.143  0.00  0.00    +0.000 C 
ATOM     22  O   UNL     1      -0.337   9.337  21.083  0.00  0.00    +0.000 OA
BRANCH  21  23
ATOM     23  C   UNL     1       1.760   8.887  19.958  0.00  0.00    +0.000 C 
BRANCH  23  24
ATOM     24  O   UNL     1       1.724   7.664  19.221  0.00  0.00    +0.000 OA
BRANCH  24  25
ATOM     25  C   UNL     1       2.552   7.612  18.137  0.00  0.00    +0.000 C 
ATOM     26  O   UNL     1       2.743   8.554  17.369  0.00  0.00    +0.000 OA
BRANCH  25  28
ATOM     27  C   UNL     1       2.251   5.157  18.629  0.00  0.00    +0.000 C 
ATOM     28  C   UNL     1       3.111   6.221  17.962  0.00  0.00    +0.000 C 
ENDBRANCH  25  28
ENDBRANCH  24  25
ENDBRANCH  23  24
ENDBRANCH  21  23
ENDBRANCH   1  21
BRANCH   1  29
ATOM     29  O   UNL     1       0.573  10.211  17.765  0.00  0.00    +0.000 OA
ATOM     30  H   UNL     1       0.643  10.964  17.154  0.00  0.00    +0.000 HD
ENDBRANCH   1  29
TORSDOF 6
ENDMDL
MODEL 8
REMARK VINA RESULT:      -6.2      9.889     12.692
REMARK  Name = 
REMARK  9 active torsions:
REMARK  status: ('A' for Active; 'I' for Inactive)
REMARK    1  A    between atoms: C_1  and  C_2
REMARK    2  A    between atoms: C_2  and  C_3
REMARK    3  A    between atoms: C_3  and  O_5
REMARK    4  A    between atoms: O_5  and  C_6
REMARK    5  A    between atoms: C_6  and  C_7
REMARK    6  A    between atoms: C_7  and  C_9
REMARK    7  A    between atoms: C_9  and  O_10
REMARK    8  A    between atoms: C_23  and  C_24
REMARK    9  A    between atoms: C_28  and  C_29
REMARK                            x       y       z     vdW  Elec       q    Type
REMARK                         _______ _______ _______ _____ _____    ______ ____
ROOT
ATOM      1  C   UNL     1      10.632  12.575  18.606  0.00  0.00    +0.000 C 
ATOM      2  C   UNL     1       9.143  12.202  18.539  0.00  0.00    +0.000 C 
ATOM      3  C   UNL     1       8.716  13.086  17.426  0.00  0.00    +0.000 C 
ATOM      4  C   UNL     1       9.284  14.410  17.921  0.00  0.00    +0.000 C 
ATOM      5  C   UNL     1       8.577  14.985  19.165  0.00  0.00    +0.000 C 
ATOM      6  C   UNL     1       7.068  14.752  19.227  0.00  0.00    +0.000 C 
ATOM      7  C   UNL     1       6.733  14.708  20.695  0.00  0.00    +0.000 C 
ATOM      8  C   UNL     1       7.091  16.001  21.380  0.00  0.00    +0.000 C 
ATOM      9  C   UNL     1       6.193  16.452  22.283  0.00  0.00    +0.000 C 
ATOM     10  C   UNL     1       5.177  17.115  21.410  0.00  0.00    +0.000 C 
ATOM     11  O   UNL     1       4.009  16.741  21.400  0.00  0.00    +0.000 OA
ATOM     12  C   UNL     1       5.706  18.265  20.574  0.00  0.00    +0.000 C 
ATOM     13  C   UNL     1       7.261  18.345  20.493  0.00  0.00    +0.000 C 
ATOM     14  C   UNL     1       8.087  17.003  20.723  0.00  0.00    +0.000 C 
ATOM     15  C   UNL     1       9.172  17.299  21.783  0.00  0.00    +0.000 C 
ATOM     16  C   UNL     1       8.797  16.489  19.346  0.00  0.00    +0.000 C 
ATOM     17  C   UNL     1      10.316  16.733  19.135  0.00  0.00    +0.000 C 
ATOM     18  C   UNL     1      10.981  15.827  18.027  0.00  0.00    +0.000 C 
ATOM     19  C   UNL     1      10.923  14.199  18.173  0.00  0.00    +0.000 C 
ATOM     20  C   UNL     1      11.965  14.335  19.369  0.00  0.00    +0.000 C 
ENDROOT
BRANCH   1  21
ATOM     21  C   UNL     1      11.103  11.913  19.985  0.00  0.00    +0.000 C 
ATOM     22  O   UNL     1      12.257  11.501  20.150  0.00  0.00    +0.000 OA
BRANCH  21  23
ATOM     23  C   UNL     1      10.086  11.900  21.149  0.00  0.00    +0.000 C 
BRANCH  23  24
ATOM     24  O   UNL     1       9.855  13.146  21.809  0.00  0.00    +0.000 OA
BRANCH  24  25
ATOM     25  C   UNL     1       8.958  13.104  22.836  0.00  0.00    +0.000 C 
ATOM     26  O   UNL     1       8.846  13.982  23.691  0.00  0.00    +0.000 OA
BRANCH  25  28
ATOM     27  C   UNL     1       6.752  11.956  23.257  0.00  0.00    +0.000 C 
ATOM     28  C   UNL     1       8.204  11.795  22.830  0.00  0.00    +0.000 C 
ENDBRANCH  25  28
ENDBRANCH  24  25
ENDBRANCH  23  24
ENDBRANCH  21  23
ENDBRANCH   1  21
BRANCH   1  29
ATOM     29  O   UNL     1      11.276  11.826  17.537  0.00  0.00    +0.000 OA
ATOM     30  H   UNL     1      12.032  12.342  17.207  0.00  0.00    +0.000 HD
ENDBRANCH   1  29
TORSDOF 6
ENDMDL
MODEL 9
REMARK VINA RESULT:      -6.1      0.936      1.167
REMARK  Name = 
REMARK  9 active torsions:
REMARK  status: ('A' for Active; 'I' for Inactive)
REMARK    1  A    between atoms: C_1  and  C_2
REMARK    2  A    between atoms: C_2  and  C_3
REMARK    3  A    between atoms: C_3  and  O_5
REMARK    4  A    between atoms: O_5  and  C_6
REMARK    5  A    between atoms: C_6  and  C_7
REMARK    6  A    between atoms: C_7  and  C_9
REMARK    7  A    between atoms: C_9  and  O_10
REMARK    8  A    between atoms: C_23  and  C_24
REMARK    9  A    between atoms: C_28  and  C_29
REMARK                            x       y       z     vdW  Elec       q    Type
REMARK                         _______ _______ _______ _____ _____    ______ ____
ROOT
ATOM      1  C   UNL     1       6.394   5.739  15.814  0.00  0.00    +0.000 C 
ATOM      2  C   UNL     1       4.925   6.093  15.538  0.00  0.00    +0.000 C 
ATOM      3  C   UNL     1       4.678   7.025  16.666  0.00  0.00    +0.000 C 
ATOM      4  C   UNL     1       5.191   6.172  17.818  0.00  0.00    +0.000 C 
ATOM      5  C   UNL     1       4.322   4.939  18.139  0.00  0.00    +0.000 C 
ATOM      6  C   UNL     1       2.816   5.138  17.971  0.00  0.00    +0.000 C 
ATOM      7  C   UNL     1       2.272   3.778  17.621  0.00  0.00    +0.000 C 
ATOM      8  C   UNL     1       2.550   2.776  18.712  0.00  0.00    +0.000 C 
ATOM      9  C   UNL     1       1.538   1.926  18.996  0.00  0.00    +0.000 C 
ATOM     10  C   UNL     1       0.670   2.758  19.885  0.00  0.00    +0.000 C 
ATOM     11  O   UNL     1      -0.490   3.012  19.580  0.00  0.00    +0.000 OA
ATOM     12  C   UNL     1       1.334   3.234  21.164  0.00  0.00    +0.000 C 
ATOM     13  C   UNL     1       2.885   3.080  21.183  0.00  0.00    +0.000 C 
ATOM     14  C   UNL     1       3.647   3.048  19.785  0.00  0.00    +0.000 C 
ATOM     15  C   UNL     1       4.572   1.811  19.786  0.00  0.00    +0.000 C 
ATOM     16  C   UNL     1       4.539   4.395  19.553  0.00  0.00    +0.000 C 
ATOM     17  C   UNL     1       6.077   4.336  19.762  0.00  0.00    +0.000 C 
ATOM     18  C   UNL     1       6.879   5.518  19.092  0.00  0.00    +0.000 C 
ATOM     19  C   UNL     1       6.773   5.752  17.477  0.00  0.00    +0.000 C 
ATOM     20  C   UNL     1       7.633   4.425  17.294  0.00  0.00    +0.000 C 
ENDROOT
BRANCH   1  21
ATOM     21  C   UNL     1       6.650   4.494  14.841  0.00  0.00    +0.000 C 
ATOM     22  O   UNL     1       6.420   3.332  15.195  0.00  0.00    +0.000 OA
BRANCH  21  23
ATOM     23  C   UNL     1       7.100   4.804  13.396  0.00  0.00    +0.000 C 
BRANCH  23  24
ATOM     24  O   UNL     1       7.520   3.692  12.605  0.00  0.00    +0.000 OA
BRANCH  24  25
ATOM     25  C   UNL     1       6.532   3.077  11.892  0.00  0.00    +0.000 C 
ATOM     26  O   UNL     1       5.342   3.384  11.955  0.00  0.00    +0.000 OA
BRANCH  25  28
ATOM     27  C   UNL     1       6.153   0.714  11.097  0.00  0.00    +0.000 C 
ATOM     28  C   UNL     1       7.089   1.915  11.106  0.00  0.00    +0.000 C 
ENDBRANCH  25  28
ENDBRANCH  24  25
ENDBRANCH  23  24
ENDBRANCH  21  23
ENDBRANCH   1  21
BRANCH   1  29
ATOM     29  O   UNL     1       7.174   6.851  15.288  0.00  0.00    +0.000 OA
ATOM     30  H   UNL     1       6.562   7.526  14.947  0.00  0.00    +0.000 HD
ENDBRANCH   1  29
TORSDOF 6
ENDMDL
