MODEL 1
REMARK VINA RESULT:      -6.4      0.000      0.000
REMARK  Name = 
REMARK  2 active torsions:
REMARK  status: ('A' for Active; 'I' for Inactive)
REMARK    1  A    between atoms: N_17  and  C_18
REMARK    2  A    between atoms: C_18  and  C_19
REMARK                            x       y       z     vdW  Elec       q    Type
REMARK                         _______ _______ _______ _____ _____    ______ ____
ROOT
ATOM      1  O   UNL     1       1.261   4.942  17.545  0.00  0.00    +0.000 OA
ATOM      2  S   UNL     1       1.903   6.138  18.043  0.00  0.00    +0.000 S 
ATOM      3  O   UNL     1       1.769   7.393  17.322  0.00  0.00    +0.000 OA
ATOM      4  C   UNL     1       3.646   5.836  18.242  0.00  0.00    +0.000 A 
ATOM      5  C   UNL     1       4.535   6.716  17.598  0.00  0.00    +0.000 A 
ATOM      6  C   UNL     1       5.898   6.630  17.855  0.00  0.00    +0.000 A 
ATOM      7  C   UNL     1       6.363   5.654  18.729  0.00  0.00    +0.000 A 
ATOM      8 BR   UNL     1       8.207   5.585  19.141  0.00  0.00    +0.000 Br
ATOM      9  C   UNL     1       5.479   4.753  19.338  0.00  0.00    +0.000 A 
ATOM     10  C   UNL     1       4.094   4.832  19.118  0.00  0.00    +0.000 A 
ATOM     11  N   UNL     1       3.211   4.012  19.792  0.00  0.00    +0.000 N 
ATOM     12  C   UNL     1       3.372   2.567  19.861  0.00  0.00    +0.000 C 
ATOM     13  C   UNL     1       2.284   2.134  20.838  0.00  0.00    +0.000 C 
ATOM     14  C   UNL     1       2.175   3.306  21.802  0.00  0.00    +0.000 C 
ATOM     15  C   UNL     1       2.462   4.545  20.939  0.00  0.00    +0.000 C 
ATOM     16  C   UNL     1       1.169   5.241  20.485  0.00  0.00    +0.000 C 
ATOM     17  N   UNL     1       1.400   6.458  19.646  0.00  0.00    +0.000 NA
ENDROOT
BRANCH  17  18
ATOM     18  C   UNL     1       2.157   7.566  20.297  0.00  0.00    +0.000 C 
BRANCH  18  19
ATOM     19  C   UNL     1       1.277   8.664  20.838  0.00  0.00    +0.000 A 
ATOM     20  C   UNL     1       1.057   8.799  22.218  0.00  0.00    +0.000 A 
ATOM     21  C   UNL     1       0.171   9.770  22.694  0.00  0.00    +0.000 A 
ATOM     22  C   UNL     1      -0.486  10.610  21.797  0.00  0.00    +0.000 A 
ATOM     23 CL   UNL     1      -1.621  11.762  22.377  0.00  0.00    +0.000 Cl
ATOM     24  C   UNL     1      -0.242  10.508  20.428  0.00  0.00    +0.000 A 
ATOM     25  C   UNL     1       0.639   9.538  19.950  0.00  0.00    +0.000 A 
ENDBRANCH  18  19
ENDBRANCH  17  18
TORSDOF 2
ENDMDL
MODEL 2
REMARK VINA RESULT:      -6.3      5.374      7.775
REMARK  Name = 
REMARK  2 active torsions:
REMARK  status: ('A' for Active; 'I' for Inactive)
REMARK    1  A    between atoms: N_17  and  C_18
REMARK    2  A    between atoms: C_18  and  C_19
REMARK                            x       y       z     vdW  Elec       q    Type
REMARK                         _______ _______ _______ _____ _____    ______ ____
ROOT
ATOM      1  O   UNL     1       6.153   4.365  18.964  0.00  0.00    +0.000 OA
ATOM      2  S   UNL     1       5.898   5.067  17.726  0.00  0.00    +0.000 S 
ATOM      3  O   UNL     1       6.962   5.814  17.078  0.00  0.00    +0.000 OA
ATOM      4  C   UNL     1       4.536   6.191  17.952  0.00  0.00    +0.000 A 
ATOM      5  C   UNL     1       4.748   7.542  17.623  0.00  0.00    +0.000 A 
ATOM      6  C   UNL     1       3.678   8.428  17.618  0.00  0.00    +0.000 A 
ATOM      7  C   UNL     1       2.414   7.965  17.967  0.00  0.00    +0.000 A 
ATOM      8 BR   UNL     1       0.941   9.149  17.886  0.00  0.00    +0.000 Br
ATOM      9  C   UNL     1       2.213   6.628  18.334  0.00  0.00    +0.000 A 
ATOM     10  C   UNL     1       3.271   5.703  18.322  0.00  0.00    +0.000 A 
ATOM     11  N   UNL     1       3.059   4.365  18.586  0.00  0.00    +0.000 N 
ATOM     12  C   UNL     1       2.330   3.897  19.756  0.00  0.00    +0.000 C 
ATOM     13  C   UNL     1       2.205   2.395  19.520  0.00  0.00    +0.000 C 
ATOM     14  C   UNL     1       2.111   2.273  18.007  0.00  0.00    +0.000 C 
ATOM     15  C   UNL     1       2.994   3.411  17.470  0.00  0.00    +0.000 C 
ATOM     16  C   UNL     1       4.395   2.914  17.080  0.00  0.00    +0.000 C 
ATOM     17  N   UNL     1       5.291   3.987  16.546  0.00  0.00    +0.000 NA
ENDROOT
BRANCH  17  18
ATOM     18  C   UNL     1       4.827   4.666  15.302  0.00  0.00    +0.000 C 
BRANCH  18  19
ATOM     19  C   UNL     1       5.507   4.170  14.051  0.00  0.00    +0.000 A 
ATOM     20  C   UNL     1       4.823   3.358  13.132  0.00  0.00    +0.000 A 
ATOM     21  C   UNL     1       5.497   2.838  12.023  0.00  0.00    +0.000 A 
ATOM     22  C   UNL     1       6.844   3.135  11.825  0.00  0.00    +0.000 A 
ATOM     23 CL   UNL     1       7.686   2.447  10.496  0.00  0.00    +0.000 Cl
ATOM     24  C   UNL     1       7.518   3.973  12.713  0.00  0.00    +0.000 A 
ATOM     25  C   UNL     1       6.849   4.490  13.823  0.00  0.00    +0.000 A 
ENDBRANCH  18  19
ENDBRANCH  17  18
TORSDOF 2
ENDMDL
MODEL 3
REMARK VINA RESULT:      -6.2      2.996      4.431
REMARK  Name = 
REMARK  2 active torsions:
REMARK  status: ('A' for Active; 'I' for Inactive)
REMARK    1  A    between atoms: N_17  and  C_18
REMARK    2  A    between atoms: C_18  and  C_19
REMARK                            x       y       z     vdW  Elec       q    Type
REMARK                         _______ _______ _______ _____ _____    ______ ____
ROOT
ATOM      1  O   UNL     1       4.778   2.795  18.677  0.00  0.00    +0.000 OA
ATOM      2  S   UNL     1       4.149   3.735  17.776  0.00  0.00    +0.000 S 
ATOM      3  O   UNL     1       2.812   3.477  17.268  0.00  0.00    +0.000 OA
ATOM      4  C   UNL     1       5.201   3.999  16.365  0.00  0.00    +0.000 A 
ATOM      5  C   UNL     1       4.643   3.791  15.091  0.00  0.00    +0.000 A 
ATOM      6  C   UNL     1       5.362   4.143  13.956  0.00  0.00    +0.000 A 
ATOM      7  C   UNL     1       6.639   4.673  14.101  0.00  0.00    +0.000 A 
ATOM      8 BR   UNL     1       7.590   5.226  12.562  0.00  0.00    +0.000 Br
ATOM      9  C   UNL     1       7.209   4.842  15.369  0.00  0.00    +0.000 A 
ATOM     10  C   UNL     1       6.495   4.520  16.536  0.00  0.00    +0.000 A 
ATOM     11  N   UNL     1       7.014   4.777  17.790  0.00  0.00    +0.000 N 
ATOM     12  C   UNL     1       8.350   4.364  18.191  0.00  0.00    +0.000 C 
ATOM     13  C   UNL     1       8.528   5.015  19.559  0.00  0.00    +0.000 C 
ATOM     14  C   UNL     1       7.728   6.305  19.453  0.00  0.00    +0.000 C 
ATOM     15  C   UNL     1       6.545   5.953  18.536  0.00  0.00    +0.000 C 
ATOM     16  C   UNL     1       5.274   5.633  19.339  0.00  0.00    +0.000 C 
ATOM     17  N   UNL     1       4.092   5.290  18.488  0.00  0.00    +0.000 NA
ENDROOT
BRANCH  17  18
ATOM     18  C   UNL     1       3.629   6.355  17.552  0.00  0.00    +0.000 C 
BRANCH  18  19
ATOM     19  C   UNL     1       2.734   7.381  18.199  0.00  0.00    +0.000 A 
ATOM     20  C   UNL     1       2.376   8.557  17.520  0.00  0.00    +0.000 A 
ATOM     21  C   UNL     1       1.616   9.535  18.168  0.00  0.00    +0.000 A 
ATOM     22  C   UNL     1       1.205   9.337  19.485  0.00  0.00    +0.000 A 
ATOM     23 CL   UNL     1       0.323  10.564  20.300  0.00  0.00    +0.000 Cl
ATOM     24  C   UNL     1       1.522   8.154  20.151  0.00  0.00    +0.000 A 
ATOM     25  C   UNL     1       2.284   7.178  19.508  0.00  0.00    +0.000 A 
ENDBRANCH  18  19
ENDBRANCH  17  18
TORSDOF 2
ENDMDL
MODEL 4
REMARK VINA RESULT:      -6.2      6.185      8.478
REMARK  Name = 
REMARK  2 active torsions:
REMARK  status: ('A' for Active; 'I' for Inactive)
REMARK    1  A    between atoms: N_17  and  C_18
REMARK    2  A    between atoms: C_18  and  C_19
REMARK                            x       y       z     vdW  Elec       q    Type
REMARK                         _______ _______ _______ _____ _____    ______ ____
ROOT
ATOM      1  O   UNL     1       1.118  12.621  19.827  0.00  0.00    +0.000 OA
ATOM      2  S   UNL     1      -0.297  12.695  19.538  0.00  0.00    +0.000 S 
ATOM      3  O   UNL     1      -0.816  13.764  18.701  0.00  0.00    +0.000 OA
ATOM      4  C   UNL     1      -1.212  12.737  21.064  0.00  0.00    +0.000 A 
ATOM      5  C   UNL     1      -2.115  13.799  21.251  0.00  0.00    +0.000 A 
ATOM      6  C   UNL     1      -2.974  13.791  22.342  0.00  0.00    +0.000 A 
ATOM      7  C   UNL     1      -2.907  12.740  23.249  0.00  0.00    +0.000 A 
ATOM      8 BR   UNL     1      -4.129  12.685  24.692  0.00  0.00    +0.000 Br
ATOM      9  C   UNL     1      -1.979  11.703  23.082  0.00  0.00    +0.000 A 
ATOM     10  C   UNL     1      -1.115  11.671  21.975  0.00  0.00    +0.000 A 
ATOM     11  N   UNL     1      -0.269  10.603  21.755  0.00  0.00    +0.000 N 
ATOM     12  C   UNL     1       0.618  10.074  22.780  0.00  0.00    +0.000 C 
ATOM     13  C   UNL     1       1.201   8.821  22.134  0.00  0.00    +0.000 C 
ATOM     14  C   UNL     1       0.076   8.315  21.243  0.00  0.00    +0.000 C 
ATOM     15  C   UNL     1      -0.633   9.589  20.754  0.00  0.00    +0.000 C 
ATOM     16  C   UNL     1      -0.166  10.001  19.349  0.00  0.00    +0.000 C 
ATOM     17  N   UNL     1      -0.834  11.234  18.827  0.00  0.00    +0.000 NA
ENDROOT
BRANCH  17  18
ATOM     18  C   UNL     1      -2.315  11.159  18.671  0.00  0.00    +0.000 C 
BRANCH  18  19
ATOM     19  C   UNL     1      -2.759  10.788  17.279  0.00  0.00    +0.000 A 
ATOM     20  C   UNL     1      -2.071   9.815  16.537  0.00  0.00    +0.000 A 
ATOM     21  C   UNL     1      -2.447   9.547  15.217  0.00  0.00    +0.000 A 
ATOM     22  C   UNL     1      -3.511  10.239  14.643  0.00  0.00    +0.000 A 
ATOM     23 CL   UNL     1      -3.932   9.953  13.003  0.00  0.00    +0.000 Cl
ATOM     24  C   UNL     1      -4.224  11.179  15.387  0.00  0.00    +0.000 A 
ATOM     25  C   UNL     1      -3.849  11.451  16.703  0.00  0.00    +0.000 A 
ENDBRANCH  18  19
ENDBRANCH  17  18
TORSDOF 2
ENDMDL
MODEL 5
REMARK VINA RESULT:      -6.1      5.334      9.076
REMARK  Name = 
REMARK  2 active torsions:
REMARK  status: ('A' for Active; 'I' for Inactive)
REMARK    1  A    between atoms: N_17  and  C_18
REMARK    2  A    between atoms: C_18  and  C_19
REMARK                            x       y       z     vdW  Elec       q    Type
REMARK                         _______ _______ _______ _____ _____    ______ ____
ROOT
ATOM      1  O   UNL     1      -0.402  13.915  17.834  0.00  0.00    +0.000 OA
ATOM      2  S   UNL     1      -0.800  12.693  18.497  0.00  0.00    +0.000 S 
ATOM      3  O   UNL     1      -1.649  11.734  17.812  0.00  0.00    +0.000 OA
ATOM      4  C   UNL     1      -1.599  13.088  20.038  0.00  0.00    +0.000 A 
ATOM      5  C   UNL     1      -2.884  12.559  20.257  0.00  0.00    +0.000 A 
ATOM      6  C   UNL     1      -3.482  12.693  21.504  0.00  0.00    +0.000 A 
ATOM      7  C   UNL     1      -2.807  13.375  22.509  0.00  0.00    +0.000 A 
ATOM      8 BR   UNL     1      -3.584  13.492  24.230  0.00  0.00    +0.000 Br
ATOM      9  C   UNL     1      -1.544  13.935  22.277  0.00  0.00    +0.000 A 
ATOM     10  C   UNL     1      -0.903  13.793  21.035  0.00  0.00    +0.000 A 
ATOM     11  N   UNL     1       0.382  14.257  20.832  0.00  0.00    +0.000 N 
ATOM     12  C   UNL     1       0.795  15.610  21.174  0.00  0.00    +0.000 C 
ATOM     13  C   UNL     1       2.303  15.591  20.940  0.00  0.00    +0.000 C 
ATOM     14  C   UNL     1       2.705  14.165  21.286  0.00  0.00    +0.000 C 
ATOM     15  C   UNL     1       1.504  13.308  20.854  0.00  0.00    +0.000 C 
ATOM     16  C   UNL     1       1.722  12.671  19.473  0.00  0.00    +0.000 C 
ATOM     17  N   UNL     1       0.579  11.821  19.011  0.00  0.00    +0.000 NA
ENDROOT
BRANCH  17  18
ATOM     18  C   UNL     1       0.254  10.644  19.867  0.00  0.00    +0.000 C 
BRANCH  18  19
ATOM     19  C   UNL     1       1.074   9.420  19.551  0.00  0.00    +0.000 A 
ATOM     20  C   UNL     1       1.569   9.197  18.256  0.00  0.00    +0.000 A 
ATOM     21  C   UNL     1       2.254   8.015  17.962  0.00  0.00    +0.000 A 
ATOM     22  C   UNL     1       2.454   7.061  18.960  0.00  0.00    +0.000 A 
ATOM     23 CL   UNL     1       3.242   5.583  18.584  0.00  0.00    +0.000 Cl
ATOM     24  C   UNL     1       2.000   7.294  20.257  0.00  0.00    +0.000 A 
ATOM     25  C   UNL     1       1.313   8.471  20.552  0.00  0.00    +0.000 A 
ENDBRANCH  18  19
ENDBRANCH  17  18
TORSDOF 2
ENDMDL
MODEL 6
REMARK VINA RESULT:      -6.1      4.613      6.571
REMARK  Name = 
REMARK  2 active torsions:
REMARK  status: ('A' for Active; 'I' for Inactive)
REMARK    1  A    between atoms: N_17  and  C_18
REMARK    2  A    between atoms: C_18  and  C_19
REMARK                            x       y       z     vdW  Elec       q    Type
REMARK                         _______ _______ _______ _____ _____    ______ ____
ROOT
ATOM      1  O   UNL     1      -1.827  10.591  18.484  0.00  0.00    +0.000 OA
ATOM      2  S   UNL     1      -1.398  11.539  19.489  0.00  0.00    +0.000 S 
ATOM      3  O   UNL     1      -2.302  12.584  19.939  0.00  0.00    +0.000 OA
ATOM      4  C   UNL     1       0.097  12.339  18.948  0.00  0.00    +0.000 A 
ATOM      5  C   UNL     1       0.105  13.745  18.916  0.00  0.00    +0.000 A 
ATOM      6  C   UNL     1       1.291  14.424  18.666  0.00  0.00    +0.000 A 
ATOM      7  C   UNL     1       2.450  13.695  18.425  0.00  0.00    +0.000 A 
ATOM      8 BR   UNL     1       4.082  14.613  18.163  0.00  0.00    +0.000 Br
ATOM      9  C   UNL     1       2.431  12.294  18.419  0.00  0.00    +0.000 A 
ATOM     10  C   UNL     1       1.252  11.581  18.694  0.00  0.00    +0.000 A 
ATOM     11  N   UNL     1       1.250  10.203  18.786  0.00  0.00    +0.000 N 
ATOM     12  C   UNL     1       1.831   9.343  17.766  0.00  0.00    +0.000 C 
ATOM     13  C   UNL     1       1.749   7.951  18.386  0.00  0.00    +0.000 C 
ATOM     14  C   UNL     1       1.916   8.208  19.876  0.00  0.00    +0.000 C 
ATOM     15  C   UNL     1       1.242   9.569  20.113  0.00  0.00    +0.000 C 
ATOM     16  C   UNL     1      -0.191   9.415  20.647  0.00  0.00    +0.000 C 
ATOM     17  N   UNL     1      -0.886  10.716  20.898  0.00  0.00    +0.000 NA
ENDROOT
BRANCH  17  18
ATOM     18  C   UNL     1      -0.253  11.610  21.911  0.00  0.00    +0.000 C 
BRANCH  18  19
ATOM     19  C   UNL     1      -1.241  12.456  22.673  0.00  0.00    +0.000 A 
ATOM     20  C   UNL     1      -2.434  11.905  23.166  0.00  0.00    +0.000 A 
ATOM     21  C   UNL     1      -3.376  12.725  23.795  0.00  0.00    +0.000 A 
ATOM     22  C   UNL     1      -3.124  14.089  23.940  0.00  0.00    +0.000 A 
ATOM     23 CL   UNL     1      -4.307  15.106  24.657  0.00  0.00    +0.000 Cl
ATOM     24  C   UNL     1      -1.923  14.635  23.487  0.00  0.00    +0.000 A 
ATOM     25  C   UNL     1      -0.984  13.819  22.856  0.00  0.00    +0.000 A 
ENDBRANCH  18  19
ENDBRANCH  17  18
TORSDOF 2
ENDMDL
MODEL 7
REMARK VINA RESULT:      -6.0      4.782      8.126
REMARK  Name = 
REMARK  2 active torsions:
REMARK  status: ('A' for Active; 'I' for Inactive)
REMARK    1  A    between atoms: N_17  and  C_18
REMARK    2  A    between atoms: C_18  and  C_19
REMARK                            x       y       z     vdW  Elec       q    Type
REMARK                         _______ _______ _______ _____ _____    ______ ____
ROOT
ATOM      1  O   UNL     1      -1.012  10.771  22.133  0.00  0.00    +0.000 OA
ATOM      2  S   UNL     1       0.205  10.786  21.352  0.00  0.00    +0.000 S 
ATOM      3  O   UNL     1       1.463  10.374  21.952  0.00  0.00    +0.000 OA
ATOM      4  C   UNL     1       0.458  12.414  20.679  0.00  0.00    +0.000 A 
ATOM      5  C   UNL     1       1.690  13.041  20.941  0.00  0.00    +0.000 A 
ATOM      6  C   UNL     1       2.007  14.234  20.304  0.00  0.00    +0.000 A 
ATOM      7  C   UNL     1       1.084  14.803  19.434  0.00  0.00    +0.000 A 
ATOM      8 BR   UNL     1       1.543  16.385  18.505  0.00  0.00    +0.000 Br
ATOM      9  C   UNL     1      -0.158  14.197  19.205  0.00  0.00    +0.000 A 
ATOM     10  C   UNL     1      -0.496  12.977  19.815  0.00  0.00    +0.000 A 
ATOM     11  N   UNL     1      -1.677  12.327  19.516  0.00  0.00    +0.000 N 
ATOM     12  C   UNL     1      -2.972  12.990  19.547  0.00  0.00    +0.000 C 
ATOM     13  C   UNL     1      -3.923  11.939  18.982  0.00  0.00    +0.000 C 
ATOM     14  C   UNL     1      -3.068  11.177  17.981  0.00  0.00    +0.000 C 
ATOM     15  C   UNL     1      -1.657  11.183  18.593  0.00  0.00    +0.000 C 
ATOM     16  C   UNL     1      -1.348   9.874  19.336  0.00  0.00    +0.000 C 
ATOM     17  N   UNL     1       0.018   9.831  19.945  0.00  0.00    +0.000 NA
ENDROOT
BRANCH  17  18
ATOM     18  C   UNL     1       1.160   9.945  18.993  0.00  0.00    +0.000 C 
BRANCH  18  19
ATOM     19  C   UNL     1       1.956   8.672  18.847  0.00  0.00    +0.000 A 
ATOM     20  C   UNL     1       2.749   8.443  17.712  0.00  0.00    +0.000 A 
ATOM     21  C   UNL     1       3.411   7.222  17.556  0.00  0.00    +0.000 A 
ATOM     22  C   UNL     1       3.289   6.235  18.533  0.00  0.00    +0.000 A 
ATOM     23 CL   UNL     1       4.052   4.713  18.312  0.00  0.00    +0.000 Cl
ATOM     24  C   UNL     1       2.535   6.471  19.682  0.00  0.00    +0.000 A 
ATOM     25  C   UNL     1       1.870   7.688  19.838  0.00  0.00    +0.000 A 
ENDBRANCH  18  19
ENDBRANCH  17  18
TORSDOF 2
ENDMDL
MODEL 8
REMARK VINA RESULT:      -6.0      5.123      8.746
REMARK  Name = 
REMARK  2 active torsions:
REMARK  status: ('A' for Active; 'I' for Inactive)
REMARK    1  A    between atoms: N_17  and  C_18
REMARK    2  A    between atoms: C_18  and  C_19
REMARK                            x       y       z     vdW  Elec       q    Type
REMARK                         _______ _______ _______ _____ _____    ______ ____
ROOT
ATOM      1  O   UNL     1      -0.918  12.731  17.481  0.00  0.00    +0.000 OA
ATOM      2  S   UNL     1      -0.864  11.852  18.627  0.00  0.00    +0.000 S 
ATOM      3  O   UNL     1      -1.758  10.710  18.715  0.00  0.00    +0.000 OA
ATOM      4  C   UNL     1      -1.086  12.803  20.115  0.00  0.00    +0.000 A 
ATOM      5  C   UNL     1      -2.109  12.404  20.994  0.00  0.00    +0.000 A 
ATOM      6  C   UNL     1      -2.218  13.002  22.243  0.00  0.00    +0.000 A 
ATOM      7  C   UNL     1      -1.325  14.008  22.593  0.00  0.00    +0.000 A 
ATOM      8 BR   UNL     1      -1.420  14.770  24.321  0.00  0.00    +0.000 Br
ATOM      9  C   UNL     1      -0.331  14.431  21.700  0.00  0.00    +0.000 A 
ATOM     10  C   UNL     1      -0.180  13.828  20.440  0.00  0.00    +0.000 A 
ATOM     11  N   UNL     1       0.858  14.173  19.597  0.00  0.00    +0.000 N 
ATOM     12  C   UNL     1       1.169  15.552  19.253  0.00  0.00    +0.000 C 
ATOM     13  C   UNL     1       2.470  15.437  18.465  0.00  0.00    +0.000 C 
ATOM     14  C   UNL     1       3.172  14.244  19.096  0.00  0.00    +0.000 C 
ATOM     15  C   UNL     1       2.033  13.294  19.503  0.00  0.00    +0.000 C 
ATOM     16  C   UNL     1       1.815  12.182  18.465  0.00  0.00    +0.000 C 
ATOM     17  N   UNL     1       0.718  11.229  18.821  0.00  0.00    +0.000 NA
ENDROOT
BRANCH  17  18
ATOM     18  C   UNL     1       0.904  10.463  20.088  0.00  0.00    +0.000 C 
BRANCH  18  19
ATOM     19  C   UNL     1       1.356   9.041  19.875  0.00  0.00    +0.000 A 
ATOM     20  C   UNL     1       1.292   8.100  20.915  0.00  0.00    +0.000 A 
ATOM     21  C   UNL     1       1.795   6.810  20.722  0.00  0.00    +0.000 A 
ATOM     22  C   UNL     1       2.351   6.456  19.494  0.00  0.00    +0.000 A 
ATOM     23 CL   UNL     1       3.024   4.891  19.278  0.00  0.00    +0.000 Cl
ATOM     24  C   UNL     1       2.381   7.374  18.444  0.00  0.00    +0.000 A 
ATOM     25  C   UNL     1       1.883   8.663  18.635  0.00  0.00    +0.000 A 
ENDBRANCH  18  19
ENDBRANCH  17  18
TORSDOF 2
ENDMDL
MODEL 9
REMARK VINA RESULT:      -6.0      5.297      9.005
REMARK  Name = 
REMARK  2 active torsions:
REMARK  status: ('A' for Active; 'I' for Inactive)
REMARK    1  A    between atoms: N_17  and  C_18
REMARK    2  A    between atoms: C_18  and  C_19
REMARK                            x       y       z     vdW  Elec       q    Type
REMARK                         _______ _______ _______ _____ _____    ______ ____
ROOT
ATOM      1  O   UNL     1      -0.416  13.582  17.822  0.00  0.00    +0.000 OA
ATOM      2  S   UNL     1      -0.737  12.430  18.635  0.00  0.00    +0.000 S 
ATOM      3  O   UNL     1      -1.554  11.358  18.091  0.00  0.00    +0.000 OA
ATOM      4  C   UNL     1      -1.517  12.966  20.142  0.00  0.00    +0.000 A 
ATOM      5  C   UNL     1      -2.768  12.408  20.460  0.00  0.00    +0.000 A 
ATOM      6  C   UNL     1      -3.342  12.661  21.700  0.00  0.00    +0.000 A 
ATOM      7  C   UNL     1      -2.677  13.487  22.598  0.00  0.00    +0.000 A 
ATOM      8 BR   UNL     1      -3.416  13.769  24.316  0.00  0.00    +0.000 Br
ATOM      9  C   UNL     1      -1.449  14.073  22.264  0.00  0.00    +0.000 A 
ATOM     10  C   UNL     1      -0.832  13.815  21.029  0.00  0.00    +0.000 A 
ATOM     11  N   UNL     1       0.423  14.311  20.735  0.00  0.00    +0.000 N 
ATOM     12  C   UNL     1       0.777  15.712  20.904  0.00  0.00    +0.000 C 
ATOM     13  C   UNL     1       2.278  15.735  20.630  0.00  0.00    +0.000 C 
ATOM     14  C   UNL     1       2.758  14.380  21.127  0.00  0.00    +0.000 C 
ATOM     15  C   UNL     1       1.590  13.424  20.834  0.00  0.00    +0.000 C 
ATOM     16  C   UNL     1       1.806  12.639  19.530  0.00  0.00    +0.000 C 
ATOM     17  N   UNL     1       0.696  11.689  19.205  0.00  0.00    +0.000 NA
ENDROOT
BRANCH  17  18
ATOM     18  C   UNL     1       0.450  10.607  20.202  0.00  0.00    +0.000 C 
BRANCH  18  19
ATOM     19  C   UNL     1       1.077   9.288  19.831  0.00  0.00    +0.000 A 
ATOM     20  C   UNL     1       1.228   8.267  20.783  0.00  0.00    +0.000 A 
ATOM     21  C   UNL     1       1.889   7.084  20.442  0.00  0.00    +0.000 A 
ATOM     22  C   UNL     1       2.390   6.915  19.152  0.00  0.00    +0.000 A 
ATOM     23 CL   UNL     1       3.256   5.487  18.751  0.00  0.00    +0.000 Cl
ATOM     24  C   UNL     1       2.209   7.908  18.190  0.00  0.00    +0.000 A 
ATOM     25  C   UNL     1       1.552   9.091  18.530  0.00  0.00    +0.000 A 
ENDBRANCH  18  19
ENDBRANCH  17  18
TORSDOF 2
ENDMDL
