MODEL 1
REMARK VINA RESULT:      -7.5      0.000      0.000
REMARK  Name = 
REMARK  8 active torsions:
REMARK  status: ('A' for Active; 'I' for Inactive)
REMARK    1  A    between atoms: C_1  and  C_2
REMARK    2  A    between atoms: C_2  and  C_3
REMARK    3  A    between atoms: C_2  and  C_4
REMARK    4  A    between atoms: C_2  and  C_5
REMARK    5  A    between atoms: C_5  and  N_6
REMARK    6  A    between atoms: C_7  and  C_9
REMARK    7  A    between atoms: C_13  and  C_14
REMARK    8  A    between atoms: N_16  and  C_17
REMARK                            x       y       z     vdW  Elec       q    Type
REMARK                         _______ _______ _______ _____ _____    ______ ____
ROOT
ATOM      1  C   UNL     1       5.837   4.323  17.186  0.00  0.00    +0.000 A 
ATOM      2  N   UNL     1       6.432   4.340  18.433  0.00  0.00    +0.000 N 
ATOM      3  C   UNL     1       7.770   4.512  18.275  0.00  0.00    +0.000 A 
ATOM      4  N   UNL     1       8.083   4.608  17.010  0.00  0.00    +0.000 NA
ATOM      5  C   UNL     1       6.888   4.529  16.297  0.00  0.00    +0.000 A 
ATOM      6  H   UNL     1       5.945   4.275  19.315  0.00  0.00    +0.000 HD
ENDROOT
BRANCH   1   8
ATOM      7  N   UNL     1       3.683   4.277  18.140  0.00  0.00    +0.000 N 
ATOM      8  C   UNL     1       4.422   4.171  16.980  0.00  0.00    +0.000 C 
ATOM      9  O   UNL     1       3.921   3.987  15.876  0.00  0.00    +0.000 OA
ATOM     10  H   UNL     1       4.157   4.044  19.002  0.00  0.00    +0.000 HD
BRANCH   7  11
ATOM     11  C   UNL     1       2.232   4.203  18.147  0.00  0.00    +0.000 C 
BRANCH  11  13
ATOM     12  C   UNL     1       0.941   4.261  20.327  0.00  0.00    +0.000 C 
ATOM     13  C   UNL     1       1.683   3.359  19.325  0.00  0.00    +0.000 C 
ATOM     14  C   UNL     1       2.819   2.616  20.051  0.00  0.00    +0.000 C 
ATOM     15  C   UNL     1       0.691   2.317  18.776  0.00  0.00    +0.000 C 
ENDBRANCH  11  13
ENDBRANCH   7  11
ENDBRANCH   1   8
BRANCH   5  16
ATOM     16  C   UNL     1       6.900   4.619  14.826  0.00  0.00    +0.000 C 
ATOM     17  O   UNL     1       7.421   5.572  14.246  0.00  0.00    +0.000 OA
ATOM     18  N   UNL     1       6.265   3.607  14.126  0.00  0.00    +0.000 N 
ATOM     19  H   UNL     1       5.837   2.833  14.633  0.00  0.00    +0.000 HD
BRANCH  18  20
ATOM     20  C   UNL     1       6.125   3.664  12.704  0.00  0.00    +0.000 C 
ATOM     21  C   UNL     1       5.949   2.398  11.914  0.00  0.00    +0.000 C 
ATOM     22  C   UNL     1       4.821   3.383  12.015  0.00  0.00    +0.000 C 
ENDBRANCH  18  20
ENDBRANCH   5  16
TORSDOF 5
ENDMDL
MODEL 2
REMARK VINA RESULT:      -7.2      0.965      1.079
REMARK  Name = 
REMARK  8 active torsions:
REMARK  status: ('A' for Active; 'I' for Inactive)
REMARK    1  A    between atoms: C_1  and  C_2
REMARK    2  A    between atoms: C_2  and  C_3
REMARK    3  A    between atoms: C_2  and  C_4
REMARK    4  A    between atoms: C_2  and  C_5
REMARK    5  A    between atoms: C_5  and  N_6
REMARK    6  A    between atoms: C_7  and  C_9
REMARK    7  A    between atoms: C_13  and  C_14
REMARK    8  A    between atoms: N_16  and  C_17
REMARK                            x       y       z     vdW  Elec       q    Type
REMARK                         _______ _______ _______ _____ _____    ______ ____
ROOT
ATOM      1  C   UNL     1       5.799   4.058  17.376  0.00  0.00    +0.000 A 
ATOM      2  N   UNL     1       6.683   4.099  18.437  0.00  0.00    +0.000 N 
ATOM      3  C   UNL     1       7.890   4.525  17.983  0.00  0.00    +0.000 A 
ATOM      4  N   UNL     1       7.849   4.765  16.700  0.00  0.00    +0.000 NA
ATOM      5  C   UNL     1       6.540   4.516  16.289  0.00  0.00    +0.000 A 
ATOM      6  H   UNL     1       6.455   3.884  19.397  0.00  0.00    +0.000 HD
ENDROOT
BRANCH   1   8
ATOM      7  N   UNL     1       4.143   3.008  18.681  0.00  0.00    +0.000 N 
ATOM      8  C   UNL     1       4.423   3.662  17.499  0.00  0.00    +0.000 C 
ATOM      9  O   UNL     1       3.576   3.903  16.645  0.00  0.00    +0.000 OA
ATOM     10  H   UNL     1       4.912   2.524  19.124  0.00  0.00    +0.000 HD
BRANCH   7  11
ATOM     11  C   UNL     1       2.802   2.567  19.026  0.00  0.00    +0.000 C 
BRANCH  11  13
ATOM     12  C   UNL     1       2.809   4.787  20.249  0.00  0.00    +0.000 C 
ATOM     13  C   UNL     1       2.190   3.379  20.195  0.00  0.00    +0.000 C 
ATOM     14  C   UNL     1       2.416   2.669  21.543  0.00  0.00    +0.000 C 
ATOM     15  C   UNL     1       0.674   3.520  19.968  0.00  0.00    +0.000 C 
ENDBRANCH  11  13
ENDBRANCH   7  11
ENDBRANCH   1   8
BRANCH   5  16
ATOM     16  C   UNL     1       6.160   4.708  14.878  0.00  0.00    +0.000 C 
ATOM     17  O   UNL     1       5.554   5.714  14.509  0.00  0.00    +0.000 OA
ATOM     18  N   UNL     1       6.476   3.691  13.994  0.00  0.00    +0.000 N 
ATOM     19  H   UNL     1       6.974   2.867  14.329  0.00  0.00    +0.000 HD
BRANCH  18  20
ATOM     20  C   UNL     1       6.050   3.736  12.630  0.00  0.00    +0.000 C 
ATOM     21  C   UNL     1       5.911   2.462  11.844  0.00  0.00    +0.000 C 
ATOM     22  C   UNL     1       4.692   3.261  12.200  0.00  0.00    +0.000 C 
ENDBRANCH  18  20
ENDBRANCH   5  16
TORSDOF 5
ENDMDL
MODEL 3
REMARK VINA RESULT:      -7.2      0.304      1.065
REMARK  Name = 
REMARK  8 active torsions:
REMARK  status: ('A' for Active; 'I' for Inactive)
REMARK    1  A    between atoms: C_1  and  C_2
REMARK    2  A    between atoms: C_2  and  C_3
REMARK    3  A    between atoms: C_2  and  C_4
REMARK    4  A    between atoms: C_2  and  C_5
REMARK    5  A    between atoms: C_5  and  N_6
REMARK    6  A    between atoms: C_7  and  C_9
REMARK    7  A    between atoms: C_13  and  C_14
REMARK    8  A    between atoms: N_16  and  C_17
REMARK                            x       y       z     vdW  Elec       q    Type
REMARK                         _______ _______ _______ _____ _____    ______ ____
ROOT
ATOM      1  C   UNL     1       5.837   4.306  17.268  0.00  0.00    +0.000 A 
ATOM      2  N   UNL     1       6.458   4.303  18.502  0.00  0.00    +0.000 N 
ATOM      3  C   UNL     1       7.792   4.481  18.321  0.00  0.00    +0.000 A 
ATOM      4  N   UNL     1       8.079   4.600  17.051  0.00  0.00    +0.000 NA
ATOM      5  C   UNL     1       6.870   4.531  16.361  0.00  0.00    +0.000 A 
ATOM      6  H   UNL     1       5.989   4.221  19.393  0.00  0.00    +0.000 HD
ENDROOT
BRANCH   1   8
ATOM      7  N   UNL     1       3.691   4.387  18.237  0.00  0.00    +0.000 N 
ATOM      8  C   UNL     1       4.419   4.155  17.088  0.00  0.00    +0.000 C 
ATOM      9  O   UNL     1       3.906   3.869  16.012  0.00  0.00    +0.000 OA
ATOM     10  H   UNL     1       4.169   4.234  19.114  0.00  0.00    +0.000 HD
BRANCH   7  11
ATOM     11  C   UNL     1       2.239   4.335  18.261  0.00  0.00    +0.000 C 
BRANCH  11  13
ATOM     12  C   UNL     1       2.849   2.632  20.036  0.00  0.00    +0.000 C 
ATOM     13  C   UNL     1       1.694   3.404  19.374  0.00  0.00    +0.000 C 
ATOM     14  C   UNL     1       0.669   2.404  18.809  0.00  0.00    +0.000 C 
ATOM     15  C   UNL     1       1.000   4.261  20.448  0.00  0.00    +0.000 C 
ENDBRANCH  11  13
ENDBRANCH   7  11
ENDBRANCH   1   8
BRANCH   5  16
ATOM     16  C   UNL     1       6.851   4.647  14.892  0.00  0.00    +0.000 C 
ATOM     17  O   UNL     1       7.402   5.586  14.316  0.00  0.00    +0.000 OA
ATOM     18  N   UNL     1       6.153   3.679  14.190  0.00  0.00    +0.000 N 
ATOM     19  H   UNL     1       5.702   2.916  14.693  0.00  0.00    +0.000 HD
BRANCH  18  20
ATOM     20  C   UNL     1       5.984   3.769  12.773  0.00  0.00    +0.000 C 
ATOM     21  C   UNL     1       6.872   2.974  11.858  0.00  0.00    +0.000 C 
ATOM     22  C   UNL     1       5.412   2.642  11.962  0.00  0.00    +0.000 C 
ENDBRANCH  18  20
ENDBRANCH   5  16
TORSDOF 5
ENDMDL
MODEL 4
REMARK VINA RESULT:      -7.1      0.969      1.054
REMARK  Name = 
REMARK  8 active torsions:
REMARK  status: ('A' for Active; 'I' for Inactive)
REMARK    1  A    between atoms: C_1  and  C_2
REMARK    2  A    between atoms: C_2  and  C_3
REMARK    3  A    between atoms: C_2  and  C_4
REMARK    4  A    between atoms: C_2  and  C_5
REMARK    5  A    between atoms: C_5  and  N_6
REMARK    6  A    between atoms: C_7  and  C_9
REMARK    7  A    between atoms: C_13  and  C_14
REMARK    8  A    between atoms: N_16  and  C_17
REMARK                            x       y       z     vdW  Elec       q    Type
REMARK                         _______ _______ _______ _____ _____    ______ ____
ROOT
ATOM      1  C   UNL     1       5.724   4.907  17.557  0.00  0.00    +0.000 A 
ATOM      2  N   UNL     1       6.611   4.742  18.604  0.00  0.00    +0.000 N 
ATOM      3  C   UNL     1       7.851   4.524  18.097  0.00  0.00    +0.000 A 
ATOM      4  N   UNL     1       7.830   4.537  16.790  0.00  0.00    +0.000 NA
ATOM      5  C   UNL     1       6.515   4.810  16.415  0.00  0.00    +0.000 A 
ATOM      6  H   UNL     1       6.378   4.812  19.585  0.00  0.00    +0.000 HD
ENDROOT
BRANCH   1   8
ATOM      7  N   UNL     1       3.550   4.028  17.779  0.00  0.00    +0.000 N 
ATOM      8  C   UNL     1       4.322   5.170  17.733  0.00  0.00    +0.000 C 
ATOM      9  O   UNL     1       3.862   6.300  17.852  0.00  0.00    +0.000 OA
ATOM     10  H   UNL     1       3.918   3.214  17.306  0.00  0.00    +0.000 HD
BRANCH   7  11
ATOM     11  C   UNL     1       2.114   4.068  17.999  0.00  0.00    +0.000 C 
BRANCH  11  13
ATOM     12  C   UNL     1       1.061   4.258  20.296  0.00  0.00    +0.000 C 
ATOM     13  C   UNL     1       1.684   3.294  19.270  0.00  0.00    +0.000 C 
ATOM     14  C   UNL     1       2.882   2.571  19.912  0.00  0.00    +0.000 C 
ATOM     15  C   UNL     1       0.629   2.242  18.884  0.00  0.00    +0.000 C 
ENDBRANCH  11  13
ENDBRANCH   7  11
ENDBRANCH   1   8
BRANCH   5  16
ATOM     16  C   UNL     1       6.159   4.905  14.988  0.00  0.00    +0.000 C 
ATOM     17  O   UNL     1       5.686   5.938  14.513  0.00  0.00    +0.000 OA
ATOM     18  N   UNL     1       6.342   3.772  14.214  0.00  0.00    +0.000 N 
ATOM     19  H   UNL     1       6.732   2.930  14.635  0.00  0.00    +0.000 HD
BRANCH  18  20
ATOM     20  C   UNL     1       5.922   3.733  12.848  0.00  0.00    +0.000 C 
ATOM     21  C   UNL     1       6.944   3.655  11.749  0.00  0.00    +0.000 C 
ATOM     22  C   UNL     1       6.035   2.491  12.012  0.00  0.00    +0.000 C 
ENDBRANCH  18  20
ENDBRANCH   5  16
TORSDOF 5
ENDMDL
MODEL 5
REMARK VINA RESULT:      -7.1      1.359      1.701
REMARK  Name = 
REMARK  8 active torsions:
REMARK  status: ('A' for Active; 'I' for Inactive)
REMARK    1  A    between atoms: C_1  and  C_2
REMARK    2  A    between atoms: C_2  and  C_3
REMARK    3  A    between atoms: C_2  and  C_4
REMARK    4  A    between atoms: C_2  and  C_5
REMARK    5  A    between atoms: C_5  and  N_6
REMARK    6  A    between atoms: C_7  and  C_9
REMARK    7  A    between atoms: C_13  and  C_14
REMARK    8  A    between atoms: N_16  and  C_17
REMARK                            x       y       z     vdW  Elec       q    Type
REMARK                         _______ _______ _______ _____ _____    ______ ____
ROOT
ATOM      1  C   UNL     1       5.939   4.598  18.123  0.00  0.00    +0.000 A 
ATOM      2  N   UNL     1       6.719   4.938  19.211  0.00  0.00    +0.000 N 
ATOM      3  C   UNL     1       7.681   5.805  18.805  0.00  0.00    +0.000 A 
ATOM      4  N   UNL     1       7.578   6.052  17.526  0.00  0.00    +0.000 NA
ATOM      5  C   UNL     1       6.472   5.337  17.070  0.00  0.00    +0.000 A 
ATOM      6  H   UNL     1       6.571   4.622  20.159  0.00  0.00    +0.000 HD
ENDROOT
BRANCH   1   8
ATOM      7  N   UNL     1       4.444   3.391  19.486  0.00  0.00    +0.000 N 
ATOM      8  C   UNL     1       4.814   3.705  18.195  0.00  0.00    +0.000 C 
ATOM      9  O   UNL     1       4.229   3.282  17.204  0.00  0.00    +0.000 OA
ATOM     10  H   UNL     1       5.165   3.450  20.191  0.00  0.00    +0.000 HD
BRANCH   7  11
ATOM     11  C   UNL     1       3.301   2.543  19.783  0.00  0.00    +0.000 C 
BRANCH  11  13
ATOM     12  C   UNL     1       0.960   3.354  19.247  0.00  0.00    +0.000 C 
ATOM     13  C   UNL     1       2.082   3.346  20.301  0.00  0.00    +0.000 C 
ATOM     14  C   UNL     1       2.474   4.796  20.640  0.00  0.00    +0.000 C 
ATOM     15  C   UNL     1       1.547   2.675  21.580  0.00  0.00    +0.000 C 
ENDBRANCH  11  13
ENDBRANCH   7  11
ENDBRANCH   1   8
BRANCH   5  16
ATOM     16  C   UNL     1       6.075   5.415  15.652  0.00  0.00    +0.000 C 
ATOM     17  O   UNL     1       5.460   6.387  15.211  0.00  0.00    +0.000 OA
ATOM     18  N   UNL     1       6.387   4.333  14.848  0.00  0.00    +0.000 N 
ATOM     19  H   UNL     1       6.892   3.540  15.241  0.00  0.00    +0.000 HD
BRANCH  18  20
ATOM     20  C   UNL     1       5.946   4.267  13.490  0.00  0.00    +0.000 C 
ATOM     21  C   UNL     1       6.951   4.177  12.376  0.00  0.00    +0.000 C 
ATOM     22  C   UNL     1       6.053   3.012  12.673  0.00  0.00    +0.000 C 
ENDBRANCH  18  20
ENDBRANCH   5  16
TORSDOF 5
ENDMDL
MODEL 6
REMARK VINA RESULT:      -7.0      1.362      1.781
REMARK  Name = 
REMARK  8 active torsions:
REMARK  status: ('A' for Active; 'I' for Inactive)
REMARK    1  A    between atoms: C_1  and  C_2
REMARK    2  A    between atoms: C_2  and  C_3
REMARK    3  A    between atoms: C_2  and  C_4
REMARK    4  A    between atoms: C_2  and  C_5
REMARK    5  A    between atoms: C_5  and  N_6
REMARK    6  A    between atoms: C_7  and  C_9
REMARK    7  A    between atoms: C_13  and  C_14
REMARK    8  A    between atoms: N_16  and  C_17
REMARK                            x       y       z     vdW  Elec       q    Type
REMARK                         _______ _______ _______ _____ _____    ______ ____
ROOT
ATOM      1  C   UNL     1       5.911   4.516  18.108  0.00  0.00    +0.000 A 
ATOM      2  N   UNL     1       6.689   4.795  19.215  0.00  0.00    +0.000 N 
ATOM      3  C   UNL     1       7.672   5.658  18.852  0.00  0.00    +0.000 A 
ATOM      4  N   UNL     1       7.585   5.958  17.583  0.00  0.00    +0.000 NA
ATOM      5  C   UNL     1       6.468   5.286  17.090  0.00  0.00    +0.000 A 
ATOM      6  H   UNL     1       6.526   4.445  20.148  0.00  0.00    +0.000 HD
ENDROOT
BRANCH   1   8
ATOM      7  N   UNL     1       4.295   3.398  19.408  0.00  0.00    +0.000 N 
ATOM      8  C   UNL     1       4.768   3.645  18.136  0.00  0.00    +0.000 C 
ATOM      9  O   UNL     1       4.250   3.185  17.124  0.00  0.00    +0.000 OA
ATOM     10  H   UNL     1       4.963   3.478  20.162  0.00  0.00    +0.000 HD
BRANCH   7  11
ATOM     11  C   UNL     1       3.118   2.583  19.655  0.00  0.00    +0.000 C 
BRANCH  11  13
ATOM     12  C   UNL     1       1.720   2.677  21.768  0.00  0.00    +0.000 C 
ATOM     13  C   UNL     1       2.009   3.353  20.415  0.00  0.00    +0.000 C 
ATOM     14  C   UNL     1       0.711   3.416  19.589  0.00  0.00    +0.000 C 
ATOM     15  C   UNL     1       2.489   4.791  20.680  0.00  0.00    +0.000 C 
ENDBRANCH  11  13
ENDBRANCH   7  11
ENDBRANCH   1   8
BRANCH   5  16
ATOM     16  C   UNL     1       6.085   5.429  15.674  0.00  0.00    +0.000 C 
ATOM     17  O   UNL     1       5.464   6.414  15.274  0.00  0.00    +0.000 OA
ATOM     18  N   UNL     1       6.419   4.391  14.821  0.00  0.00    +0.000 N 
ATOM     19  H   UNL     1       6.930   3.585  15.180  0.00  0.00    +0.000 HD
BRANCH  18  20
ATOM     20  C   UNL     1       5.993   4.388  13.456  0.00  0.00    +0.000 C 
ATOM     21  C   UNL     1       6.987   4.131  12.359  0.00  0.00    +0.000 C 
ATOM     22  C   UNL     1       5.911   3.126  12.646  0.00  0.00    +0.000 C 
ENDBRANCH  18  20
ENDBRANCH   5  16
TORSDOF 5
ENDMDL
MODEL 7
REMARK VINA RESULT:      -6.9      0.967      1.301
REMARK  Name = 
REMARK  8 active torsions:
REMARK  status: ('A' for Active; 'I' for Inactive)
REMARK    1  A    between atoms: C_1  and  C_2
REMARK    2  A    between atoms: C_2  and  C_3
REMARK    3  A    between atoms: C_2  and  C_4
REMARK    4  A    between atoms: C_2  and  C_5
REMARK    5  A    between atoms: C_5  and  N_6
REMARK    6  A    between atoms: C_7  and  C_9
REMARK    7  A    between atoms: C_13  and  C_14
REMARK    8  A    between atoms: N_16  and  C_17
REMARK                            x       y       z     vdW  Elec       q    Type
REMARK                         _______ _______ _______ _____ _____    ______ ____
ROOT
ATOM      1  C   UNL     1       5.763   4.814  17.503  0.00  0.00    +0.000 A 
ATOM      2  N   UNL     1       6.609   4.621  18.578  0.00  0.00    +0.000 N 
ATOM      3  C   UNL     1       7.879   4.487  18.117  0.00  0.00    +0.000 A 
ATOM      4  N   UNL     1       7.915   4.580  16.814  0.00  0.00    +0.000 NA
ATOM      5  C   UNL     1       6.608   4.821  16.395  0.00  0.00    +0.000 A 
ATOM      6  H   UNL     1       6.330   4.621  19.549  0.00  0.00    +0.000 HD
ENDROOT
BRANCH   1   8
ATOM      7  N   UNL     1       3.687   3.918  18.161  0.00  0.00    +0.000 N 
ATOM      8  C   UNL     1       4.345   5.007  17.628  0.00  0.00    +0.000 C 
ATOM      9  O   UNL     1       3.779   6.047  17.311  0.00  0.00    +0.000 OA
ATOM     10  H   UNL     1       4.125   3.017  18.033  0.00  0.00    +0.000 HD
BRANCH   7  11
ATOM     11  C   UNL     1       2.256   3.923  18.417  0.00  0.00    +0.000 C 
BRANCH  11  13
ATOM     12  C   UNL     1       0.569   3.096  20.118  0.00  0.00    +0.000 C 
ATOM     13  C   UNL     1       1.920   3.808  19.925  0.00  0.00    +0.000 C 
ATOM     14  C   UNL     1       1.866   5.196  20.589  0.00  0.00    +0.000 C 
ATOM     15  C   UNL     1       3.014   2.977  20.621  0.00  0.00    +0.000 C 
ENDBRANCH  11  13
ENDBRANCH   7  11
ENDBRANCH   1   8
BRANCH   5  16
ATOM     16  C   UNL     1       6.311   4.989  14.961  0.00  0.00    +0.000 C 
ATOM     17  O   UNL     1       5.792   6.020  14.531  0.00  0.00    +0.000 OA
ATOM     18  N   UNL     1       6.604   3.925  14.126  0.00  0.00    +0.000 N 
ATOM     19  H   UNL     1       7.029   3.082  14.511  0.00  0.00    +0.000 HD
BRANCH  18  20
ATOM     20  C   UNL     1       6.250   3.951  12.741  0.00  0.00    +0.000 C 
ATOM     21  C   UNL     1       6.537   2.761  11.869  0.00  0.00    +0.000 C 
ATOM     22  C   UNL     1       5.119   3.133  12.189  0.00  0.00    +0.000 C 
ENDBRANCH  18  20
ENDBRANCH   5  16
TORSDOF 5
ENDMDL
MODEL 8
REMARK VINA RESULT:      -6.9      1.423      1.587
REMARK  Name = 
REMARK  8 active torsions:
REMARK  status: ('A' for Active; 'I' for Inactive)
REMARK    1  A    between atoms: C_1  and  C_2
REMARK    2  A    between atoms: C_2  and  C_3
REMARK    3  A    between atoms: C_2  and  C_4
REMARK    4  A    between atoms: C_2  and  C_5
REMARK    5  A    between atoms: C_5  and  N_6
REMARK    6  A    between atoms: C_7  and  C_9
REMARK    7  A    between atoms: C_13  and  C_14
REMARK    8  A    between atoms: N_16  and  C_17
REMARK                            x       y       z     vdW  Elec       q    Type
REMARK                         _______ _______ _______ _____ _____    ______ ____
ROOT
ATOM      1  C   UNL     1       6.024   4.711  18.203  0.00  0.00    +0.000 A 
ATOM      2  N   UNL     1       6.787   5.028  19.310  0.00  0.00    +0.000 N 
ATOM      3  C   UNL     1       7.740   5.923  18.942  0.00  0.00    +0.000 A 
ATOM      4  N   UNL     1       7.647   6.208  17.671  0.00  0.00    +0.000 NA
ATOM      5  C   UNL     1       6.557   5.491  17.180  0.00  0.00    +0.000 A 
ATOM      6  H   UNL     1       6.633   4.680  20.246  0.00  0.00    +0.000 HD
ENDROOT
BRANCH   1   8
ATOM      7  N   UNL     1       4.502   3.477  19.511  0.00  0.00    +0.000 N 
ATOM      8  C   UNL     1       4.913   3.799  18.234  0.00  0.00    +0.000 C 
ATOM      9  O   UNL     1       4.371   3.367  17.223  0.00  0.00    +0.000 OA
ATOM     10  H   UNL     1       5.197   3.547  20.241  0.00  0.00    +0.000 HD
BRANCH   7  11
ATOM     11  C   UNL     1       3.364   2.610  19.766  0.00  0.00    +0.000 C 
BRANCH  11  13
ATOM     12  C   UNL     1       2.490   4.839  20.597  0.00  0.00    +0.000 C 
ATOM     13  C   UNL     1       2.111   3.392  20.233  0.00  0.00    +0.000 C 
ATOM     14  C   UNL     1       1.456   2.715  21.451  0.00  0.00    +0.000 C 
ATOM     15  C   UNL     1       1.086   3.428  19.086  0.00  0.00    +0.000 C 
ENDBRANCH  11  13
ENDBRANCH   7  11
ENDBRANCH   1   8
BRANCH   5  16
ATOM     16  C   UNL     1       6.175   5.608  15.761  0.00  0.00    +0.000 C 
ATOM     17  O   UNL     1       5.484   6.544  15.358  0.00  0.00    +0.000 OA
ATOM     18  N   UNL     1       6.591   4.599  14.910  0.00  0.00    +0.000 N 
ATOM     19  H   UNL     1       7.158   3.833  15.272  0.00  0.00    +0.000 HD
BRANCH  18  20
ATOM     20  C   UNL     1       6.176   4.566  13.542  0.00  0.00    +0.000 C 
ATOM     21  C   UNL     1       6.565   3.408  12.666  0.00  0.00    +0.000 C 
ATOM     22  C   UNL     1       5.128   3.612  13.046  0.00  0.00    +0.000 C 
ENDBRANCH  18  20
ENDBRANCH   5  16
TORSDOF 5
ENDMDL
MODEL 9
REMARK VINA RESULT:      -6.9      1.690      2.205
REMARK  Name = 
REMARK  8 active torsions:
REMARK  status: ('A' for Active; 'I' for Inactive)
REMARK    1  A    between atoms: C_1  and  C_2
REMARK    2  A    between atoms: C_2  and  C_3
REMARK    3  A    between atoms: C_2  and  C_4
REMARK    4  A    between atoms: C_2  and  C_5
REMARK    5  A    between atoms: C_5  and  N_6
REMARK    6  A    between atoms: C_7  and  C_9
REMARK    7  A    between atoms: C_13  and  C_14
REMARK    8  A    between atoms: N_16  and  C_17
REMARK                            x       y       z     vdW  Elec       q    Type
REMARK                         _______ _______ _______ _____ _____    ______ ____
ROOT
ATOM      1  C   UNL     1       4.564   5.291  17.374  0.00  0.00    +0.000 A 
ATOM      2  N   UNL     1       4.096   6.523  17.789  0.00  0.00    +0.000 N 
ATOM      3  C   UNL     1       4.666   7.488  17.023  0.00  0.00    +0.000 A 
ATOM      4  N   UNL     1       5.473   6.966  16.138  0.00  0.00    +0.000 NA
ATOM      5  C   UNL     1       5.408   5.583  16.306  0.00  0.00    +0.000 A 
ATOM      6  H   UNL     1       3.411   6.674  18.517  0.00  0.00    +0.000 HD
ENDROOT
BRANCH   1   8
ATOM      7  N   UNL     1       3.746   4.161  19.272  0.00  0.00    +0.000 N 
ATOM      8  C   UNL     1       4.156   4.044  17.960  0.00  0.00    +0.000 C 
ATOM      9  O   UNL     1       4.152   2.983  17.345  0.00  0.00    +0.000 OA
ATOM     10  H   UNL     1       4.128   4.934  19.799  0.00  0.00    +0.000 HD
BRANCH   7  11
ATOM     11  C   UNL     1       3.248   3.028  20.035  0.00  0.00    +0.000 C 
BRANCH  11  13
ATOM     12  C   UNL     1       1.459   2.487  21.747  0.00  0.00    +0.000 C 
ATOM     13  C   UNL     1       1.748   3.167  20.397  0.00  0.00    +0.000 C 
ATOM     14  C   UNL     1       0.854   2.543  19.310  0.00  0.00    +0.000 C 
ATOM     15  C   UNL     1       1.397   4.662  20.517  0.00  0.00    +0.000 C 
ENDBRANCH  11  13
ENDBRANCH   7  11
ENDBRANCH   1   8
BRANCH   5  16
ATOM     16  C   UNL     1       6.204   4.696  15.439  0.00  0.00    +0.000 C 
ATOM     17  O   UNL     1       7.365   4.398  15.720  0.00  0.00    +0.000 OA
ATOM     18  N   UNL     1       5.605   4.246  14.275  0.00  0.00    +0.000 N 
ATOM     19  H   UNL     1       4.643   4.512  14.065  0.00  0.00    +0.000 HD
BRANCH  18  20
ATOM     20  C   UNL     1       6.333   3.474  13.317  0.00  0.00    +0.000 C 
ATOM     21  C   UNL     1       5.709   3.137  11.992  0.00  0.00    +0.000 C 
ATOM     22  C   UNL     1       6.879   4.074  12.054  0.00  0.00    +0.000 C 
ENDBRANCH  18  20
ENDBRANCH   5  16
TORSDOF 5
ENDMDL
