MODEL 1
REMARK VINA RESULT:      -6.2      0.000      0.000
REMARK  Name = 
REMARK  8 active torsions:
REMARK  status: ('A' for Active; 'I' for Inactive)
REMARK    1  A    between atoms: C_2  and  C_18
REMARK    2  A    between atoms: N_3  and  CA_4
REMARK    3  A    between atoms: CA_4  and  C_5
REMARK    4  A    between atoms: CA_4  and  C_7
REMARK    5  A    between atoms: C_5  and  O_6
REMARK    6  A    between atoms: C_7  and  O_8
REMARK    7  A    between atoms: C_7  and  C_9
REMARK    8  A    between atoms: C_12  and  N_13
REMARK                            x       y       z     vdW  Elec       q    Type
REMARK                         _______ _______ _______ _____ _____    ______ ____
ROOT
ATOM      1  C   UNL     1       2.898   5.952  18.925  0.00  0.00    +0.000 C 
ENDROOT
BRANCH   1   2
ATOM      2  C   UNL     1       2.316   7.353  18.996  0.00  0.00    +0.000 A 
ATOM      3  C   UNL     1       1.719   7.794  20.194  0.00  0.00    +0.000 A 
ATOM      4  C   UNL     1       1.118   9.055  20.278  0.00  0.00    +0.000 A 
ATOM      5  C   UNL     1       1.118   9.893  19.157  0.00  0.00    +0.000 A 
ATOM      6  C   UNL     1       1.714   9.475  17.962  0.00  0.00    +0.000 A 
ATOM      7  C   UNL     1       2.307   8.212  17.885  0.00  0.00    +0.000 A 
BRANCH   5   8
ATOM      8  N   UNL     1       0.480  11.213  19.235  0.00  0.00    +0.000 N 
ATOM      9  O   UNL     1      -0.572  11.311  19.885  0.00  0.00    +0.000 OA
ATOM     10  O   UNL     1       1.033  12.155  18.648  0.00  0.00    +0.000 OA
ENDBRANCH   5   8
ENDBRANCH   1   2
BRANCH   1  11
ATOM     11  O   UNL     1       3.683   5.683  20.095  0.00  0.00    +0.000 OA
ATOM     12  H   UNL     1       4.184   4.862  19.948  0.00  0.00    +0.000 HD
ENDBRANCH   1  11
BRANCH   1  13
ATOM     13  CA  UNL     1       3.772   5.658  17.665  0.00  0.00    +0.000 C 
BRANCH  13  16
ATOM     14  O   UNL     1       5.727   6.818  15.958  0.00  0.00    +0.000 OA
ATOM     15  C   UNL     1       6.080   6.506  17.097  0.00  0.00    +0.000 C 
ATOM     16  N   UNL     1       5.193   5.946  17.988  0.00  0.00    +0.000 N 
ATOM     17  H   UNL     1       5.411   6.047  18.977  0.00  0.00    +0.000 HD
BRANCH  15  18
ATOM     18  C   UNL     1       7.513   6.711  17.566  0.00  0.00    +0.000 C 
ATOM     19 BR   UNL     1       7.839   8.610  17.710  0.00  0.00    +0.000 Br
ATOM     20 BR   UNL     1       7.772   5.742  19.229  0.00  0.00    +0.000 Br
ENDBRANCH  15  18
ENDBRANCH  13  16
BRANCH  13  21
ATOM     21  C   UNL     1       3.566   4.194  17.204  0.00  0.00    +0.000 C 
BRANCH  21  22
ATOM     22  O   UNL     1       3.050   3.325  18.206  0.00  0.00    +0.000 OA
ATOM     23  H   UNL     1       3.658   3.329  18.975  0.00  0.00    +0.000 HD
ENDBRANCH  21  22
ENDBRANCH  13  21
ENDBRANCH   1  13
TORSDOF 8
ENDMDL
MODEL 2
REMARK VINA RESULT:      -6.2      3.562      6.229
REMARK  Name = 
REMARK  8 active torsions:
REMARK  status: ('A' for Active; 'I' for Inactive)
REMARK    1  A    between atoms: C_2  and  C_18
REMARK    2  A    between atoms: N_3  and  CA_4
REMARK    3  A    between atoms: CA_4  and  C_5
REMARK    4  A    between atoms: CA_4  and  C_7
REMARK    5  A    between atoms: C_5  and  O_6
REMARK    6  A    between atoms: C_7  and  O_8
REMARK    7  A    between atoms: C_7  and  C_9
REMARK    8  A    between atoms: C_12  and  N_13
REMARK                            x       y       z     vdW  Elec       q    Type
REMARK                         _______ _______ _______ _____ _____    ______ ____
ROOT
ATOM      1  C   UNL     1       3.436   2.739  19.149  0.00  0.00    +0.000 C 
ENDROOT
BRANCH   1   2
ATOM      2  C   UNL     1       4.452   3.481  18.298  0.00  0.00    +0.000 A 
ATOM      3  C   UNL     1       5.517   4.157  18.924  0.00  0.00    +0.000 A 
ATOM      4  C   UNL     1       6.438   4.901  18.178  0.00  0.00    +0.000 A 
ATOM      5  C   UNL     1       6.301   4.966  16.786  0.00  0.00    +0.000 A 
ATOM      6  C   UNL     1       5.256   4.292  16.145  0.00  0.00    +0.000 A 
ATOM      7  C   UNL     1       4.337   3.556  16.900  0.00  0.00    +0.000 A 
BRANCH   5   8
ATOM      8  N   UNL     1       7.258   5.752  15.997  0.00  0.00    +0.000 N 
ATOM      9  O   UNL     1       7.674   6.815  16.483  0.00  0.00    +0.000 OA
ATOM     10  O   UNL     1       7.596   5.306  14.891  0.00  0.00    +0.000 OA
ENDBRANCH   5   8
ENDBRANCH   1   2
BRANCH   1  11
ATOM     11  O   UNL     1       2.997   1.553  18.474  0.00  0.00    +0.000 OA
ATOM     12  H   UNL     1       3.782   1.048  18.199  0.00  0.00    +0.000 HD
ENDBRANCH   1  11
BRANCH   1  13
ATOM     13  CA  UNL     1       2.179   3.570  19.558  0.00  0.00    +0.000 C 
BRANCH  13  16
ATOM     14  O   UNL     1       1.208   5.725  21.138  0.00  0.00    +0.000 OA
ATOM     15  C   UNL     1       1.965   6.000  20.205  0.00  0.00    +0.000 C 
ATOM     16  N   UNL     1       2.485   5.015  19.396  0.00  0.00    +0.000 N 
ATOM     17  H   UNL     1       3.351   5.233  18.907  0.00  0.00    +0.000 HD
BRANCH  15  18
ATOM     18  C   UNL     1       2.349   7.440  19.894  0.00  0.00    +0.000 C 
ATOM     19 BR   UNL     1       2.519   7.625  17.978  0.00  0.00    +0.000 Br
ATOM     20 BR   UNL     1       1.028   8.625  20.682  0.00  0.00    +0.000 Br
ENDBRANCH  15  18
ENDBRANCH  13  16
BRANCH  13  21
ATOM     21  C   UNL     1       0.956   3.139  18.711  0.00  0.00    +0.000 C 
BRANCH  21  22
ATOM     22  O   UNL     1       0.870   3.765  17.435  0.00  0.00    +0.000 OA
ATOM     23  H   UNL     1       0.059   3.452  16.981  0.00  0.00    +0.000 HD
ENDBRANCH  21  22
ENDBRANCH  13  21
ENDBRANCH   1  13
TORSDOF 8
ENDMDL
MODEL 3
REMARK VINA RESULT:      -6.1      0.535      1.212
REMARK  Name = 
REMARK  8 active torsions:
REMARK  status: ('A' for Active; 'I' for Inactive)
REMARK    1  A    between atoms: C_2  and  C_18
REMARK    2  A    between atoms: N_3  and  CA_4
REMARK    3  A    between atoms: CA_4  and  C_5
REMARK    4  A    between atoms: CA_4  and  C_7
REMARK    5  A    between atoms: C_5  and  O_6
REMARK    6  A    between atoms: C_7  and  O_8
REMARK    7  A    between atoms: C_7  and  C_9
REMARK    8  A    between atoms: C_12  and  N_13
REMARK                            x       y       z     vdW  Elec       q    Type
REMARK                         _______ _______ _______ _____ _____    ______ ____
ROOT
ATOM      1  C   UNL     1       2.989   5.712  18.943  0.00  0.00    +0.000 C 
ENDROOT
BRANCH   1   2
ATOM      2  C   UNL     1       2.312   7.067  19.057  0.00  0.00    +0.000 A 
ATOM      3  C   UNL     1       2.222   7.892  17.919  0.00  0.00    +0.000 A 
ATOM      4  C   UNL     1       1.660   9.171  17.999  0.00  0.00    +0.000 A 
ATOM      5  C   UNL     1       1.172   9.632  19.227  0.00  0.00    +0.000 A 
ATOM      6  C   UNL     1       1.243   8.822  20.366  0.00  0.00    +0.000 A 
ATOM      7  C   UNL     1       1.812   7.548  20.278  0.00  0.00    +0.000 A 
BRANCH   5   8
ATOM      8  N   UNL     1       0.589  10.977  19.320  0.00  0.00    +0.000 N 
ATOM      9  O   UNL     1      -0.225  11.317  18.449  0.00  0.00    +0.000 OA
ATOM     10  O   UNL     1       0.945  11.693  20.268  0.00  0.00    +0.000 OA
ENDBRANCH   5   8
ENDBRANCH   1   2
BRANCH   1  11
ATOM     11  O   UNL     1       3.832   5.484  20.081  0.00  0.00    +0.000 OA
ATOM     12  H   UNL     1       3.983   6.335  20.527  0.00  0.00    +0.000 HD
ENDBRANCH   1  11
BRANCH   1  13
ATOM     13  CA  UNL     1       3.836   5.498  17.649  0.00  0.00    +0.000 C 
BRANCH  13  16
ATOM     14  O   UNL     1       5.661   7.018  16.087  0.00  0.00    +0.000 OA
ATOM     15  C   UNL     1       6.082   6.528  17.137  0.00  0.00    +0.000 C 
ATOM     16  N   UNL     1       5.261   5.785  17.954  0.00  0.00    +0.000 N 
ATOM     17  H   UNL     1       5.525   5.722  18.935  0.00  0.00    +0.000 HD
BRANCH  15  18
ATOM     18  C   UNL     1       7.529   6.709  17.571  0.00  0.00    +0.000 C 
ATOM     19 BR   UNL     1       7.886   8.602  17.722  0.00  0.00    +0.000 Br
ATOM     20 BR   UNL     1       7.817   5.723  19.220  0.00  0.00    +0.000 Br
ENDBRANCH  15  18
ENDBRANCH  13  16
BRANCH  13  21
ATOM     21  C   UNL     1       3.636   4.059  17.113  0.00  0.00    +0.000 C 
BRANCH  21  22
ATOM     22  O   UNL     1       3.056   3.155  18.048  0.00  0.00    +0.000 OA
ATOM     23  H   UNL     1       2.906   3.625  18.895  0.00  0.00    +0.000 HD
ENDBRANCH  21  22
ENDBRANCH  13  21
ENDBRANCH   1  13
TORSDOF 8
ENDMDL
MODEL 4
REMARK VINA RESULT:      -6.1      5.078      6.074
REMARK  Name = 
REMARK  8 active torsions:
REMARK  status: ('A' for Active; 'I' for Inactive)
REMARK    1  A    between atoms: C_2  and  C_18
REMARK    2  A    between atoms: N_3  and  CA_4
REMARK    3  A    between atoms: CA_4  and  C_5
REMARK    4  A    between atoms: CA_4  and  C_7
REMARK    5  A    between atoms: C_5  and  O_6
REMARK    6  A    between atoms: C_7  and  O_8
REMARK    7  A    between atoms: C_7  and  C_9
REMARK    8  A    between atoms: C_12  and  N_13
REMARK                            x       y       z     vdW  Elec       q    Type
REMARK                         _______ _______ _______ _____ _____    ______ ____
ROOT
ATOM      1  C   UNL     1       6.536   4.198  16.485  0.00  0.00    +0.000 C 
ENDROOT
BRANCH   1   2
ATOM      2  C   UNL     1       5.336   4.238  17.416  0.00  0.00    +0.000 A 
ATOM      3  C   UNL     1       5.385   5.035  18.576  0.00  0.00    +0.000 A 
ATOM      4  C   UNL     1       4.324   5.048  19.487  0.00  0.00    +0.000 A 
ATOM      5  C   UNL     1       3.193   4.264  19.237  0.00  0.00    +0.000 A 
ATOM      6  C   UNL     1       3.121   3.473  18.084  0.00  0.00    +0.000 A 
ATOM      7  C   UNL     1       4.189   3.461  17.182  0.00  0.00    +0.000 A 
BRANCH   5   8
ATOM      8  N   UNL     1       2.079   4.266  20.194  0.00  0.00    +0.000 N 
ATOM      9  O   UNL     1       0.947   3.993  19.765  0.00  0.00    +0.000 OA
ATOM     10  O   UNL     1       2.336   4.539  21.375  0.00  0.00    +0.000 OA
ENDBRANCH   5   8
ENDBRANCH   1   2
BRANCH   1  11
ATOM     11  O   UNL     1       7.660   4.842  17.102  0.00  0.00    +0.000 OA
ATOM     12  H   UNL     1       7.329   5.462  17.773  0.00  0.00    +0.000 HD
ENDBRANCH   1  11
BRANCH   1  13
ATOM     13  CA  UNL     1       6.309   4.837  15.080  0.00  0.00    +0.000 C 
BRANCH  13  16
ATOM     14  O   UNL     1       7.148   4.315  12.414  0.00  0.00    +0.000 OA
ATOM     15  C   UNL     1       6.244   3.614  12.873  0.00  0.00    +0.000 C 
ATOM     16  N   UNL     1       5.785   3.797  14.158  0.00  0.00    +0.000 N 
ATOM     17  H   UNL     1       5.332   3.000  14.601  0.00  0.00    +0.000 HD
BRANCH  15  18
ATOM     18  C   UNL     1       5.586   2.524  12.040  0.00  0.00    +0.000 C 
ATOM     19 BR   UNL     1       4.105   3.305  11.077  0.00  0.00    +0.000 Br
ATOM     20 BR   UNL     1       6.929   1.716  10.892  0.00  0.00    +0.000 Br
ENDBRANCH  15  18
ENDBRANCH  13  16
BRANCH  13  21
ATOM     21  C   UNL     1       5.348   6.047  15.194  0.00  0.00    +0.000 C 
BRANCH  21  22
ATOM     22  O   UNL     1       5.849   7.129  15.972  0.00  0.00    +0.000 OA
ATOM     23  H   UNL     1       5.575   7.974  15.557  0.00  0.00    +0.000 HD
ENDBRANCH  21  22
ENDBRANCH  13  21
ENDBRANCH   1  13
TORSDOF 8
ENDMDL
MODEL 5
REMARK VINA RESULT:      -6.1      2.030      2.705
REMARK  Name = 
REMARK  8 active torsions:
REMARK  status: ('A' for Active; 'I' for Inactive)
REMARK    1  A    between atoms: C_2  and  C_18
REMARK    2  A    between atoms: N_3  and  CA_4
REMARK    3  A    between atoms: CA_4  and  C_5
REMARK    4  A    between atoms: CA_4  and  C_7
REMARK    5  A    between atoms: C_5  and  O_6
REMARK    6  A    between atoms: C_7  and  O_8
REMARK    7  A    between atoms: C_7  and  C_9
REMARK    8  A    between atoms: C_12  and  N_13
REMARK                            x       y       z     vdW  Elec       q    Type
REMARK                         _______ _______ _______ _____ _____    ______ ____
ROOT
ATOM      1  C   UNL     1       3.001   3.922  17.586  0.00  0.00    +0.000 C 
ENDROOT
BRANCH   1   2
ATOM      2  C   UNL     1       2.656   5.153  18.408  0.00  0.00    +0.000 A 
ATOM      3  C   UNL     1       2.075   4.993  19.681  0.00  0.00    +0.000 A 
ATOM      4  C   UNL     1       1.687   6.103  20.441  0.00  0.00    +0.000 A 
ATOM      5  C   UNL     1       1.888   7.390  19.930  0.00  0.00    +0.000 A 
ATOM      6  C   UNL     1       2.473   7.568  18.671  0.00  0.00    +0.000 A 
ATOM      7  C   UNL     1       2.852   6.454  17.917  0.00  0.00    +0.000 A 
BRANCH   5   8
ATOM      8  N   UNL     1       1.475   8.558  20.718  0.00  0.00    +0.000 N 
ATOM      9  O   UNL     1       1.107   9.570  20.102  0.00  0.00    +0.000 OA
ATOM     10  O   UNL     1       1.518   8.464  21.953  0.00  0.00    +0.000 OA
ENDBRANCH   5   8
ENDBRANCH   1   2
BRANCH   1  11
ATOM     11  O   UNL     1       1.905   2.997  17.597  0.00  0.00    +0.000 OA
ATOM     12  H   UNL     1       1.244   3.296  16.950  0.00  0.00    +0.000 HD
ENDBRANCH   1  11
BRANCH   1  13
ATOM     13  CA  UNL     1       4.292   3.167  18.031  0.00  0.00    +0.000 C 
BRANCH  13  16
ATOM     14  O   UNL     1       6.272   4.039  16.186  0.00  0.00    +0.000 OA
ATOM     15  C   UNL     1       6.298   4.523  17.319  0.00  0.00    +0.000 C 
ATOM     16  N   UNL     1       5.372   4.160  18.270  0.00  0.00    +0.000 N 
ATOM     17  H   UNL     1       5.206   4.822  19.025  0.00  0.00    +0.000 HD
BRANCH  15  18
ATOM     18  C   UNL     1       7.363   5.532  17.725  0.00  0.00    +0.000 C 
ATOM     19 BR   UNL     1       6.781   7.287  17.165  0.00  0.00    +0.000 Br
ATOM     20 BR   UNL     1       7.674   5.381  19.636  0.00  0.00    +0.000 Br
ENDBRANCH  15  18
ENDBRANCH  13  16
BRANCH  13  21
ATOM     21  C   UNL     1       4.002   2.312  19.290  0.00  0.00    +0.000 C 
BRANCH  21  22
ATOM     22  O   UNL     1       5.157   1.953  20.040  0.00  0.00    +0.000 OA
ATOM     23  H   UNL     1       5.868   2.604  19.862  0.00  0.00    +0.000 HD
ENDBRANCH  21  22
ENDBRANCH  13  21
ENDBRANCH   1  13
TORSDOF 8
ENDMDL
MODEL 6
REMARK VINA RESULT:      -6.1      3.635      6.365
REMARK  Name = 
REMARK  8 active torsions:
REMARK  status: ('A' for Active; 'I' for Inactive)
REMARK    1  A    between atoms: C_2  and  C_18
REMARK    2  A    between atoms: N_3  and  CA_4
REMARK    3  A    between atoms: CA_4  and  C_5
REMARK    4  A    between atoms: CA_4  and  C_7
REMARK    5  A    between atoms: C_5  and  O_6
REMARK    6  A    between atoms: C_7  and  O_8
REMARK    7  A    between atoms: C_7  and  C_9
REMARK    8  A    between atoms: C_12  and  N_13
REMARK                            x       y       z     vdW  Elec       q    Type
REMARK                         _______ _______ _______ _____ _____    ______ ____
ROOT
ATOM      1  C   UNL     1       3.525   2.727  19.073  0.00  0.00    +0.000 C 
ENDROOT
BRANCH   1   2
ATOM      2  C   UNL     1       4.508   3.546  18.254  0.00  0.00    +0.000 A 
ATOM      3  C   UNL     1       4.399   3.556  16.850  0.00  0.00    +0.000 A 
ATOM      4  C   UNL     1       5.323   4.249  16.060  0.00  0.00    +0.000 A 
ATOM      5  C   UNL     1       6.366   4.949  16.676  0.00  0.00    +0.000 A 
ATOM      6  C   UNL     1       6.485   4.959  18.071  0.00  0.00    +0.000 A 
ATOM      7  C   UNL     1       5.561   4.258  18.852  0.00  0.00    +0.000 A 
BRANCH   5   8
ATOM      8  N   UNL     1       7.345   5.671  15.853  0.00  0.00    +0.000 N 
ATOM      9  O   UNL     1       7.632   5.194  14.745  0.00  0.00    +0.000 OA
ATOM     10  O   UNL     1       7.825   6.717  16.314  0.00  0.00    +0.000 OA
ENDBRANCH   5   8
ENDBRANCH   1   2
BRANCH   1  11
ATOM     11  O   UNL     1       3.075   1.594  18.317  0.00  0.00    +0.000 OA
ATOM     12  H   UNL     1       3.813   1.278  17.768  0.00  0.00    +0.000 HD
ENDBRANCH   1  11
BRANCH   1  13
ATOM     13  CA  UNL     1       2.276   3.508  19.588  0.00  0.00    +0.000 C 
BRANCH  13  16
ATOM     14  O   UNL     1       1.129   5.594  21.142  0.00  0.00    +0.000 OA
ATOM     15  C   UNL     1       1.935   5.915  20.267  0.00  0.00    +0.000 C 
ATOM     16  N   UNL     1       2.541   4.966  19.475  0.00  0.00    +0.000 N 
ATOM     17  H   UNL     1       3.428   5.223  19.048  0.00  0.00    +0.000 HD
BRANCH  15  18
ATOM     18  C   UNL     1       2.288   7.373  20.010  0.00  0.00    +0.000 C 
ATOM     19 BR   UNL     1       2.366   7.653  18.100  0.00  0.00    +0.000 Br
ATOM     20 BR   UNL     1       0.991   8.499  20.916  0.00  0.00    +0.000 Br
ENDBRANCH  15  18
ENDBRANCH  13  16
BRANCH  13  21
ATOM     21  C   UNL     1       1.017   3.084  18.791  0.00  0.00    +0.000 C 
BRANCH  21  22
ATOM     22  O   UNL     1       0.930   3.639  17.483  0.00  0.00    +0.000 OA
ATOM     23  H   UNL     1       1.804   3.563  17.046  0.00  0.00    +0.000 HD
ENDBRANCH  21  22
ENDBRANCH  13  21
ENDBRANCH   1  13
TORSDOF 8
ENDMDL
MODEL 7
REMARK VINA RESULT:      -6.1      2.322      3.093
REMARK  Name = 
REMARK  8 active torsions:
REMARK  status: ('A' for Active; 'I' for Inactive)
REMARK    1  A    between atoms: C_2  and  C_18
REMARK    2  A    between atoms: N_3  and  CA_4
REMARK    3  A    between atoms: CA_4  and  C_5
REMARK    4  A    between atoms: CA_4  and  C_7
REMARK    5  A    between atoms: C_5  and  O_6
REMARK    6  A    between atoms: C_7  and  O_8
REMARK    7  A    between atoms: C_7  and  C_9
REMARK    8  A    between atoms: C_12  and  N_13
REMARK                            x       y       z     vdW  Elec       q    Type
REMARK                         _______ _______ _______ _____ _____    ______ ____
ROOT
ATOM      1  C   UNL     1       2.758   3.666  17.741  0.00  0.00    +0.000 C 
ENDROOT
BRANCH   1   2
ATOM      2  C   UNL     1       2.489   4.939  18.526  0.00  0.00    +0.000 A 
ATOM      3  C   UNL     1       1.857   4.856  19.781  0.00  0.00    +0.000 A 
ATOM      4  C   UNL     1       1.538   6.010  20.505  0.00  0.00    +0.000 A 
ATOM      5  C   UNL     1       1.860   7.265  19.976  0.00  0.00    +0.000 A 
ATOM      6  C   UNL     1       2.498   7.366  18.734  0.00  0.00    +0.000 A 
ATOM      7  C   UNL     1       2.807   6.208  18.015  0.00  0.00    +0.000 A 
BRANCH   5   8
ATOM      8  N   UNL     1       1.520   8.481  20.726  0.00  0.00    +0.000 N 
ATOM      9  O   UNL     1       1.181   9.483  20.079  0.00  0.00    +0.000 OA
ATOM     10  O   UNL     1       1.589   8.432  21.963  0.00  0.00    +0.000 OA
ENDBRANCH   5   8
ENDBRANCH   1   2
BRANCH   1  11
ATOM     11  O   UNL     1       1.660   2.755  17.884  0.00  0.00    +0.000 OA
ATOM     12  H   UNL     1       1.745   2.303  18.742  0.00  0.00    +0.000 HD
ENDBRANCH   1  11
BRANCH   1  13
ATOM     13  CA  UNL     1       4.076   2.918  18.118  0.00  0.00    +0.000 C 
BRANCH  13  16
ATOM     14  O   UNL     1       5.997   4.684  19.246  0.00  0.00    +0.000 OA
ATOM     15  C   UNL     1       6.100   4.424  18.046  0.00  0.00    +0.000 C 
ATOM     16  N   UNL     1       5.215   3.572  17.424  0.00  0.00    +0.000 N 
ATOM     17  H   UNL     1       5.540   3.113  16.576  0.00  0.00    +0.000 HD
BRANCH  15  18
ATOM     18  C   UNL     1       7.199   5.040  17.193  0.00  0.00    +0.000 C 
ATOM     19 BR   UNL     1       6.813   4.664  15.338  0.00  0.00    +0.000 Br
ATOM     20 BR   UNL     1       7.321   6.935  17.601  0.00  0.00    +0.000 Br
ENDBRANCH  15  18
ENDBRANCH  13  16
BRANCH  13  21
ATOM     21  C   UNL     1       4.261   2.909  19.656  0.00  0.00    +0.000 C 
BRANCH  21  22
ATOM     22  O   UNL     1       5.119   1.884  20.142  0.00  0.00    +0.000 OA
ATOM     23  H   UNL     1       4.641   1.363  20.821  0.00  0.00    +0.000 HD
ENDBRANCH  21  22
ENDBRANCH  13  21
ENDBRANCH   1  13
TORSDOF 8
ENDMDL
MODEL 8
REMARK VINA RESULT:      -6.0      4.172      5.522
REMARK  Name = 
REMARK  8 active torsions:
REMARK  status: ('A' for Active; 'I' for Inactive)
REMARK    1  A    between atoms: C_2  and  C_18
REMARK    2  A    between atoms: N_3  and  CA_4
REMARK    3  A    between atoms: CA_4  and  C_5
REMARK    4  A    between atoms: CA_4  and  C_7
REMARK    5  A    between atoms: C_5  and  O_6
REMARK    6  A    between atoms: C_7  and  O_8
REMARK    7  A    between atoms: C_7  and  C_9
REMARK    8  A    between atoms: C_12  and  N_13
REMARK                            x       y       z     vdW  Elec       q    Type
REMARK                         _______ _______ _______ _____ _____    ______ ____
ROOT
ATOM      1  C   UNL     1       5.171   6.541  16.785  0.00  0.00    +0.000 C 
ENDROOT
BRANCH   1   2
ATOM      2  C   UNL     1       4.044   5.702  17.363  0.00  0.00    +0.000 A 
ATOM      3  C   UNL     1       3.285   6.208  18.436  0.00  0.00    +0.000 A 
ATOM      4  C   UNL     1       2.280   5.439  19.035  0.00  0.00    +0.000 A 
ATOM      5  C   UNL     1       2.021   4.152  18.552  0.00  0.00    +0.000 A 
ATOM      6  C   UNL     1       2.758   3.636  17.480  0.00  0.00    +0.000 A 
ATOM      7  C   UNL     1       3.764   4.408  16.893  0.00  0.00    +0.000 A 
BRANCH   5   8
ATOM      8  N   UNL     1       0.974   3.336  19.181  0.00  0.00    +0.000 N 
ATOM      9  O   UNL     1       0.617   3.638  20.330  0.00  0.00    +0.000 OA
ATOM     10  O   UNL     1       0.507   2.393  18.526  0.00  0.00    +0.000 OA
ENDBRANCH   5   8
ENDBRANCH   1   2
BRANCH   1  11
ATOM     11  O   UNL     1       4.833   6.977  15.461  0.00  0.00    +0.000 OA
ATOM     12  H   UNL     1       4.694   6.191  14.905  0.00  0.00    +0.000 HD
ENDBRANCH   1  11
BRANCH   1  13
ATOM     13  CA  UNL     1       6.564   5.839  16.736  0.00  0.00    +0.000 C 
BRANCH  13  16
ATOM     14  O   UNL     1       6.189   3.333  15.446  0.00  0.00    +0.000 OA
ATOM     15  C   UNL     1       6.672   4.250  14.779  0.00  0.00    +0.000 C 
ATOM     16  N   UNL     1       6.880   5.496  15.325  0.00  0.00    +0.000 N 
ATOM     17  H   UNL     1       6.923   6.280  14.677  0.00  0.00    +0.000 HD
BRANCH  15  18
ATOM     18  C   UNL     1       7.075   4.044  13.325  0.00  0.00    +0.000 C 
ATOM     19 BR   UNL     1       5.493   3.584  12.316  0.00  0.00    +0.000 Br
ATOM     20 BR   UNL     1       7.972   5.645  12.691  0.00  0.00    +0.000 Br
ENDBRANCH  15  18
ENDBRANCH  13  16
BRANCH  13  21
ATOM     21  C   UNL     1       7.644   6.754  17.365  0.00  0.00    +0.000 C 
BRANCH  21  22
ATOM     22  O   UNL     1       7.472   8.142  17.097  0.00  0.00    +0.000 OA
ATOM     23  H   UNL     1       7.285   8.608  17.939  0.00  0.00    +0.000 HD
ENDBRANCH  21  22
ENDBRANCH  13  21
ENDBRANCH   1  13
TORSDOF 8
ENDMDL
MODEL 9
REMARK VINA RESULT:      -6.0      3.851      7.090
REMARK  Name = 
REMARK  8 active torsions:
REMARK  status: ('A' for Active; 'I' for Inactive)
REMARK    1  A    between atoms: C_2  and  C_18
REMARK    2  A    between atoms: N_3  and  CA_4
REMARK    3  A    between atoms: CA_4  and  C_5
REMARK    4  A    between atoms: CA_4  and  C_7
REMARK    5  A    between atoms: C_5  and  O_6
REMARK    6  A    between atoms: C_7  and  O_8
REMARK    7  A    between atoms: C_7  and  C_9
REMARK    8  A    between atoms: C_12  and  N_13
REMARK                            x       y       z     vdW  Elec       q    Type
REMARK                         _______ _______ _______ _____ _____    ______ ____
ROOT
ATOM      1  C   UNL     1       4.600   6.215  17.990  0.00  0.00    +0.000 C 
ENDROOT
BRANCH   1   2
ATOM      2  C   UNL     1       5.145   5.610  16.708  0.00  0.00    +0.000 A 
ATOM      3  C   UNL     1       5.204   6.397  15.541  0.00  0.00    +0.000 A 
ATOM      4  C   UNL     1       5.642   5.857  14.328  0.00  0.00    +0.000 A 
ATOM      5  C   UNL     1       6.037   4.515  14.276  0.00  0.00    +0.000 A 
ATOM      6  C   UNL     1       5.996   3.720  15.426  0.00  0.00    +0.000 A 
ATOM      7  C   UNL     1       5.550   4.267  16.633  0.00  0.00    +0.000 A 
BRANCH   5   8
ATOM      8  N   UNL     1       6.490   3.938  13.003  0.00  0.00    +0.000 N 
ATOM      9  O   UNL     1       7.452   4.475  12.434  0.00  0.00    +0.000 OA
ATOM     10  O   UNL     1       5.884   2.946  12.573  0.00  0.00    +0.000 OA
ENDBRANCH   5   8
ENDBRANCH   1   2
BRANCH   1  11
ATOM     11  O   UNL     1       5.289   5.672  19.125  0.00  0.00    +0.000 OA
ATOM     12  H   UNL     1       6.034   6.259  19.342  0.00  0.00    +0.000 HD
ENDBRANCH   1  11
BRANCH   1  13
ATOM     13  CA  UNL     1       3.065   6.035  18.209  0.00  0.00    +0.000 C 
BRANCH  13  16
ATOM     14  O   UNL     1       1.080   4.178  17.375  0.00  0.00    +0.000 OA
ATOM     15  C   UNL     1       1.822   3.841  18.300  0.00  0.00    +0.000 C 
ATOM     16  N   UNL     1       2.813   4.678  18.759  0.00  0.00    +0.000 N 
ATOM     17  H   UNL     1       3.599   4.240  19.236  0.00  0.00    +0.000 HD
BRANCH  15  18
ATOM     18  C   UNL     1       1.670   2.490  18.985  0.00  0.00    +0.000 C 
ATOM     19 BR   UNL     1       3.266   1.455  18.651  0.00  0.00    +0.000 Br
ATOM     20 BR   UNL     1       1.305   2.782  20.870  0.00  0.00    +0.000 Br
ENDBRANCH  15  18
ENDBRANCH  13  16
BRANCH  13  21
ATOM     21  C   UNL     1       2.526   7.147  19.143  0.00  0.00    +0.000 C 
BRANCH  21  22
ATOM     22  O   UNL     1       2.537   6.815  20.527  0.00  0.00    +0.000 OA
ATOM     23  H   UNL     1       2.178   7.569  21.039  0.00  0.00    +0.000 HD
ENDBRANCH  21  22
ENDBRANCH  13  21
ENDBRANCH   1  13
TORSDOF 8
ENDMDL
