MODEL 1
REMARK VINA RESULT:      -7.2      0.000      0.000
REMARK  Name = 
REMARK  8 active torsions:
REMARK  status: ('A' for Active; 'I' for Inactive)
REMARK    1  A    between atoms: C_1  and  C_2
REMARK    2  A    between atoms: C_2  and  C_3
REMARK    3  A    between atoms: C_2  and  C_4
REMARK    4  A    between atoms: C_2  and  C_5
REMARK    5  A    between atoms: C_8  and  N_9
REMARK    6  A    between atoms: C_12  and  C_13
REMARK    7  A    between atoms: C_18  and  O_19
REMARK    8  A    between atoms: C_18  and  C_20
REMARK                            x       y       z     vdW  Elec       q    Type
REMARK                         _______ _______ _______ _____ _____    ______ ____
ROOT
ATOM      1  C   UNL     1      -2.013  12.447  20.290  0.00  0.00    +0.000 A 
ATOM      2  N   UNL     1      -2.567  11.866  19.214  0.00  0.00    +0.000 NA
ATOM      3  N   UNL     1      -3.834  12.302  19.201  0.00  0.00    +0.000 N 
ATOM      4  C   UNL     1      -4.097  13.145  20.229  0.00  0.00    +0.000 A 
ATOM      5  C   UNL     1      -2.956  13.259  20.972  0.00  0.00    +0.000 A 
ATOM      6  C   UNL     1      -2.878  14.081  22.218  0.00  0.00    +0.000 C 
ATOM      7  C   UNL     1      -4.201  14.855  22.468  0.00  0.00    +0.000 C 
ATOM      8  C   UNL     1      -5.380  14.632  21.529  0.00  0.00    +0.000 C 
ATOM      9  O   UNL     1      -6.449  15.222  21.715  0.00  0.00    +0.000 OA
ATOM     10  N   UNL     1      -5.276  13.770  20.477  0.00  0.00    +0.000 N 
ATOM     11  H   UNL     1      -4.450  11.978  18.462  0.00  0.00    +0.000 HD
ATOM     12  H   UNL     1      -6.091  13.668  19.882  0.00  0.00    +0.000 HD
ENDROOT
BRANCH   1  16
ATOM     13  N   UNL     1       0.480   9.838  19.444  0.00  0.00    +0.000 N 
ATOM     14  C   UNL     1       0.241  10.974  18.558  0.00  0.00    +0.000 C 
ATOM     15  C   UNL     1       0.331  12.256  19.383  0.00  0.00    +0.000 C 
ATOM     16  C   UNL     1      -0.564  12.212  20.629  0.00  0.00    +0.000 C 
ATOM     17  C   UNL     1      -0.342  10.933  21.445  0.00  0.00    +0.000 C 
ATOM     18  C   UNL     1      -0.418   9.680  20.584  0.00  0.00    +0.000 C 
BRANCH  13  22
ATOM     19  C   UNL     1       3.204   6.919  18.448  0.00  0.00    +0.000 A 
ATOM     20  N   UNL     1       2.959   7.886  17.553  0.00  0.00    +0.000 NA
ATOM     21  C   UNL     1       2.088   8.842  17.918  0.00  0.00    +0.000 A 
ATOM     22  C   UNL     1       1.421   8.889  19.132  0.00  0.00    +0.000 A 
ATOM     23  C   UNL     1       1.773   7.846  19.970  0.00  0.00    +0.000 A 
ATOM     24  N   UNL     1       2.632   6.855  19.665  0.00  0.00    +0.000 NA
BRANCH  19  26
ATOM     25  C   UNL     1       4.932   5.310  19.269  0.00  0.00    +0.000 C 
ATOM     26  C   UNL     1       4.138   5.793  18.042  0.00  0.00    +0.000 C 
ATOM     27  C   UNL     1       5.113   6.314  16.975  0.00  0.00    +0.000 C 
ATOM     28  C   UNL     1       3.332   4.614  17.469  0.00  0.00    +0.000 C 
ENDBRANCH  19  26
ENDBRANCH  13  22
ENDBRANCH   1  16
BRANCH   6  29
ATOM     29  C   UNL     1      -2.529  13.181  23.464  0.00  0.00    +0.000 C 
ATOM     30  F   UNL     1      -1.201  13.158  23.733  0.00  0.00    +0.000 F 
ATOM     31  F   UNL     1      -3.127  13.657  24.586  0.00  0.00    +0.000 F 
ATOM     32  F   UNL     1      -2.907  11.891  23.333  0.00  0.00    +0.000 F 
ENDBRANCH   6  29
BRANCH   6  33
ATOM     33  O   UNL     1      -1.886  15.128  22.016  0.00  0.00    +0.000 OA
ATOM     34  H   UNL     1      -1.914  15.744  22.766  0.00  0.00    +0.000 HD
ENDBRANCH   6  33
TORSDOF 5
ENDMDL
MODEL 2
REMARK VINA RESULT:      -7.2      2.737      3.707
REMARK  Name = 
REMARK  8 active torsions:
REMARK  status: ('A' for Active; 'I' for Inactive)
REMARK    1  A    between atoms: C_1  and  C_2
REMARK    2  A    between atoms: C_2  and  C_3
REMARK    3  A    between atoms: C_2  and  C_4
REMARK    4  A    between atoms: C_2  and  C_5
REMARK    5  A    between atoms: C_8  and  N_9
REMARK    6  A    between atoms: C_12  and  C_13
REMARK    7  A    between atoms: C_18  and  O_19
REMARK    8  A    between atoms: C_18  and  C_20
REMARK                            x       y       z     vdW  Elec       q    Type
REMARK                         _______ _______ _______ _____ _____    ______ ____
ROOT
ATOM      1  C   UNL     1       0.376  11.704  20.495  0.00  0.00    +0.000 A 
ATOM      2  N   UNL     1       1.489  12.092  19.851  0.00  0.00    +0.000 NA
ATOM      3  N   UNL     1       1.790  13.289  20.373  0.00  0.00    +0.000 N 
ATOM      4  C   UNL     1       0.910  13.666  21.332  0.00  0.00    +0.000 A 
ATOM      5  C   UNL     1      -0.033  12.683  21.437  0.00  0.00    +0.000 A 
ATOM      6  C   UNL     1      -1.197  12.771  22.372  0.00  0.00    +0.000 C 
ATOM      7  C   UNL     1      -1.112  14.042  23.261  0.00  0.00    +0.000 C 
ATOM      8  C   UNL     1       0.021  15.034  23.031  0.00  0.00    +0.000 C 
ATOM      9  O   UNL     1       0.101  16.061  23.712  0.00  0.00    +0.000 OA
ATOM     10  N   UNL     1       0.955  14.810  22.063  0.00  0.00    +0.000 N 
ATOM     11  H   UNL     1       2.608  13.778  20.023  0.00  0.00    +0.000 HD
ATOM     12  H   UNL     1       1.689  15.501  21.961  0.00  0.00    +0.000 HD
ENDROOT
BRANCH   1  16
ATOM     13  N   UNL     1       1.634   8.259  19.960  0.00  0.00    +0.000 N 
ATOM     14  C   UNL     1       1.366   8.768  21.302  0.00  0.00    +0.000 C 
ATOM     15  C   UNL     1      -0.041   9.360  21.320  0.00  0.00    +0.000 C 
ATOM     16  C   UNL     1      -0.263  10.375  20.191  0.00  0.00    +0.000 C 
ATOM     17  C   UNL     1       0.154   9.809  18.827  0.00  0.00    +0.000 C 
ATOM     18  C   UNL     1       1.553   9.211  18.856  0.00  0.00    +0.000 C 
BRANCH  13  22
ATOM     19  C   UNL     1       2.860   4.385  19.313  0.00  0.00    +0.000 A 
ATOM     20  N   UNL     1       3.242   5.323  18.434  0.00  0.00    +0.000 NA
ATOM     21  C   UNL     1       2.851   6.583  18.689  0.00  0.00    +0.000 A 
ATOM     22  C   UNL     1       2.079   6.975  19.771  0.00  0.00    +0.000 A 
ATOM     23  C   UNL     1       1.767   5.918  20.608  0.00  0.00    +0.000 A 
ATOM     24  N   UNL     1       2.120   4.634  20.409  0.00  0.00    +0.000 NA
BRANCH  19  26
ATOM     25  C   UNL     1       3.740   2.820  17.573  0.00  0.00    +0.000 C 
ATOM     26  C   UNL     1       3.235   2.942  19.022  0.00  0.00    +0.000 C 
ATOM     27  C   UNL     1       1.993   2.057  19.207  0.00  0.00    +0.000 C 
ATOM     28  C   UNL     1       4.345   2.478  19.982  0.00  0.00    +0.000 C 
ENDBRANCH  19  26
ENDBRANCH  13  22
ENDBRANCH   1  16
BRANCH   6  29
ATOM     29  C   UNL     1      -2.559  12.750  21.578  0.00  0.00    +0.000 C 
ATOM     30  F   UNL     1      -3.573  12.216  22.300  0.00  0.00    +0.000 F 
ATOM     31  F   UNL     1      -2.952  14.011  21.262  0.00  0.00    +0.000 F 
ATOM     32  F   UNL     1      -2.510  12.051  20.424  0.00  0.00    +0.000 F 
ENDBRANCH   6  29
BRANCH   6  33
ATOM     33  O   UNL     1      -1.109  11.668  23.319  0.00  0.00    +0.000 OA
ATOM     34  H   UNL     1      -0.863  12.015  24.191  0.00  0.00    +0.000 HD
ENDBRANCH   6  33
TORSDOF 5
ENDMDL
MODEL 3
REMARK VINA RESULT:      -7.2      0.136      1.045
REMARK  Name = 
REMARK  8 active torsions:
REMARK  status: ('A' for Active; 'I' for Inactive)
REMARK    1  A    between atoms: C_1  and  C_2
REMARK    2  A    between atoms: C_2  and  C_3
REMARK    3  A    between atoms: C_2  and  C_4
REMARK    4  A    between atoms: C_2  and  C_5
REMARK    5  A    between atoms: C_8  and  N_9
REMARK    6  A    between atoms: C_12  and  C_13
REMARK    7  A    between atoms: C_18  and  O_19
REMARK    8  A    between atoms: C_18  and  C_20
REMARK                            x       y       z     vdW  Elec       q    Type
REMARK                         _______ _______ _______ _____ _____    ______ ____
ROOT
ATOM      1  C   UNL     1      -1.920  12.455  20.304  0.00  0.00    +0.000 A 
ATOM      2  N   UNL     1      -2.502  11.842  19.261  0.00  0.00    +0.000 NA
ATOM      3  N   UNL     1      -3.763  12.294  19.254  0.00  0.00    +0.000 N 
ATOM      4  C   UNL     1      -3.995  13.179  20.254  0.00  0.00    +0.000 A 
ATOM      5  C   UNL     1      -2.839  13.305  20.971  0.00  0.00    +0.000 A 
ATOM      6  C   UNL     1      -2.727  14.173  22.184  0.00  0.00    +0.000 C 
ATOM      7  C   UNL     1      -4.035  14.974  22.428  0.00  0.00    +0.000 C 
ATOM      8  C   UNL     1      -5.234  14.733  21.520  0.00  0.00    +0.000 C 
ATOM      9  O   UNL     1      -6.291  15.344  21.703  0.00  0.00    +0.000 OA
ATOM     10  N   UNL     1      -5.161  13.830  20.500  0.00  0.00    +0.000 N 
ATOM     11  H   UNL     1      -4.397  11.952  18.539  0.00  0.00    +0.000 HD
ATOM     12  H   UNL     1      -5.988  13.717  19.924  0.00  0.00    +0.000 HD
ENDROOT
BRANCH   1  16
ATOM     13  N   UNL     1       0.543   9.821  19.446  0.00  0.00    +0.000 N 
ATOM     14  C   UNL     1       0.300  10.952  18.555  0.00  0.00    +0.000 C 
ATOM     15  C   UNL     1       0.410  12.239  19.367  0.00  0.00    +0.000 C 
ATOM     16  C   UNL     1      -0.469  12.212  20.626  0.00  0.00    +0.000 C 
ATOM     17  C   UNL     1      -0.244  10.937  21.449  0.00  0.00    +0.000 C 
ATOM     18  C   UNL     1      -0.341   9.678  20.599  0.00  0.00    +0.000 C 
BRANCH  13  22
ATOM     19  C   UNL     1       3.233   6.878  18.432  0.00  0.00    +0.000 A 
ATOM     20  N   UNL     1       3.027   7.873  17.557  0.00  0.00    +0.000 NA
ATOM     21  C   UNL     1       2.165   8.835  17.929  0.00  0.00    +0.000 A 
ATOM     22  C   UNL     1       1.472   8.863  19.129  0.00  0.00    +0.000 A 
ATOM     23  C   UNL     1       1.787   7.791  19.946  0.00  0.00    +0.000 A 
ATOM     24  N   UNL     1       2.634   6.792  19.633  0.00  0.00    +0.000 NA
BRANCH  19  26
ATOM     25  C   UNL     1       5.045   6.204  16.846  0.00  0.00    +0.000 C 
ATOM     26  C   UNL     1       4.156   5.745  18.016  0.00  0.00    +0.000 C 
ATOM     27  C   UNL     1       3.304   4.546  17.571  0.00  0.00    +0.000 C 
ATOM     28  C   UNL     1       5.052   5.329  19.196  0.00  0.00    +0.000 C 
ENDBRANCH  19  26
ENDBRANCH  13  22
ENDBRANCH   1  16
BRANCH   6  29
ATOM     29  C   UNL     1      -2.367  13.315  23.457  0.00  0.00    +0.000 C 
ATOM     30  F   UNL     1      -2.908  13.818  24.593  0.00  0.00    +0.000 F 
ATOM     31  F   UNL     1      -2.855  12.053  23.342  0.00  0.00    +0.000 F 
ATOM     32  F   UNL     1      -1.041  13.206  23.689  0.00  0.00    +0.000 F 
ENDBRANCH   6  29
BRANCH   6  33
ATOM     33  O   UNL     1      -1.724  15.197  21.925  0.00  0.00    +0.000 OA
ATOM     34  H   UNL     1      -1.473  15.616  22.763  0.00  0.00    +0.000 HD
ENDBRANCH   6  33
TORSDOF 5
ENDMDL
MODEL 4
REMARK VINA RESULT:      -7.1      2.920      3.924
REMARK  Name = 
REMARK  8 active torsions:
REMARK  status: ('A' for Active; 'I' for Inactive)
REMARK    1  A    between atoms: C_1  and  C_2
REMARK    2  A    between atoms: C_2  and  C_3
REMARK    3  A    between atoms: C_2  and  C_4
REMARK    4  A    between atoms: C_2  and  C_5
REMARK    5  A    between atoms: C_8  and  N_9
REMARK    6  A    between atoms: C_12  and  C_13
REMARK    7  A    between atoms: C_18  and  O_19
REMARK    8  A    between atoms: C_18  and  C_20
REMARK                            x       y       z     vdW  Elec       q    Type
REMARK                         _______ _______ _______ _____ _____    ______ ____
ROOT
ATOM      1  C   UNL     1       0.810  11.811  19.771  0.00  0.00    +0.000 A 
ATOM      2  N   UNL     1       1.883  12.159  19.042  0.00  0.00    +0.000 NA
ATOM      3  N   UNL     1       2.281  13.333  19.553  0.00  0.00    +0.000 N 
ATOM      4  C   UNL     1       1.500  13.733  20.586  0.00  0.00    +0.000 A 
ATOM      5  C   UNL     1       0.525  12.791  20.756  0.00  0.00    +0.000 A 
ATOM      6  C   UNL     1      -0.553  12.915  21.786  0.00  0.00    +0.000 C 
ATOM      7  C   UNL     1      -0.337  14.166  22.681  0.00  0.00    +0.000 C 
ATOM      8  C   UNL     1       0.817  15.111  22.370  0.00  0.00    +0.000 C 
ATOM      9  O   UNL     1       1.000  16.122  23.056  0.00  0.00    +0.000 OA
ATOM     10  N   UNL     1       1.657  14.861  21.325  0.00  0.00    +0.000 N 
ATOM     11  H   UNL     1       3.088  13.791  19.143  0.00  0.00    +0.000 HD
ATOM     12  H   UNL     1       2.412  15.520  21.172  0.00  0.00    +0.000 HD
ENDROOT
BRANCH   1  16
ATOM     13  N   UNL     1       1.825   8.256  19.510  0.00  0.00    +0.000 N 
ATOM     14  C   UNL     1       1.520   8.864  20.802  0.00  0.00    +0.000 C 
ATOM     15  C   UNL     1       0.165   9.558  20.700  0.00  0.00    +0.000 C 
ATOM     16  C   UNL     1       0.088  10.516  19.503  0.00  0.00    +0.000 C 
ATOM     17  C   UNL     1       0.537   9.839  18.202  0.00  0.00    +0.000 C 
ATOM     18  C   UNL     1       1.882   9.142  18.351  0.00  0.00    +0.000 C 
BRANCH  13  22
ATOM     19  C   UNL     1       2.761   4.261  19.196  0.00  0.00    +0.000 A 
ATOM     20  N   UNL     1       2.953   5.041  18.123  0.00  0.00    +0.000 NA
ATOM     21  C   UNL     1       2.667   6.346  18.265  0.00  0.00    +0.000 A 
ATOM     22  C   UNL     1       2.179   6.933  19.422  0.00  0.00    +0.000 A 
ATOM     23  C   UNL     1       2.041   6.025  20.457  0.00  0.00    +0.000 A 
ATOM     24  N   UNL     1       2.304   4.706  20.381  0.00  0.00    +0.000 NA
BRANCH  19  26
ATOM     25  C   UNL     1       4.049   2.317  20.099  0.00  0.00    +0.000 C 
ATOM     26  C   UNL     1       3.019   2.771  19.049  0.00  0.00    +0.000 C 
ATOM     27  C   UNL     1       3.568   2.497  17.641  0.00  0.00    +0.000 C 
ATOM     28  C   UNL     1       1.713   1.984  19.253  0.00  0.00    +0.000 C 
ENDBRANCH  19  26
ENDBRANCH  13  22
ENDBRANCH   1  16
BRANCH   6  29
ATOM     29  C   UNL     1      -1.975  12.968  21.107  0.00  0.00    +0.000 C 
ATOM     30  F   UNL     1      -2.867  13.693  21.824  0.00  0.00    +0.000 F 
ATOM     31  F   UNL     1      -1.906  13.565  19.889  0.00  0.00    +0.000 F 
ATOM     32  F   UNL     1      -2.540  11.756  20.921  0.00  0.00    +0.000 F 
ENDBRANCH   6  29
BRANCH   6  33
ATOM     33  O   UNL     1      -0.439  11.793  22.707  0.00  0.00    +0.000 OA
ATOM     34  H   UNL     1      -1.325  11.538  23.010  0.00  0.00    +0.000 HD
ENDBRANCH   6  33
TORSDOF 5
ENDMDL
MODEL 5
REMARK VINA RESULT:      -7.1      0.294      1.046
REMARK  Name = 
REMARK  8 active torsions:
REMARK  status: ('A' for Active; 'I' for Inactive)
REMARK    1  A    between atoms: C_1  and  C_2
REMARK    2  A    between atoms: C_2  and  C_3
REMARK    3  A    between atoms: C_2  and  C_4
REMARK    4  A    between atoms: C_2  and  C_5
REMARK    5  A    between atoms: C_8  and  N_9
REMARK    6  A    between atoms: C_12  and  C_13
REMARK    7  A    between atoms: C_18  and  O_19
REMARK    8  A    between atoms: C_18  and  C_20
REMARK                            x       y       z     vdW  Elec       q    Type
REMARK                         _______ _______ _______ _____ _____    ______ ____
ROOT
ATOM      1  C   UNL     1      -1.762  12.399  20.269  0.00  0.00    +0.000 A 
ATOM      2  N   UNL     1      -2.305  11.823  19.184  0.00  0.00    +0.000 NA
ATOM      3  N   UNL     1      -3.540  12.337  19.103  0.00  0.00    +0.000 N 
ATOM      4  C   UNL     1      -3.792  13.225  20.096  0.00  0.00    +0.000 A 
ATOM      5  C   UNL     1      -2.679  13.287  20.886  0.00  0.00    +0.000 A 
ATOM      6  C   UNL     1      -2.602  14.139  22.114  0.00  0.00    +0.000 C 
ATOM      7  C   UNL     1      -3.883  15.002  22.283  0.00  0.00    +0.000 C 
ATOM      8  C   UNL     1      -5.032  14.826  21.299  0.00  0.00    +0.000 C 
ATOM      9  O   UNL     1      -6.068  15.488  21.421  0.00  0.00    +0.000 OA
ATOM     10  N   UNL     1      -4.938  13.930  20.275  0.00  0.00    +0.000 N 
ATOM     11  H   UNL     1      -4.143  12.032  18.346  0.00  0.00    +0.000 HD
ATOM     12  H   UNL     1      -5.731  13.862  19.647  0.00  0.00    +0.000 HD
ENDROOT
BRANCH   1  16
ATOM     13  N   UNL     1       0.673   9.737  19.418  0.00  0.00    +0.000 N 
ATOM     14  C   UNL     1       0.535  10.930  18.589  0.00  0.00    +0.000 C 
ATOM     15  C   UNL     1       0.624  12.158  19.492  0.00  0.00    +0.000 C 
ATOM     16  C   UNL     1      -0.347  12.082  20.678  0.00  0.00    +0.000 C 
ATOM     17  C   UNL     1      -0.226  10.750  21.429  0.00  0.00    +0.000 C 
ATOM     18  C   UNL     1      -0.299   9.552  20.492  0.00  0.00    +0.000 C 
BRANCH  13  22
ATOM     19  C   UNL     1       3.335   6.763  18.416  0.00  0.00    +0.000 A 
ATOM     20  N   UNL     1       3.172   7.780  17.558  0.00  0.00    +0.000 NA
ATOM     21  C   UNL     1       2.319   8.751  17.927  0.00  0.00    +0.000 A 
ATOM     22  C   UNL     1       1.593   8.767  19.107  0.00  0.00    +0.000 A 
ATOM     23  C   UNL     1       1.864   7.673  19.909  0.00  0.00    +0.000 A 
ATOM     24  N   UNL     1       2.700   6.664  19.599  0.00  0.00    +0.000 NA
BRANCH  19  26
ATOM     25  C   UNL     1       3.402   4.381  17.660  0.00  0.00    +0.000 C 
ATOM     26  C   UNL     1       4.247   5.621  18.001  0.00  0.00    +0.000 C 
ATOM     27  C   UNL     1       5.193   5.291  19.166  0.00  0.00    +0.000 C 
ATOM     28  C   UNL     1       5.073   6.023  16.767  0.00  0.00    +0.000 C 
ENDBRANCH  19  26
ENDBRANCH  13  22
ENDBRANCH   1  16
BRANCH   6  29
ATOM     29  C   UNL     1      -2.366  13.254  23.397  0.00  0.00    +0.000 C 
ATOM     30  F   UNL     1      -2.821  11.987  23.245  0.00  0.00    +0.000 F 
ATOM     31  F   UNL     1      -1.040  13.143  23.668  0.00  0.00    +0.000 F 
ATOM     32  F   UNL     1      -2.959  13.734  24.511  0.00  0.00    +0.000 F 
ENDBRANCH   6  29
BRANCH   6  33
ATOM     33  O   UNL     1      -1.537  15.114  21.929  0.00  0.00    +0.000 OA
ATOM     34  H   UNL     1      -1.392  15.589  22.763  0.00  0.00    +0.000 HD
ENDBRANCH   6  33
TORSDOF 5
ENDMDL
MODEL 6
REMARK VINA RESULT:      -7.1      1.166      1.311
REMARK  Name = 
REMARK  8 active torsions:
REMARK  status: ('A' for Active; 'I' for Inactive)
REMARK    1  A    between atoms: C_1  and  C_2
REMARK    2  A    between atoms: C_2  and  C_3
REMARK    3  A    between atoms: C_2  and  C_4
REMARK    4  A    between atoms: C_2  and  C_5
REMARK    5  A    between atoms: C_8  and  N_9
REMARK    6  A    between atoms: C_12  and  C_13
REMARK    7  A    between atoms: C_18  and  O_19
REMARK    8  A    between atoms: C_18  and  C_20
REMARK                            x       y       z     vdW  Elec       q    Type
REMARK                         _______ _______ _______ _____ _____    ______ ____
ROOT
ATOM      1  C   UNL     1      -1.233  11.706  19.690  0.00  0.00    +0.000 A 
ATOM      2  N   UNL     1      -1.788  11.018  18.680  0.00  0.00    +0.000 NA
ATOM      3  N   UNL     1      -3.052  11.458  18.616  0.00  0.00    +0.000 N 
ATOM      4  C   UNL     1      -3.312  12.408  19.548  0.00  0.00    +0.000 A 
ATOM      5  C   UNL     1      -2.172  12.592  20.279  0.00  0.00    +0.000 A 
ATOM      6  C   UNL     1      -2.092  13.541  21.431  0.00  0.00    +0.000 C 
ATOM      7  C   UNL     1      -3.411  14.346  21.592  0.00  0.00    +0.000 C 
ATOM      8  C   UNL     1      -4.588  14.033  20.678  0.00  0.00    +0.000 C 
ATOM      9  O   UNL     1      -5.653  14.646  20.797  0.00  0.00    +0.000 OA
ATOM     10  N   UNL     1      -4.487  13.063  19.724  0.00  0.00    +0.000 N 
ATOM     11  H   UNL     1      -3.668  11.063  17.913  0.00  0.00    +0.000 HD
ATOM     12  H   UNL     1      -5.300  12.904  19.140  0.00  0.00    +0.000 HD
ENDROOT
BRANCH   1  16
ATOM     13  N   UNL     1       1.228   8.981  19.184  0.00  0.00    +0.000 N 
ATOM     14  C   UNL     1       1.003   9.999  18.161  0.00  0.00    +0.000 C 
ATOM     15  C   UNL     1       1.108  11.373  18.817  0.00  0.00    +0.000 C 
ATOM     16  C   UNL     1       0.213  11.498  20.058  0.00  0.00    +0.000 C 
ATOM     17  C   UNL     1       0.421  10.330  21.030  0.00  0.00    +0.000 C 
ATOM     18  C   UNL     1       0.329   8.979  20.334  0.00  0.00    +0.000 C 
BRANCH  13  22
ATOM     19  C   UNL     1       3.924   5.939  18.543  0.00  0.00    +0.000 A 
ATOM     20  N   UNL     1       3.861   6.927  17.640  0.00  0.00    +0.000 NA
ATOM     21  C   UNL     1       2.993   7.922  17.892  0.00  0.00    +0.000 A 
ATOM     22  C   UNL     1       2.157   7.990  18.996  0.00  0.00    +0.000 A 
ATOM     23  C   UNL     1       2.332   6.920  19.856  0.00  0.00    +0.000 A 
ATOM     24  N   UNL     1       3.177   5.890  19.662  0.00  0.00    +0.000 NA
BRANCH  19  26
ATOM     25  C   UNL     1       4.412   3.546  19.078  0.00  0.00    +0.000 C 
ATOM     26  C   UNL     1       4.852   4.771  18.257  0.00  0.00    +0.000 C 
ATOM     27  C   UNL     1       6.284   5.165  18.653  0.00  0.00    +0.000 C 
ATOM     28  C   UNL     1       4.812   4.415  16.761  0.00  0.00    +0.000 C 
ENDBRANCH  19  26
ENDBRANCH  13  22
ENDBRANCH   1  16
BRANCH   6  29
ATOM     29  C   UNL     1      -1.753  12.775  22.767  0.00  0.00    +0.000 C 
ATOM     30  F   UNL     1      -0.424  12.749  23.028  0.00  0.00    +0.000 F 
ATOM     31  F   UNL     1      -2.329  13.388  23.833  0.00  0.00    +0.000 F 
ATOM     32  F   UNL     1      -2.164  11.489  22.782  0.00  0.00    +0.000 F 
ENDBRANCH   6  29
BRANCH   6  33
ATOM     33  O   UNL     1      -1.092  14.554  21.123  0.00  0.00    +0.000 OA
ATOM     34  H   UNL     1      -1.507  15.269  20.615  0.00  0.00    +0.000 HD
ENDBRANCH   6  33
TORSDOF 5
ENDMDL
MODEL 7
REMARK VINA RESULT:      -7.1      2.540      3.312
REMARK  Name = 
REMARK  8 active torsions:
REMARK  status: ('A' for Active; 'I' for Inactive)
REMARK    1  A    between atoms: C_1  and  C_2
REMARK    2  A    between atoms: C_2  and  C_3
REMARK    3  A    between atoms: C_2  and  C_4
REMARK    4  A    between atoms: C_2  and  C_5
REMARK    5  A    between atoms: C_8  and  N_9
REMARK    6  A    between atoms: C_12  and  C_13
REMARK    7  A    between atoms: C_18  and  O_19
REMARK    8  A    between atoms: C_18  and  C_20
REMARK                            x       y       z     vdW  Elec       q    Type
REMARK                         _______ _______ _______ _____ _____    ______ ____
ROOT
ATOM      1  C   UNL     1      -0.035  11.789  20.775  0.00  0.00    +0.000 A 
ATOM      2  N   UNL     1       1.175  12.246  20.414  0.00  0.00    +0.000 NA
ATOM      3  N   UNL     1       1.309  13.413  21.058  0.00  0.00    +0.000 N 
ATOM      4  C   UNL     1       0.227  13.705  21.820  0.00  0.00    +0.000 A 
ATOM      5  C   UNL     1      -0.677  12.693  21.659  0.00  0.00    +0.000 A 
ATOM      6  C   UNL     1      -2.019  12.691  22.320  0.00  0.00    +0.000 C 
ATOM      7  C   UNL     1      -2.178  13.903  23.278  0.00  0.00    +0.000 C 
ATOM      8  C   UNL     1      -1.063  14.937  23.359  0.00  0.00    +0.000 C 
ATOM      9  O   UNL     1      -1.172  15.920  24.099  0.00  0.00    +0.000 OA
ATOM     10  N   UNL     1       0.067  14.800  22.607  0.00  0.00    +0.000 N 
ATOM     11  H   UNL     1       2.163  13.945  20.924  0.00  0.00    +0.000 HD
ATOM     12  H   UNL     1       0.779  15.514  22.709  0.00  0.00    +0.000 HD
ENDROOT
BRANCH   1  16
ATOM     13  N   UNL     1       1.556   8.600  19.753  0.00  0.00    +0.000 N 
ATOM     14  C   UNL     1       1.232   8.872  21.151  0.00  0.00    +0.000 C 
ATOM     15  C   UNL     1      -0.226   9.317  21.230  0.00  0.00    +0.000 C 
ATOM     16  C   UNL     1      -0.540  10.466  20.262  0.00  0.00    +0.000 C 
ATOM     17  C   UNL     1      -0.063  10.155  18.837  0.00  0.00    +0.000 C 
ATOM     18  C   UNL     1       1.388   9.696  18.803  0.00  0.00    +0.000 C 
BRANCH  13  22
ATOM     19  C   UNL     1       3.149   4.997  18.568  0.00  0.00    +0.000 A 
ATOM     20  N   UNL     1       3.334   6.060  17.773  0.00  0.00    +0.000 NA
ATOM     21  C   UNL     1       2.828   7.229  18.202  0.00  0.00    +0.000 A 
ATOM     22  C   UNL     1       2.124   7.408  19.383  0.00  0.00    +0.000 A 
ATOM     23  C   UNL     1       2.018   6.239  20.116  0.00  0.00    +0.000 A 
ATOM     24  N   UNL     1       2.495   5.036  19.744  0.00  0.00    +0.000 NA
BRANCH  19  26
ATOM     25  C   UNL     1       2.474   2.794  17.595  0.00  0.00    +0.000 C 
ATOM     26  C   UNL     1       3.657   3.649  18.083  0.00  0.00    +0.000 C 
ATOM     27  C   UNL     1       4.360   2.934  19.247  0.00  0.00    +0.000 C 
ATOM     28  C   UNL     1       4.650   3.842  16.924  0.00  0.00    +0.000 C 
ENDBRANCH  19  26
ENDBRANCH  13  22
ENDBRANCH   1  16
BRANCH   6  29
ATOM     29  C   UNL     1      -3.173  12.687  21.247  0.00  0.00    +0.000 C 
ATOM     30  F   UNL     1      -4.350  12.242  21.751  0.00  0.00    +0.000 F 
ATOM     31  F   UNL     1      -3.415  13.943  20.793  0.00  0.00    +0.000 F 
ATOM     32  F   UNL     1      -2.915  11.919  20.166  0.00  0.00    +0.000 F 
ENDBRANCH   6  29
BRANCH   6  33
ATOM     33  O   UNL     1      -2.096  11.531  23.198  0.00  0.00    +0.000 OA
ATOM     34  H   UNL     1      -2.283  10.741  22.666  0.00  0.00    +0.000 HD
ENDBRANCH   6  33
TORSDOF 5
ENDMDL
MODEL 8
REMARK VINA RESULT:      -7.1      1.207      1.718
REMARK  Name = 
REMARK  8 active torsions:
REMARK  status: ('A' for Active; 'I' for Inactive)
REMARK    1  A    between atoms: C_1  and  C_2
REMARK    2  A    between atoms: C_2  and  C_3
REMARK    3  A    between atoms: C_2  and  C_4
REMARK    4  A    between atoms: C_2  and  C_5
REMARK    5  A    between atoms: C_8  and  N_9
REMARK    6  A    between atoms: C_12  and  C_13
REMARK    7  A    between atoms: C_18  and  O_19
REMARK    8  A    between atoms: C_18  and  C_20
REMARK                            x       y       z     vdW  Elec       q    Type
REMARK                         _______ _______ _______ _____ _____    ______ ____
ROOT
ATOM      1  C   UNL     1      -1.208  11.618  19.702  0.00  0.00    +0.000 A 
ATOM      2  N   UNL     1      -1.761  10.915  18.700  0.00  0.00    +0.000 NA
ATOM      3  N   UNL     1      -3.021  11.364  18.620  0.00  0.00    +0.000 N 
ATOM      4  C   UNL     1      -3.280  12.333  19.531  0.00  0.00    +0.000 A 
ATOM      5  C   UNL     1      -2.144  12.522  20.266  0.00  0.00    +0.000 A 
ATOM      6  C   UNL     1      -2.064  13.493  21.401  0.00  0.00    +0.000 C 
ATOM      7  C   UNL     1      -3.377  14.312  21.537  0.00  0.00    +0.000 C 
ATOM      8  C   UNL     1      -4.551  13.990  20.621  0.00  0.00    +0.000 C 
ATOM      9  O   UNL     1      -5.612  14.613  20.721  0.00  0.00    +0.000 OA
ATOM     10  N   UNL     1      -4.451  13.001  19.687  0.00  0.00    +0.000 N 
ATOM     11  H   UNL     1      -3.636  10.959  17.920  0.00  0.00    +0.000 HD
ATOM     12  H   UNL     1      -5.262  12.837  19.100  0.00  0.00    +0.000 HD
ENDROOT
BRANCH   1  16
ATOM     13  N   UNL     1       1.266   8.909  19.171  0.00  0.00    +0.000 N 
ATOM     14  C   UNL     1       1.051   9.946  18.167  0.00  0.00    +0.000 C 
ATOM     15  C   UNL     1       1.145  11.307  18.851  0.00  0.00    +0.000 C 
ATOM     16  C   UNL     1       0.234  11.406  20.083  0.00  0.00    +0.000 C 
ATOM     17  C   UNL     1       0.433  10.219  21.033  0.00  0.00    +0.000 C 
ATOM     18  C   UNL     1       0.352   8.882  20.309  0.00  0.00    +0.000 C 
BRANCH  13  22
ATOM     19  C   UNL     1       3.975   5.884  18.507  0.00  0.00    +0.000 A 
ATOM     20  N   UNL     1       3.900   6.873  17.605  0.00  0.00    +0.000 NA
ATOM     21  C   UNL     1       3.027   7.862  17.865  0.00  0.00    +0.000 A 
ATOM     22  C   UNL     1       2.200   7.923  18.975  0.00  0.00    +0.000 A 
ATOM     23  C   UNL     1       2.387   6.854  19.833  0.00  0.00    +0.000 A 
ATOM     24  N   UNL     1       3.237   5.829  19.631  0.00  0.00    +0.000 NA
BRANCH  19  26
ATOM     25  C   UNL     1       4.833   4.362  16.718  0.00  0.00    +0.000 C 
ATOM     26  C   UNL     1       4.909   4.723  18.212  0.00  0.00    +0.000 C 
ATOM     27  C   UNL     1       4.477   3.511  19.053  0.00  0.00    +0.000 C 
ATOM     28  C   UNL     1       6.358   5.103  18.565  0.00  0.00    +0.000 C 
ENDBRANCH  19  26
ENDBRANCH  13  22
ENDBRANCH   1  16
BRANCH   6  29
ATOM     29  C   UNL     1      -1.740  12.751  22.753  0.00  0.00    +0.000 C 
ATOM     30  F   UNL     1      -2.142  11.457  22.745  0.00  0.00    +0.000 F 
ATOM     31  F   UNL     1      -0.401  12.722  22.979  0.00  0.00    +0.000 F 
ATOM     32  F   UNL     1      -2.312  13.314  23.839  0.00  0.00    +0.000 F 
ENDBRANCH   6  29
BRANCH   6  33
ATOM     33  O   UNL     1      -1.053  14.492  21.080  0.00  0.00    +0.000 OA
ATOM     34  H   UNL     1      -0.549  14.197  20.305  0.00  0.00    +0.000 HD
ENDBRANCH   6  33
TORSDOF 5
ENDMDL
MODEL 9
REMARK VINA RESULT:      -7.1      2.801      3.769
REMARK  Name = 
REMARK  8 active torsions:
REMARK  status: ('A' for Active; 'I' for Inactive)
REMARK    1  A    between atoms: C_1  and  C_2
REMARK    2  A    between atoms: C_2  and  C_3
REMARK    3  A    between atoms: C_2  and  C_4
REMARK    4  A    between atoms: C_2  and  C_5
REMARK    5  A    between atoms: C_8  and  N_9
REMARK    6  A    between atoms: C_12  and  C_13
REMARK    7  A    between atoms: C_18  and  O_19
REMARK    8  A    between atoms: C_18  and  C_20
REMARK                            x       y       z     vdW  Elec       q    Type
REMARK                         _______ _______ _______ _____ _____    ______ ____
ROOT
ATOM      1  C   UNL     1       0.546  11.913  20.328  0.00  0.00    +0.000 A 
ATOM      2  N   UNL     1       1.682  12.244  19.693  0.00  0.00    +0.000 NA
ATOM      3  N   UNL     1       2.042  13.422  20.221  0.00  0.00    +0.000 N 
ATOM      4  C   UNL     1       1.175  13.842  21.174  0.00  0.00    +0.000 A 
ATOM      5  C   UNL     1       0.181  12.909  21.270  0.00  0.00    +0.000 A 
ATOM      6  C   UNL     1      -0.983  13.056  22.197  0.00  0.00    +0.000 C 
ATOM      7  C   UNL     1      -0.838  14.319  23.090  0.00  0.00    +0.000 C 
ATOM      8  C   UNL     1       0.346  15.251  22.870  0.00  0.00    +0.000 C 
ATOM      9  O   UNL     1       0.475  16.271  23.555  0.00  0.00    +0.000 OA
ATOM     10  N   UNL     1       1.274  14.980  21.908  0.00  0.00    +0.000 N 
ATOM     11  H   UNL     1       2.886  13.869  19.878  0.00  0.00    +0.000 HD
ATOM     12  H   UNL     1       2.045  15.632  21.813  0.00  0.00    +0.000 HD
ENDROOT
BRANCH   1  16
ATOM     13  N   UNL     1       1.623   8.402  19.829  0.00  0.00    +0.000 N 
ATOM     14  C   UNL     1       1.357   8.930  21.163  0.00  0.00    +0.000 C 
ATOM     15  C   UNL     1      -0.016   9.598  21.152  0.00  0.00    +0.000 C 
ATOM     16  C   UNL     1      -0.159  10.619  20.015  0.00  0.00    +0.000 C 
ATOM     17  C   UNL     1       0.252  10.026  18.662  0.00  0.00    +0.000 C 
ATOM     18  C   UNL     1       1.616   9.352  18.720  0.00  0.00    +0.000 C 
BRANCH  13  22
ATOM     19  C   UNL     1       2.633   4.457  19.241  0.00  0.00    +0.000 A 
ATOM     20  N   UNL     1       2.883   5.326  18.252  0.00  0.00    +0.000 NA
ATOM     21  C   UNL     1       2.570   6.612  18.485  0.00  0.00    +0.000 A 
ATOM     22  C   UNL     1       2.000   7.094  19.653  0.00  0.00    +0.000 A 
ATOM     23  C   UNL     1       1.808   6.101  20.596  0.00  0.00    +0.000 A 
ATOM     24  N   UNL     1       2.094   4.795  20.426  0.00  0.00    +0.000 NA
BRANCH  19  26
ATOM     25  C   UNL     1       1.613   2.180  19.075  0.00  0.00    +0.000 C 
ATOM     26  C   UNL     1       2.920   2.987  18.986  0.00  0.00    +0.000 C 
ATOM     27  C   UNL     1       3.907   2.480  20.049  0.00  0.00    +0.000 C 
ATOM     28  C   UNL     1       3.532   2.800  17.587  0.00  0.00    +0.000 C 
ENDBRANCH  19  26
ENDBRANCH  13  22
ENDBRANCH   1  16
BRANCH   6  29
ATOM     29  C   UNL     1      -2.338  13.108  21.392  0.00  0.00    +0.000 C 
ATOM     30  F   UNL     1      -2.164  13.496  20.106  0.00  0.00    +0.000 F 
ATOM     31  F   UNL     1      -2.912  11.879  21.336  0.00  0.00    +0.000 F 
ATOM     32  F   UNL     1      -3.256  13.949  21.916  0.00  0.00    +0.000 F 
ENDBRANCH   6  29
BRANCH   6  33
ATOM     33  O   UNL     1      -0.960  11.947  23.141  0.00  0.00    +0.000 OA
ATOM     34  H   UNL     1      -0.061  11.847  23.493  0.00  0.00    +0.000 HD
ENDBRANCH   6  33
TORSDOF 5
ENDMDL
