MODEL 1
REMARK VINA RESULT:      -7.9      0.000      0.000
REMARK  Name = 
REMARK  3 active torsions:
REMARK  status: ('A' for Active; 'I' for Inactive)
REMARK    1  A    between atoms: C_5  and  C_6
REMARK    2  A    between atoms: C_8  and  C_9
REMARK    3  A    between atoms: N_16  and  C_17
REMARK                            x       y       z     vdW  Elec       q    Type
REMARK                         _______ _______ _______ _____ _____    ______ ____
ROOT
ATOM      1  C   UNL     1       1.157   8.026  20.739  0.00  0.00    +0.000 A 
ATOM      2  N   UNL     1       2.337   8.120  20.028  0.00  0.00    +0.000 NA
ATOM      3  C   UNL     1       2.618   6.867  19.690  0.00  0.00    +0.000 A 
ATOM      4  N   UNL     1       1.710   6.034  20.341  0.00  0.00    +0.000 N 
ATOM      5  N   UNL     1       0.712   6.771  20.871  0.00  0.00    +0.000 NA
ENDROOT
BRANCH   1  10
ATOM      6 BR   UNL     1      -1.988  12.793  23.045  0.00  0.00    +0.000 Br
ATOM      7  C   UNL     1      -1.008  11.343  22.333  0.00  0.00    +0.000 A 
ATOM      8  C   UNL     1      -0.573  11.377  21.008  0.00  0.00    +0.000 A 
ATOM      9  C   UNL     1       0.146  10.295  20.478  0.00  0.00    +0.000 A 
ATOM     10  C   UNL     1       0.426   9.174  21.271  0.00  0.00    +0.000 A 
ATOM     11  C   UNL     1      -0.014   9.166  22.606  0.00  0.00    +0.000 A 
ATOM     12  C   UNL     1      -0.729  10.242  23.137  0.00  0.00    +0.000 A 
ENDBRANCH   1  10
BRANCH   3  13
ATOM     13  C   UNL     1       3.638   6.453  18.705  0.00  0.00    +0.000 A 
ATOM     14  C   UNL     1       4.522   5.409  19.000  0.00  0.00    +0.000 A 
ATOM     15  C   UNL     1       5.468   4.983  18.054  0.00  0.00    +0.000 A 
ATOM     16  C   UNL     1       5.530   5.595  16.803  0.00  0.00    +0.000 A 
ATOM     17 BR   UNL     1       6.779   5.004  15.514  0.00  0.00    +0.000 Br
ATOM     18  C   UNL     1       4.681   6.651  16.501  0.00  0.00    +0.000 A 
ATOM     19  C   UNL     1       3.768   7.097  17.461  0.00  0.00    +0.000 A 
ENDBRANCH   3  13
BRANCH   4  20
ATOM     20  C   UNL     1       1.678   4.619  20.451  0.00  0.00    +0.000 A 
ATOM     21  C   UNL     1       2.229   3.962  21.560  0.00  0.00    +0.000 A 
ATOM     22  C   UNL     1       2.323   2.570  21.564  0.00  0.00    +0.000 A 
ATOM     23  C   UNL     1       1.849   1.835  20.479  0.00  0.00    +0.000 A 
ATOM     24  C   UNL     1       1.241   2.484  19.405  0.00  0.00    +0.000 A 
ATOM     25  C   UNL     1       1.135   3.873  19.396  0.00  0.00    +0.000 A 
ENDBRANCH   4  20
TORSDOF 3
ENDMDL
MODEL 2
REMARK VINA RESULT:      -7.9      0.310      1.380
REMARK  Name = 
REMARK  3 active torsions:
REMARK  status: ('A' for Active; 'I' for Inactive)
REMARK    1  A    between atoms: C_5  and  C_6
REMARK    2  A    between atoms: C_8  and  C_9
REMARK    3  A    between atoms: N_16  and  C_17
REMARK                            x       y       z     vdW  Elec       q    Type
REMARK                         _______ _______ _______ _____ _____    ______ ____
ROOT
ATOM      1  C   UNL     1       1.256   8.073  20.739  0.00  0.00    +0.000 A 
ATOM      2  N   UNL     1       2.374   8.119  19.930  0.00  0.00    +0.000 NA
ATOM      3  C   UNL     1       2.598   6.852  19.604  0.00  0.00    +0.000 A 
ATOM      4  N   UNL     1       1.728   6.058  20.349  0.00  0.00    +0.000 N 
ATOM      5  N   UNL     1       0.795   6.833  20.940  0.00  0.00    +0.000 NA
ENDROOT
BRANCH   1  10
ATOM      6 BR   UNL     1      -1.435  13.108  23.049  0.00  0.00    +0.000 Br
ATOM      7  C   UNL     1      -0.626  11.553  22.342  0.00  0.00    +0.000 A 
ATOM      8  C   UNL     1      -0.627  10.369  23.079  0.00  0.00    +0.000 A 
ATOM      9  C   UNL     1      -0.017   9.218  22.556  0.00  0.00    +0.000 A 
ATOM     10  C   UNL     1       0.598   9.251  21.299  0.00  0.00    +0.000 A 
ATOM     11  C   UNL     1       0.578  10.453  20.570  0.00  0.00    +0.000 A 
ATOM     12  C   UNL     1      -0.029  11.601  21.086  0.00  0.00    +0.000 A 
ENDBRANCH   1  10
BRANCH   3  13
ATOM     13  C   UNL     1       3.522   6.389  18.549  0.00  0.00    +0.000 A 
ATOM     14  C   UNL     1       3.789   7.197  17.438  0.00  0.00    +0.000 A 
ATOM     15  C   UNL     1       4.696   6.781  16.451  0.00  0.00    +0.000 A 
ATOM     16  C   UNL     1       5.347   5.554  16.572  0.00  0.00    +0.000 A 
ATOM     17 BR   UNL     1       6.593   5.003  15.263  0.00  0.00    +0.000 Br
ATOM     18  C   UNL     1       5.074   4.724  17.652  0.00  0.00    +0.000 A 
ATOM     19  C   UNL     1       4.141   5.127  18.611  0.00  0.00    +0.000 A 
ENDBRANCH   3  13
BRANCH   4  20
ATOM     20  C   UNL     1       1.673   4.647  20.499  0.00  0.00    +0.000 A 
ATOM     21  C   UNL     1       2.296   4.004  21.577  0.00  0.00    +0.000 A 
ATOM     22  C   UNL     1       2.359   2.611  21.611  0.00  0.00    +0.000 A 
ATOM     23  C   UNL     1       1.784   1.861  20.586  0.00  0.00    +0.000 A 
ATOM     24  C   UNL     1       1.106   2.498  19.547  0.00  0.00    +0.000 A 
ATOM     25  C   UNL     1       1.031   3.889  19.510  0.00  0.00    +0.000 A 
ENDBRANCH   4  20
TORSDOF 3
ENDMDL
MODEL 3
REMARK VINA RESULT:      -7.7      0.656      1.420
REMARK  Name = 
REMARK  3 active torsions:
REMARK  status: ('A' for Active; 'I' for Inactive)
REMARK    1  A    between atoms: C_5  and  C_6
REMARK    2  A    between atoms: C_8  and  C_9
REMARK    3  A    between atoms: N_16  and  C_17
REMARK                            x       y       z     vdW  Elec       q    Type
REMARK                         _______ _______ _______ _____ _____    ______ ____
ROOT
ATOM      1  C   UNL     1       1.313   8.132  20.556  0.00  0.00    +0.000 A 
ATOM      2  N   UNL     1       2.344   8.160  19.637  0.00  0.00    +0.000 NA
ATOM      3  C   UNL     1       2.565   6.883  19.350  0.00  0.00    +0.000 A 
ATOM      4  N   UNL     1       1.793   6.110  20.216  0.00  0.00    +0.000 N 
ATOM      5  N   UNL     1       0.904   6.894  20.860  0.00  0.00    +0.000 NA
ENDROOT
BRANCH   1  10
ATOM      6 BR   UNL     1      -1.413  13.087  22.995  0.00  0.00    +0.000 Br
ATOM      7  C   UNL     1      -0.559  11.576  22.245  0.00  0.00    +0.000 A 
ATOM      8  C   UNL     1       0.035  11.664  20.986  0.00  0.00    +0.000 A 
ATOM      9  C   UNL     1       0.659  10.538  20.426  0.00  0.00    +0.000 A 
ATOM     10  C   UNL     1       0.686   9.323  21.122  0.00  0.00    +0.000 A 
ATOM     11  C   UNL     1       0.089   9.262  22.394  0.00  0.00    +0.000 A 
ATOM     12  C   UNL     1      -0.533  10.380  22.955  0.00  0.00    +0.000 A 
ENDBRANCH   1  10
BRANCH   3  13
ATOM     13  C   UNL     1       3.391   6.386  18.231  0.00  0.00    +0.000 A 
ATOM     14  C   UNL     1       4.075   7.284  17.404  0.00  0.00    +0.000 A 
ATOM     15  C   UNL     1       4.893   6.819  16.364  0.00  0.00    +0.000 A 
ATOM     16  C   UNL     1       5.037   5.449  16.146  0.00  0.00    +0.000 A 
ATOM     17 BR   UNL     1       6.163   4.816  14.767  0.00  0.00    +0.000 Br
ATOM     18  C   UNL     1       4.344   4.542  16.937  0.00  0.00    +0.000 A 
ATOM     19  C   UNL     1       3.501   5.013  17.946  0.00  0.00    +0.000 A 
ENDBRANCH   3  13
BRANCH   4  20
ATOM     20  C   UNL     1       1.787   4.707  20.436  0.00  0.00    +0.000 A 
ATOM     21  C   UNL     1       0.990   3.852  19.662  0.00  0.00    +0.000 A 
ATOM     22  C   UNL     1       0.886   2.504  20.005  0.00  0.00    +0.000 A 
ATOM     23  C   UNL     1       1.591   2.005  21.099  0.00  0.00    +0.000 A 
ATOM     24  C   UNL     1       2.436   2.841  21.829  0.00  0.00    +0.000 A 
ATOM     25  C   UNL     1       2.553   4.187  21.488  0.00  0.00    +0.000 A 
ENDBRANCH   4  20
TORSDOF 3
ENDMDL
MODEL 4
REMARK VINA RESULT:      -7.5      0.350      1.406
REMARK  Name = 
REMARK  3 active torsions:
REMARK  status: ('A' for Active; 'I' for Inactive)
REMARK    1  A    between atoms: C_5  and  C_6
REMARK    2  A    between atoms: C_8  and  C_9
REMARK    3  A    between atoms: N_16  and  C_17
REMARK                            x       y       z     vdW  Elec       q    Type
REMARK                         _______ _______ _______ _____ _____    ______ ____
ROOT
ATOM      1  C   UNL     1       1.375   8.068  20.612  0.00  0.00    +0.000 A 
ATOM      2  N   UNL     1       2.515   8.143  19.836  0.00  0.00    +0.000 NA
ATOM      3  C   UNL     1       2.756   6.887  19.482  0.00  0.00    +0.000 A 
ATOM      4  N   UNL     1       1.870   6.068  20.181  0.00  0.00    +0.000 N 
ATOM      5  N   UNL     1       0.916   6.820  20.766  0.00  0.00    +0.000 NA
ENDROOT
BRANCH   1  10
ATOM      6 BR   UNL     1      -1.413  13.024  22.978  0.00  0.00    +0.000 Br
ATOM      7  C   UNL     1      -0.574  11.493  22.254  0.00  0.00    +0.000 A 
ATOM      8  C   UNL     1      -0.550  10.301  22.979  0.00  0.00    +0.000 A 
ATOM      9  C   UNL     1       0.082   9.168  22.443  0.00  0.00    +0.000 A 
ATOM     10  C   UNL     1       0.695   9.227  21.185  0.00  0.00    +0.000 A 
ATOM     11  C   UNL     1       0.648  10.436  20.469  0.00  0.00    +0.000 A 
ATOM     12  C   UNL     1       0.020  11.566  20.998  0.00  0.00    +0.000 A 
ENDBRANCH   1  10
BRANCH   3  13
ATOM     13  C   UNL     1       3.712   6.457  18.441  0.00  0.00    +0.000 A 
ATOM     14  C   UNL     1       4.505   5.320  18.635  0.00  0.00    +0.000 A 
ATOM     15  C   UNL     1       5.387   4.883  17.635  0.00  0.00    +0.000 A 
ATOM     16  C   UNL     1       5.478   5.578  16.430  0.00  0.00    +0.000 A 
ATOM     17 BR   UNL     1       6.640   4.975  15.068  0.00  0.00    +0.000 Br
ATOM     18  C   UNL     1       4.721   6.725  16.229  0.00  0.00    +0.000 A 
ATOM     19  C   UNL     1       3.873   7.177  17.243  0.00  0.00    +0.000 A 
ENDBRANCH   3  13
BRANCH   4  20
ATOM     20  C   UNL     1       1.820   4.653  20.290  0.00  0.00    +0.000 A 
ATOM     21  C   UNL     1       1.297   3.861  19.258  0.00  0.00    +0.000 A 
ATOM     22  C   UNL     1       1.116   2.493  19.460  0.00  0.00    +0.000 A 
ATOM     23  C   UNL     1       1.477   1.911  20.674  0.00  0.00    +0.000 A 
ATOM     24  C   UNL     1       2.059   2.687  21.677  0.00  0.00    +0.000 A 
ATOM     25  C   UNL     1       2.252   4.053  21.481  0.00  0.00    +0.000 A 
ENDBRANCH   4  20
TORSDOF 3
ENDMDL
MODEL 5
REMARK VINA RESULT:      -7.3      0.924      1.357
REMARK  Name = 
REMARK  3 active torsions:
REMARK  status: ('A' for Active; 'I' for Inactive)
REMARK    1  A    between atoms: C_5  and  C_6
REMARK    2  A    between atoms: C_8  and  C_9
REMARK    3  A    between atoms: N_16  and  C_17
REMARK                            x       y       z     vdW  Elec       q    Type
REMARK                         _______ _______ _______ _____ _____    ______ ____
ROOT
ATOM      1  C   UNL     1       1.348   8.292  20.208  0.00  0.00    +0.000 A 
ATOM      2  N   UNL     1       2.422   8.191  19.345  0.00  0.00    +0.000 NA
ATOM      3  C   UNL     1       2.590   6.885  19.180  0.00  0.00    +0.000 A 
ATOM      4  N   UNL     1       1.739   6.228  20.066  0.00  0.00    +0.000 N 
ATOM      5  N   UNL     1       0.862   7.107  20.594  0.00  0.00    +0.000 NA
ENDROOT
BRANCH   1  10
ATOM      6 BR   UNL     1      -1.059  13.682  21.966  0.00  0.00    +0.000 Br
ATOM      7  C   UNL     1      -0.338  12.019  21.429  0.00  0.00    +0.000 A 
ATOM      8  C   UNL     1      -0.420  10.916  22.277  0.00  0.00    +0.000 A 
ATOM      9  C   UNL     1       0.125   9.684  21.881  0.00  0.00    +0.000 A 
ATOM     10  C   UNL     1       0.757   9.557  20.638  0.00  0.00    +0.000 A 
ATOM     11  C   UNL     1       0.819  10.680  19.795  0.00  0.00    +0.000 A 
ATOM     12  C   UNL     1       0.277  11.908  20.186  0.00  0.00    +0.000 A 
ENDBRANCH   1  10
BRANCH   3  13
ATOM     13  C   UNL     1       3.442   6.254  18.151  0.00  0.00    +0.000 A 
ATOM     14  C   UNL     1       3.312   4.890  17.865  0.00  0.00    +0.000 A 
ATOM     15  C   UNL     1       4.089   4.291  16.862  0.00  0.00    +0.000 A 
ATOM     16  C   UNL     1       5.000   5.055  16.134  0.00  0.00    +0.000 A 
ATOM     17 BR   UNL     1       6.027   4.261  14.761  0.00  0.00    +0.000 Br
ATOM     18  C   UNL     1       5.166   6.403  16.422  0.00  0.00    +0.000 A 
ATOM     19  C   UNL     1       4.417   6.985  17.448  0.00  0.00    +0.000 A 
ENDBRANCH   3  13
BRANCH   4  20
ATOM     20  C   UNL     1       1.650   4.851  20.405  0.00  0.00    +0.000 A 
ATOM     21  C   UNL     1       2.413   4.307  21.447  0.00  0.00    +0.000 A 
ATOM     22  C   UNL     1       2.422   2.927  21.651  0.00  0.00    +0.000 A 
ATOM     23  C   UNL     1       1.657   2.096  20.835  0.00  0.00    +0.000 A 
ATOM     24  C   UNL     1       0.846   2.642  19.840  0.00  0.00    +0.000 A 
ATOM     25  C   UNL     1       0.824   4.021  19.635  0.00  0.00    +0.000 A 
ENDBRANCH   4  20
TORSDOF 3
ENDMDL
MODEL 6
REMARK VINA RESULT:      -6.9      1.440      1.792
REMARK  Name = 
REMARK  3 active torsions:
REMARK  status: ('A' for Active; 'I' for Inactive)
REMARK    1  A    between atoms: C_5  and  C_6
REMARK    2  A    between atoms: C_8  and  C_9
REMARK    3  A    between atoms: N_16  and  C_17
REMARK                            x       y       z     vdW  Elec       q    Type
REMARK                         _______ _______ _______ _____ _____    ______ ____
ROOT
ATOM      1  C   UNL     1       2.130   7.399  19.593  0.00  0.00    +0.000 A 
ATOM      2  N   UNL     1       3.131   7.528  18.650  0.00  0.00    +0.000 NA
ATOM      3  C   UNL     1       3.434   6.280  18.316  0.00  0.00    +0.000 A 
ATOM      4  N   UNL     1       2.742   5.428  19.176  0.00  0.00    +0.000 N 
ATOM      5  N   UNL     1       1.818   6.127  19.867  0.00  0.00    +0.000 NA
ENDROOT
BRANCH   1  10
ATOM      6 BR   UNL     1      -0.847  12.072  22.281  0.00  0.00    +0.000 Br
ATOM      7  C   UNL     1       0.081  10.650  21.449  0.00  0.00    +0.000 A 
ATOM      8  C   UNL     1       0.319  10.682  20.076  0.00  0.00    +0.000 A 
ATOM      9  C   UNL     1       0.999   9.621  19.458  0.00  0.00    +0.000 A 
ATOM     10  C   UNL     1       1.437   8.524  20.212  0.00  0.00    +0.000 A 
ATOM     11  C   UNL     1       1.193   8.520  21.597  0.00  0.00    +0.000 A 
ATOM     12  C   UNL     1       0.517   9.575  22.216  0.00  0.00    +0.000 A 
ENDBRANCH   1  10
BRANCH   3  13
ATOM     13  C   UNL     1       4.262   5.877  17.161  0.00  0.00    +0.000 A 
ATOM     14  C   UNL     1       4.458   4.522  16.870  0.00  0.00    +0.000 A 
ATOM     15  C   UNL     1       5.211   4.131  15.752  0.00  0.00    +0.000 A 
ATOM     16  C   UNL     1       5.767   5.095  14.913  0.00  0.00    +0.000 A 
ATOM     17 BR   UNL     1       6.754   4.575  13.388  0.00  0.00    +0.000 Br
ATOM     18  C   UNL     1       5.608   6.444  15.199  0.00  0.00    +0.000 A 
ATOM     19  C   UNL     1       4.891   6.827  16.336  0.00  0.00    +0.000 A 
ENDBRANCH   3  13
BRANCH   4  20
ATOM     20  C   UNL     1       2.842   4.022  19.351  0.00  0.00    +0.000 A 
ATOM     21  C   UNL     1       3.984   3.438  19.916  0.00  0.00    +0.000 A 
ATOM     22  C   UNL     1       4.117   2.049  19.929  0.00  0.00    +0.000 A 
ATOM     23  C   UNL     1       3.106   1.246  19.404  0.00  0.00    +0.000 A 
ATOM     24  C   UNL     1       1.940   1.824  18.903  0.00  0.00    +0.000 A 
ATOM     25  C   UNL     1       1.795   3.210  18.893  0.00  0.00    +0.000 A 
ENDBRANCH   4  20
TORSDOF 3
ENDMDL
MODEL 7
REMARK VINA RESULT:      -6.9      1.409      2.020
REMARK  Name = 
REMARK  3 active torsions:
REMARK  status: ('A' for Active; 'I' for Inactive)
REMARK    1  A    between atoms: C_5  and  C_6
REMARK    2  A    between atoms: C_8  and  C_9
REMARK    3  A    between atoms: N_16  and  C_17
REMARK                            x       y       z     vdW  Elec       q    Type
REMARK                         _______ _______ _______ _____ _____    ______ ____
ROOT
ATOM      1  C   UNL     1       1.830   7.977  19.564  0.00  0.00    +0.000 A 
ATOM      2  N   UNL     1       2.738   7.906  18.526  0.00  0.00    +0.000 NA
ATOM      3  C   UNL     1       3.153   6.645  18.538  0.00  0.00    +0.000 A 
ATOM      4  N   UNL     1       2.627   6.031  19.674  0.00  0.00    +0.000 N 
ATOM      5  N   UNL     1       1.683   6.823  20.225  0.00  0.00    +0.000 NA
ENDROOT
BRANCH   1  10
ATOM      6 BR   UNL     1      -1.338  13.083  20.917  0.00  0.00    +0.000 Br
ATOM      7  C   UNL     1      -0.382  11.505  20.507  0.00  0.00    +0.000 A 
ATOM      8  C   UNL     1      -0.232  10.508  21.471  0.00  0.00    +0.000 A 
ATOM      9  C   UNL     1       0.487   9.342  21.167  0.00  0.00    +0.000 A 
ATOM     10  C   UNL     1       1.062   9.173  19.901  0.00  0.00    +0.000 A 
ATOM     11  C   UNL     1       0.889  10.187  18.943  0.00  0.00    +0.000 A 
ATOM     12  C   UNL     1       0.173  11.349  19.241  0.00  0.00    +0.000 A 
ENDBRANCH   1  10
BRANCH   3  13
ATOM     13  C   UNL     1       3.934   5.989  17.470  0.00  0.00    +0.000 A 
ATOM     14  C   UNL     1       3.676   4.658  17.120  0.00  0.00    +0.000 A 
ATOM     15  C   UNL     1       4.387   4.040  16.080  0.00  0.00    +0.000 A 
ATOM     16  C   UNL     1       5.358   4.752  15.377  0.00  0.00    +0.000 A 
ATOM     17 BR   UNL     1       6.294   3.935  13.954  0.00  0.00    +0.000 Br
ATOM     18  C   UNL     1       5.649   6.064  15.727  0.00  0.00    +0.000 A 
ATOM     19  C   UNL     1       4.966   6.661  16.789  0.00  0.00    +0.000 A 
ENDBRANCH   3  13
BRANCH   4  20
ATOM     20  C   UNL     1       2.896   4.755  20.236  0.00  0.00    +0.000 A 
ATOM     21  C   UNL     1       4.062   4.048  19.912  0.00  0.00    +0.000 A 
ATOM     22  C   UNL     1       4.220   2.735  20.356  0.00  0.00    +0.000 A 
ATOM     23  C   UNL     1       3.233   2.137  21.138  0.00  0.00    +0.000 A 
ATOM     24  C   UNL     1       2.104   2.863  21.516  0.00  0.00    +0.000 A 
ATOM     25  C   UNL     1       1.941   4.178  21.085  0.00  0.00    +0.000 A 
ENDBRANCH   4  20
TORSDOF 3
ENDMDL
MODEL 8
REMARK VINA RESULT:      -6.8      3.197      9.741
REMARK  Name = 
REMARK  3 active torsions:
REMARK  status: ('A' for Active; 'I' for Inactive)
REMARK    1  A    between atoms: C_5  and  C_6
REMARK    2  A    between atoms: C_8  and  C_9
REMARK    3  A    between atoms: N_16  and  C_17
REMARK                            x       y       z     vdW  Elec       q    Type
REMARK                         _______ _______ _______ _____ _____    ______ ____
ROOT
ATOM      1  C   UNL     1       0.690  10.383  19.879  0.00  0.00    +0.000 A 
ATOM      2  N   UNL     1      -0.325  10.359  20.816  0.00  0.00    +0.000 NA
ATOM      3  C   UNL     1      -0.725  11.622  20.900  0.00  0.00    +0.000 A 
ATOM      4  N   UNL     1       0.158  12.401  20.154  0.00  0.00    +0.000 N 
ATOM      5  N   UNL     1       0.945  11.606  19.400  0.00  0.00    +0.000 NA
ENDROOT
BRANCH   1  10
ATOM      6 BR   UNL     1       3.649   5.397  17.800  0.00  0.00    +0.000 Br
ATOM      7  C   UNL     1       2.754   6.929  18.453  0.00  0.00    +0.000 A 
ATOM      8  C   UNL     1       2.275   6.952  19.763  0.00  0.00    +0.000 A 
ATOM      9  C   UNL     1       1.602   8.086  20.242  0.00  0.00    +0.000 A 
ATOM     10  C   UNL     1       1.403   9.197  19.411  0.00  0.00    +0.000 A 
ATOM     11  C   UNL     1       1.903   9.153  18.098  0.00  0.00    +0.000 A 
ATOM     12  C   UNL     1       2.575   8.026  17.617  0.00  0.00    +0.000 A 
ENDBRANCH   1  10
BRANCH   3  13
ATOM     13  C   UNL     1      -1.956  12.088  21.570  0.00  0.00    +0.000 A 
ATOM     14  C   UNL     1      -3.001  12.643  20.822  0.00  0.00    +0.000 A 
ATOM     15  C   UNL     1      -4.189  13.052  21.445  0.00  0.00    +0.000 A 
ATOM     16  C   UNL     1      -4.343  12.904  22.823  0.00  0.00    +0.000 A 
ATOM     17 BR   UNL     1      -5.953  13.424  23.664  0.00  0.00    +0.000 Br
ATOM     18  C   UNL     1      -3.308  12.383  23.588  0.00  0.00    +0.000 A 
ATOM     19  C   UNL     1      -2.112  12.014  22.966  0.00  0.00    +0.000 A 
ENDBRANCH   3  13
BRANCH   4  20
ATOM     20  C   UNL     1       0.275  13.813  20.053  0.00  0.00    +0.000 A 
ATOM     21  C   UNL     1       0.787  14.578  21.109  0.00  0.00    +0.000 A 
ATOM     22  C   UNL     1       0.743  15.971  21.040  0.00  0.00    +0.000 A 
ATOM     23  C   UNL     1       0.213  16.598  19.913  0.00  0.00    +0.000 A 
ATOM     24  C   UNL     1      -0.235  15.837  18.834  0.00  0.00    +0.000 A 
ATOM     25  C   UNL     1      -0.187  14.446  18.890  0.00  0.00    +0.000 A 
ENDBRANCH   4  20
TORSDOF 3
ENDMDL
MODEL 9
REMARK VINA RESULT:      -6.8      1.588      2.312
REMARK  Name = 
REMARK  3 active torsions:
REMARK  status: ('A' for Active; 'I' for Inactive)
REMARK    1  A    between atoms: C_5  and  C_6
REMARK    2  A    between atoms: C_8  and  C_9
REMARK    3  A    between atoms: N_16  and  C_17
REMARK                            x       y       z     vdW  Elec       q    Type
REMARK                         _______ _______ _______ _____ _____    ______ ____
ROOT
ATOM      1  C   UNL     1       2.307   7.294  19.394  0.00  0.00    +0.000 A 
ATOM      2  N   UNL     1       3.372   7.463  18.531  0.00  0.00    +0.000 NA
ATOM      3  C   UNL     1       3.726   6.227  18.199  0.00  0.00    +0.000 A 
ATOM      4  N   UNL     1       2.992   5.345  18.990  0.00  0.00    +0.000 N 
ATOM      5  N   UNL     1       2.003   6.011  19.622  0.00  0.00    +0.000 NA
ENDROOT
BRANCH   1  10
ATOM      6 BR   UNL     1      -0.853  12.004  21.795  0.00  0.00    +0.000 Br
ATOM      7  C   UNL     1       0.102  10.546  21.064  0.00  0.00    +0.000 A 
ATOM      8  C   UNL     1       0.461   9.469  21.875  0.00  0.00    +0.000 A 
ATOM      9  C   UNL     1       1.179   8.393  21.332  0.00  0.00    +0.000 A 
ATOM     10  C   UNL     1       1.544   8.393  19.980  0.00  0.00    +0.000 A 
ATOM     11  C   UNL     1       1.162   9.485  19.180  0.00  0.00    +0.000 A 
ATOM     12  C   UNL     1       0.447  10.558  19.716  0.00  0.00    +0.000 A 
ENDBRANCH   1  10
BRANCH   3  13
ATOM     13  C   UNL     1       4.646   5.864  17.102  0.00  0.00    +0.000 A 
ATOM     14  C   UNL     1       4.391   4.739  16.309  0.00  0.00    +0.000 A 
ATOM     15  C   UNL     1       5.239   4.410  15.240  0.00  0.00    +0.000 A 
ATOM     16  C   UNL     1       6.345   5.207  14.954  0.00  0.00    +0.000 A 
ATOM     17 BR   UNL     1       7.472   4.787  13.496  0.00  0.00    +0.000 Br
ATOM     18  C   UNL     1       6.632   6.311  15.746  0.00  0.00    +0.000 A 
ATOM     19  C   UNL     1       5.807   6.612  16.833  0.00  0.00    +0.000 A 
ENDBRANCH   3  13
BRANCH   4  20
ATOM     20  C   UNL     1       3.109   3.938  19.148  0.00  0.00    +0.000 A 
ATOM     21  C   UNL     1       4.247   3.364  19.730  0.00  0.00    +0.000 A 
ATOM     22  C   UNL     1       4.401   1.977  19.727  0.00  0.00    +0.000 A 
ATOM     23  C   UNL     1       3.415   1.166  19.168  0.00  0.00    +0.000 A 
ATOM     24  C   UNL     1       2.252   1.733  18.648  0.00  0.00    +0.000 A 
ATOM     25  C   UNL     1       2.085   3.117  18.655  0.00  0.00    +0.000 A 
ENDBRANCH   4  20
TORSDOF 3
ENDMDL
