MODEL 1
REMARK VINA RESULT:      -9.0      0.000      0.000
REMARK  Name = 
REMARK  8 active torsions:
REMARK  status: ('A' for Active; 'I' for Inactive)
REMARK    1  A    between atoms: N_4  and  C_5
REMARK    2  A    between atoms: C_9  and  C_10
REMARK    3  A    between atoms: N_21  and  C_22
REMARK    4  A    between atoms: C_26  and  O_27
REMARK    5  A    between atoms: O_27  and  C_28
REMARK    6  A    between atoms: C_28  and  C_29
REMARK    7  A    between atoms: C_29  and  C_30
REMARK    8  A    between atoms: C_30  and  N_31
REMARK                            x       y       z     vdW  Elec       q    Type
REMARK                         _______ _______ _______ _____ _____    ______ ____
ROOT
ATOM      1  O   UNL     1       1.375   9.606  22.498  0.00  0.00    +0.000 OA
ATOM      2  C   UNL     1       0.711  10.058  21.594  0.00  0.00    +0.000 C 
ATOM      3  C   UNL     1      -0.360  11.165  21.750  0.00  0.00    +0.000 C 
ATOM      4  N   UNL     1      -0.447  11.829  22.864  0.00  0.00    +0.000 NA
ATOM      5  C   UNL     1      -1.044  11.235  20.443  0.00  0.00    +0.000 A 
ATOM      6  C   UNL     1      -2.184  11.897  20.009  0.00  0.00    +0.000 A 
ATOM      7  C   UNL     1      -2.541  11.816  18.663  0.00  0.00    +0.000 A 
ATOM      8  C   UNL     1      -1.815  11.007  17.783  0.00  0.00    +0.000 A 
ATOM      9  C   UNL     1      -0.711  10.281  18.236  0.00  0.00    +0.000 A 
ATOM     10  C   UNL     1      -0.321  10.421  19.563  0.00  0.00    +0.000 A 
ATOM     11  N   UNL     1       0.721   9.765  20.239  0.00  0.00    +0.000 N 
ENDROOT
BRANCH   4  12
ATOM     12  C   UNL     1      -1.358  12.867  23.101  0.00  0.00    +0.000 A 
ATOM     13  C   UNL     1      -1.003  14.211  23.109  0.00  0.00    +0.000 A 
ATOM     14  C   UNL     1      -1.979  15.207  23.122  0.00  0.00    +0.000 A 
ATOM     15  C   UNL     1      -3.318  14.864  23.296  0.00  0.00    +0.000 A 
ATOM     16  C   UNL     1      -3.681  13.522  23.494  0.00  0.00    +0.000 A 
ATOM     17  C   UNL     1      -2.689  12.532  23.383  0.00  0.00    +0.000 A 
BRANCH  16  18
ATOM     18  C   UNL     1      -5.102  13.153  23.828  0.00  0.00    +0.000 C 
ATOM     19  F   UNL     1      -5.754  12.535  22.799  0.00  0.00    +0.000 F 
ATOM     20  F   UNL     1      -5.194  12.302  24.885  0.00  0.00    +0.000 F 
ATOM     21  F   UNL     1      -5.867  14.236  24.147  0.00  0.00    +0.000 F 
ENDBRANCH  16  18
ENDBRANCH   4  12
BRANCH  11  22
ATOM     22  C   UNL     1       1.512   8.784  19.626  0.00  0.00    +0.000 A 
ATOM     23  C   UNL     1       2.055   9.004  18.358  0.00  0.00    +0.000 A 
ATOM     24  C   UNL     1       2.851   8.026  17.763  0.00  0.00    +0.000 A 
ATOM     25  C   UNL     1       3.061   6.809  18.413  0.00  0.00    +0.000 A 
ATOM     26  C   UNL     1       2.494   6.565  19.666  0.00  0.00    +0.000 A 
ATOM     27  C   UNL     1       1.740   7.564  20.283  0.00  0.00    +0.000 A 
BRANCH  26  28
ATOM     28  O   UNL     1       2.743   5.317  20.169  0.00  0.00    +0.000 OA
BRANCH  28  29
ATOM     29  C   UNL     1       1.704   4.709  20.934  0.00  0.00    +0.000 C 
BRANCH  29  30
ATOM     30  C   UNL     1       1.809   3.194  20.767  0.00  0.00    +0.000 C 
BRANCH  30  31
ATOM     31  C   UNL     1       3.203   2.816  20.261  0.00  0.00    +0.000 C 
BRANCH  31  32
ATOM     32  N   UNL     1       3.212   1.996  19.039  0.00  0.00    +0.000 NA
ATOM     33  C   UNL     1       4.321   2.407  18.155  0.00  0.00    +0.000 C 
ATOM     34  C   UNL     1       3.774   3.598  17.388  0.00  0.00    +0.000 C 
ATOM     35  C   UNL     1       2.323   3.221  17.151  0.00  0.00    +0.000 C 
ATOM     36  C   UNL     1       2.010   2.156  18.201  0.00  0.00    +0.000 C 
ENDBRANCH  31  32
ENDBRANCH  30  31
ENDBRANCH  29  30
ENDBRANCH  28  29
ENDBRANCH  26  28
ENDBRANCH  11  22
TORSDOF 8
ENDMDL
MODEL 2
REMARK VINA RESULT:      -9.0      0.715      1.483
REMARK  Name = 
REMARK  8 active torsions:
REMARK  status: ('A' for Active; 'I' for Inactive)
REMARK    1  A    between atoms: N_4  and  C_5
REMARK    2  A    between atoms: C_9  and  C_10
REMARK    3  A    between atoms: N_21  and  C_22
REMARK    4  A    between atoms: C_26  and  O_27
REMARK    5  A    between atoms: O_27  and  C_28
REMARK    6  A    between atoms: C_28  and  C_29
REMARK    7  A    between atoms: C_29  and  C_30
REMARK    8  A    between atoms: C_30  and  N_31
REMARK                            x       y       z     vdW  Elec       q    Type
REMARK                         _______ _______ _______ _____ _____    ______ ____
ROOT
ATOM      1  O   UNL     1       1.465   9.719  22.266  0.00  0.00    +0.000 OA
ATOM      2  C   UNL     1       0.738  10.165  21.408  0.00  0.00    +0.000 C 
ATOM      3  C   UNL     1      -0.373  11.216  21.648  0.00  0.00    +0.000 C 
ATOM      4  N   UNL     1      -0.435  11.845  22.785  0.00  0.00    +0.000 NA
ATOM      5  C   UNL     1      -1.123  11.289  20.378  0.00  0.00    +0.000 A 
ATOM      6  C   UNL     1      -2.312  11.909  20.020  0.00  0.00    +0.000 A 
ATOM      7  C   UNL     1      -2.732  11.849  18.691  0.00  0.00    +0.000 A 
ATOM      8  C   UNL     1      -2.014  11.098  17.753  0.00  0.00    +0.000 A 
ATOM      9  C   UNL     1      -0.858  10.412  18.131  0.00  0.00    +0.000 A 
ATOM     10  C   UNL     1      -0.409  10.534  19.441  0.00  0.00    +0.000 A 
ATOM     11  N   UNL     1       0.694   9.909  20.046  0.00  0.00    +0.000 N 
ENDROOT
BRANCH   4  12
ATOM     12  C   UNL     1      -1.378  12.832  23.095  0.00  0.00    +0.000 A 
ATOM     13  C   UNL     1      -1.070  14.184  23.191  0.00  0.00    +0.000 A 
ATOM     14  C   UNL     1      -2.080  15.142  23.276  0.00  0.00    +0.000 A 
ATOM     15  C   UNL     1      -3.405  14.742  23.435  0.00  0.00    +0.000 A 
ATOM     16  C   UNL     1      -3.719  13.378  23.546  0.00  0.00    +0.000 A 
ATOM     17  C   UNL     1      -2.695  12.433  23.362  0.00  0.00    +0.000 A 
BRANCH  16  18
ATOM     18  C   UNL     1      -5.124  12.939  23.863  0.00  0.00    +0.000 C 
ATOM     19  F   UNL     1      -5.768  12.379  22.796  0.00  0.00    +0.000 F 
ATOM     20  F   UNL     1      -5.177  12.007  24.853  0.00  0.00    +0.000 F 
ATOM     21  F   UNL     1      -5.919  13.968  24.271  0.00  0.00    +0.000 F 
ENDBRANCH  16  18
ENDBRANCH   4  12
BRANCH  11  22
ATOM     22  C   UNL     1       1.498   8.983  19.367  0.00  0.00    +0.000 A 
ATOM     23  C   UNL     1       1.878   9.214  18.043  0.00  0.00    +0.000 A 
ATOM     24  C   UNL     1       2.687   8.292  17.381  0.00  0.00    +0.000 A 
ATOM     25  C   UNL     1       3.073   7.116  18.026  0.00  0.00    +0.000 A 
ATOM     26  C   UNL     1       2.670   6.858  19.338  0.00  0.00    +0.000 A 
ATOM     27  C   UNL     1       1.902   7.806  20.017  0.00  0.00    +0.000 A 
BRANCH  26  28
ATOM     28  O   UNL     1       3.081   5.651  19.833  0.00  0.00    +0.000 OA
BRANCH  28  29
ATOM     29  C   UNL     1       4.438   5.282  19.593  0.00  0.00    +0.000 C 
BRANCH  29  30
ATOM     30  C   UNL     1       4.475   3.797  19.234  0.00  0.00    +0.000 C 
BRANCH  30  31
ATOM     31  C   UNL     1       3.173   3.391  18.540  0.00  0.00    +0.000 C 
BRANCH  31  32
ATOM     32  N   UNL     1       2.441   2.296  19.197  0.00  0.00    +0.000 NA
ATOM     33  C   UNL     1       0.988   2.454  18.989  0.00  0.00    +0.000 C 
ATOM     34  C   UNL     1       0.554   3.432  20.067  0.00  0.00    +0.000 C 
ATOM     35  C   UNL     1       1.411   3.037  21.257  0.00  0.00    +0.000 C 
ATOM     36  C   UNL     1       2.591   2.270  20.663  0.00  0.00    +0.000 C 
ENDBRANCH  31  32
ENDBRANCH  30  31
ENDBRANCH  29  30
ENDBRANCH  28  29
ENDBRANCH  26  28
ENDBRANCH  11  22
TORSDOF 8
ENDMDL
MODEL 3
REMARK VINA RESULT:      -8.9      0.853      1.077
REMARK  Name = 
REMARK  8 active torsions:
REMARK  status: ('A' for Active; 'I' for Inactive)
REMARK    1  A    between atoms: N_4  and  C_5
REMARK    2  A    between atoms: C_9  and  C_10
REMARK    3  A    between atoms: N_21  and  C_22
REMARK    4  A    between atoms: C_26  and  O_27
REMARK    5  A    between atoms: O_27  and  C_28
REMARK    6  A    between atoms: C_28  and  C_29
REMARK    7  A    between atoms: C_29  and  C_30
REMARK    8  A    between atoms: C_30  and  N_31
REMARK                            x       y       z     vdW  Elec       q    Type
REMARK                         _______ _______ _______ _____ _____    ______ ____
ROOT
ATOM      1  O   UNL     1       1.417  10.272  21.786  0.00  0.00    +0.000 OA
ATOM      2  C   UNL     1       0.659  10.455  20.861  0.00  0.00    +0.000 C 
ATOM      3  C   UNL     1      -0.530  11.446  20.875  0.00  0.00    +0.000 C 
ATOM      4  N   UNL     1      -0.642  12.310  21.840  0.00  0.00    +0.000 NA
ATOM      5  C   UNL     1      -1.281  11.172  19.633  0.00  0.00    +0.000 A 
ATOM      6  C   UNL     1      -2.514  11.603  19.162  0.00  0.00    +0.000 A 
ATOM      7  C   UNL     1      -2.925  11.210  17.888  0.00  0.00    +0.000 A 
ATOM      8  C   UNL     1      -2.150  10.323  17.133  0.00  0.00    +0.000 A 
ATOM      9  C   UNL     1      -0.945   9.830  17.639  0.00  0.00    +0.000 A 
ATOM     10  C   UNL     1      -0.510  10.280  18.880  0.00  0.00    +0.000 A 
ATOM     11  N   UNL     1       0.637   9.894  19.593  0.00  0.00    +0.000 N 
ENDROOT
BRANCH   4  12
ATOM     12  C   UNL     1      -1.660  13.268  21.933  0.00  0.00    +0.000 A 
ATOM     13  C   UNL     1      -1.568  14.540  21.380  0.00  0.00    +0.000 A 
ATOM     14  C   UNL     1      -2.688  15.368  21.304  0.00  0.00    +0.000 A 
ATOM     15  C   UNL     1      -3.872  14.993  21.934  0.00  0.00    +0.000 A 
ATOM     16  C   UNL     1      -3.928  13.801  22.675  0.00  0.00    +0.000 A 
ATOM     17  C   UNL     1      -2.815  12.942  22.655  0.00  0.00    +0.000 A 
BRANCH  16  18
ATOM     18  C   UNL     1      -5.153  13.455  23.480  0.00  0.00    +0.000 C 
ATOM     19  F   UNL     1      -5.741  14.543  24.060  0.00  0.00    +0.000 F 
ATOM     20  F   UNL     1      -6.127  12.866  22.735  0.00  0.00    +0.000 F 
ATOM     21  F   UNL     1      -4.886  12.595  24.503  0.00  0.00    +0.000 F 
ENDBRANCH  16  18
ENDBRANCH   4  12
BRANCH  11  22
ATOM     22  C   UNL     1       1.511   8.901  19.129  0.00  0.00    +0.000 A 
ATOM     23  C   UNL     1       2.212   9.078  17.934  0.00  0.00    +0.000 A 
ATOM     24  C   UNL     1       3.087   8.090  17.488  0.00  0.00    +0.000 A 
ATOM     25  C   UNL     1       3.223   6.903  18.210  0.00  0.00    +0.000 A 
ATOM     26  C   UNL     1       2.501   6.700  19.388  0.00  0.00    +0.000 A 
ATOM     27  C   UNL     1       1.663   7.712  19.861  0.00  0.00    +0.000 A 
BRANCH  26  28
ATOM     28  O   UNL     1       2.695   5.478  19.971  0.00  0.00    +0.000 OA
BRANCH  28  29
ATOM     29  C   UNL     1       1.830   5.131  21.051  0.00  0.00    +0.000 C 
BRANCH  29  30
ATOM     30  C   UNL     1       1.421   3.668  20.887  0.00  0.00    +0.000 C 
BRANCH  30  31
ATOM     31  C   UNL     1       2.626   2.830  20.457  0.00  0.00    +0.000 C 
BRANCH  31  32
ATOM     32  N   UNL     1       2.402   1.998  19.263  0.00  0.00    +0.000 NA
ATOM     33  C   UNL     1       3.674   1.776  18.548  0.00  0.00    +0.000 C 
ATOM     34  C   UNL     1       3.849   3.016  17.689  0.00  0.00    +0.000 C 
ATOM     35  C   UNL     1       2.432   3.332  17.244  0.00  0.00    +0.000 C 
ATOM     36  C   UNL     1       1.530   2.623  18.253  0.00  0.00    +0.000 C 
ENDBRANCH  31  32
ENDBRANCH  30  31
ENDBRANCH  29  30
ENDBRANCH  28  29
ENDBRANCH  26  28
ENDBRANCH  11  22
TORSDOF 8
ENDMDL
MODEL 4
REMARK VINA RESULT:      -8.8      5.924     11.049
REMARK  Name = 
REMARK  8 active torsions:
REMARK  status: ('A' for Active; 'I' for Inactive)
REMARK    1  A    between atoms: N_4  and  C_5
REMARK    2  A    between atoms: C_9  and  C_10
REMARK    3  A    between atoms: N_21  and  C_22
REMARK    4  A    between atoms: C_26  and  O_27
REMARK    5  A    between atoms: O_27  and  C_28
REMARK    6  A    between atoms: C_28  and  C_29
REMARK    7  A    between atoms: C_29  and  C_30
REMARK    8  A    between atoms: C_30  and  N_31
REMARK                            x       y       z     vdW  Elec       q    Type
REMARK                         _______ _______ _______ _____ _____    ______ ____
ROOT
ATOM      1  O   UNL     1       2.646   9.550  17.375  0.00  0.00    +0.000 OA
ATOM      2  C   UNL     1       2.699   8.552  18.057  0.00  0.00    +0.000 C 
ATOM      3  C   UNL     1       3.607   7.332  17.769  0.00  0.00    +0.000 C 
ATOM      4  N   UNL     1       4.540   7.417  16.868  0.00  0.00    +0.000 NA
ATOM      5  C   UNL     1       3.179   6.292  18.727  0.00  0.00    +0.000 A 
ATOM      6  C   UNL     1       3.486   4.945  18.855  0.00  0.00    +0.000 A 
ATOM      7  C   UNL     1       2.960   4.232  19.932  0.00  0.00    +0.000 A 
ATOM      8  C   UNL     1       2.065   4.841  20.819  0.00  0.00    +0.000 A 
ATOM      9  C   UNL     1       1.698   6.178  20.646  0.00  0.00    +0.000 A 
ATOM     10  C   UNL     1       2.280   6.900  19.610  0.00  0.00    +0.000 A 
ATOM     11  N   UNL     1       2.032   8.229  19.228  0.00  0.00    +0.000 N 
ENDROOT
BRANCH   4  12
ATOM     12  C   UNL     1       5.432   6.385  16.550  0.00  0.00    +0.000 A 
ATOM     13  C   UNL     1       6.450   5.964  17.399  0.00  0.00    +0.000 A 
ATOM     14  C   UNL     1       7.159   4.792  17.134  0.00  0.00    +0.000 A 
ATOM     15  C   UNL     1       6.969   4.122  15.928  0.00  0.00    +0.000 A 
ATOM     16  C   UNL     1       6.091   4.644  14.964  0.00  0.00    +0.000 A 
ATOM     17  C   UNL     1       5.320   5.772  15.295  0.00  0.00    +0.000 A 
BRANCH  16  18
ATOM     18  C   UNL     1       5.985   4.012  13.602  0.00  0.00    +0.000 C 
ATOM     19  F   UNL     1       6.819   4.578  12.679  0.00  0.00    +0.000 F 
ATOM     20  F   UNL     1       6.291   2.686  13.608  0.00  0.00    +0.000 F 
ATOM     21  F   UNL     1       4.733   4.109  13.071  0.00  0.00    +0.000 F 
ENDBRANCH  16  18
ENDBRANCH   4  12
BRANCH  11  22
ATOM     22  C   UNL     1       1.064   9.023  19.858  0.00  0.00    +0.000 A 
ATOM     23  C   UNL     1       1.021   9.114  21.251  0.00  0.00    +0.000 A 
ATOM     24  C   UNL     1       0.061   9.916  21.866  0.00  0.00    +0.000 A 
ATOM     25  C   UNL     1      -0.887  10.585  21.091  0.00  0.00    +0.000 A 
ATOM     26  C   UNL     1      -0.875  10.474  19.699  0.00  0.00    +0.000 A 
ATOM     27  C   UNL     1       0.118   9.711  19.081  0.00  0.00    +0.000 A 
BRANCH  26  28
ATOM     28  O   UNL     1      -1.885  11.145  19.066  0.00  0.00    +0.000 OA
BRANCH  28  29
ATOM     29  C   UNL     1      -2.237  10.701  17.757  0.00  0.00    +0.000 C 
BRANCH  29  30
ATOM     30  C   UNL     1      -3.696  10.246  17.781  0.00  0.00    +0.000 C 
BRANCH  30  31
ATOM     31  C   UNL     1      -4.622  11.459  17.880  0.00  0.00    +0.000 C 
BRANCH  31  32
ATOM     32  N   UNL     1      -6.057  11.148  17.765  0.00  0.00    +0.000 NA
ATOM     33  C   UNL     1      -6.862  12.375  17.928  0.00  0.00    +0.000 C 
ATOM     34  C   UNL     1      -6.989  12.549  19.431  0.00  0.00    +0.000 C 
ATOM     35  C   UNL     1      -7.129  11.123  19.934  0.00  0.00    +0.000 C 
ATOM     36  C   UNL     1      -6.561  10.249  18.817  0.00  0.00    +0.000 C 
ENDBRANCH  31  32
ENDBRANCH  30  31
ENDBRANCH  29  30
ENDBRANCH  28  29
ENDBRANCH  26  28
ENDBRANCH  11  22
TORSDOF 8
ENDMDL
MODEL 5
REMARK VINA RESULT:      -8.7      1.732      2.214
REMARK  Name = 
REMARK  8 active torsions:
REMARK  status: ('A' for Active; 'I' for Inactive)
REMARK    1  A    between atoms: N_4  and  C_5
REMARK    2  A    between atoms: C_9  and  C_10
REMARK    3  A    between atoms: N_21  and  C_22
REMARK    4  A    between atoms: C_26  and  O_27
REMARK    5  A    between atoms: O_27  and  C_28
REMARK    6  A    between atoms: C_28  and  C_29
REMARK    7  A    between atoms: C_29  and  C_30
REMARK    8  A    between atoms: C_30  and  N_31
REMARK                            x       y       z     vdW  Elec       q    Type
REMARK                         _______ _______ _______ _____ _____    ______ ____
ROOT
ATOM      1  O   UNL     1       1.388   9.600  22.424  0.00  0.00    +0.000 OA
ATOM      2  C   UNL     1       0.707  10.050  21.531  0.00  0.00    +0.000 C 
ATOM      3  C   UNL     1      -0.380  11.137  21.709  0.00  0.00    +0.000 C 
ATOM      4  N   UNL     1      -0.466  11.789  22.831  0.00  0.00    +0.000 NA
ATOM      5  C   UNL     1      -1.078  11.208  20.410  0.00  0.00    +0.000 A 
ATOM      6  C   UNL     1      -2.234  11.856  19.994  0.00  0.00    +0.000 A 
ATOM      7  C   UNL     1      -2.604  11.782  18.652  0.00  0.00    +0.000 A 
ATOM      8  C   UNL     1      -1.873  10.994  17.755  0.00  0.00    +0.000 A 
ATOM      9  C   UNL     1      -0.753  10.281  18.190  0.00  0.00    +0.000 A 
ATOM     10  C   UNL     1      -0.352  10.415  19.515  0.00  0.00    +0.000 A 
ATOM     11  N   UNL     1       0.709   9.770  20.173  0.00  0.00    +0.000 N 
ENDROOT
BRANCH   4  12
ATOM     12  C   UNL     1      -1.391  12.808  23.087  0.00  0.00    +0.000 A 
ATOM     13  C   UNL     1      -2.717  12.571  23.433  0.00  0.00    +0.000 A 
ATOM     14  C   UNL     1      -3.529  13.606  23.896  0.00  0.00    +0.000 A 
ATOM     15  C   UNL     1      -3.070  14.920  23.858  0.00  0.00    +0.000 A 
ATOM     16  C   UNL     1      -1.805  15.207  23.320  0.00  0.00    +0.000 A 
ATOM     17  C   UNL     1      -0.971  14.137  22.948  0.00  0.00    +0.000 A 
BRANCH  16  18
ATOM     18  C   UNL     1      -1.355  16.633  23.138  0.00  0.00    +0.000 C 
ATOM     19  F   UNL     1      -2.260  17.546  23.597  0.00  0.00    +0.000 F 
ATOM     20  F   UNL     1      -0.193  16.909  23.790  0.00  0.00    +0.000 F 
ATOM     21  F   UNL     1      -1.141  16.955  21.831  0.00  0.00    +0.000 F 
ENDBRANCH  16  18
ENDBRANCH   4  12
BRANCH  11  22
ATOM     22  C   UNL     1       1.510   8.808  19.542  0.00  0.00    +0.000 A 
ATOM     23  C   UNL     1       2.007   9.035  18.256  0.00  0.00    +0.000 A 
ATOM     24  C   UNL     1       2.813   8.078  17.644  0.00  0.00    +0.000 A 
ATOM     25  C   UNL     1       3.078   6.872  18.294  0.00  0.00    +0.000 A 
ATOM     26  C   UNL     1       2.558   6.619  19.566  0.00  0.00    +0.000 A 
ATOM     27  C   UNL     1       1.793   7.600  20.199  0.00  0.00    +0.000 A 
BRANCH  26  28
ATOM     28  O   UNL     1       2.858   5.383  20.068  0.00  0.00    +0.000 OA
BRANCH  28  29
ATOM     29  C   UNL     1       2.063   4.916  21.156  0.00  0.00    +0.000 C 
BRANCH  29  30
ATOM     30  C   UNL     1       1.344   3.643  20.712  0.00  0.00    +0.000 C 
BRANCH  30  31
ATOM     31  C   UNL     1       2.362   2.542  20.410  0.00  0.00    +0.000 C 
BRANCH  31  32
ATOM     32  N   UNL     1       2.174   1.870  19.114  0.00  0.00    +0.000 NA
ATOM     33  C   UNL     1       3.481   1.591  18.487  0.00  0.00    +0.000 C 
ATOM     34  C   UNL     1       3.856   2.889  17.794  0.00  0.00    +0.000 C 
ATOM     35  C   UNL     1       2.524   3.398  17.271  0.00  0.00    +0.000 C 
ATOM     36  C   UNL     1       1.466   2.686  18.113  0.00  0.00    +0.000 C 
ENDBRANCH  31  32
ENDBRANCH  30  31
ENDBRANCH  29  30
ENDBRANCH  28  29
ENDBRANCH  26  28
ENDBRANCH  11  22
TORSDOF 8
ENDMDL
MODEL 6
REMARK VINA RESULT:      -8.7      5.862     11.010
REMARK  Name = 
REMARK  8 active torsions:
REMARK  status: ('A' for Active; 'I' for Inactive)
REMARK    1  A    between atoms: N_4  and  C_5
REMARK    2  A    between atoms: C_9  and  C_10
REMARK    3  A    between atoms: N_21  and  C_22
REMARK    4  A    between atoms: C_26  and  O_27
REMARK    5  A    between atoms: O_27  and  C_28
REMARK    6  A    between atoms: C_28  and  C_29
REMARK    7  A    between atoms: C_29  and  C_30
REMARK    8  A    between atoms: C_30  and  N_31
REMARK                            x       y       z     vdW  Elec       q    Type
REMARK                         _______ _______ _______ _____ _____    ______ ____
ROOT
ATOM      1  O   UNL     1       2.640   9.429  17.370  0.00  0.00    +0.000 OA
ATOM      2  C   UNL     1       2.715   8.425  18.042  0.00  0.00    +0.000 C 
ATOM      3  C   UNL     1       3.637   7.221  17.732  0.00  0.00    +0.000 C 
ATOM      4  N   UNL     1       4.559   7.328  16.822  0.00  0.00    +0.000 NA
ATOM      5  C   UNL     1       3.235   6.166  18.685  0.00  0.00    +0.000 A 
ATOM      6  C   UNL     1       3.562   4.822  18.796  0.00  0.00    +0.000 A 
ATOM      7  C   UNL     1       3.058   4.092  19.872  0.00  0.00    +0.000 A 
ATOM      8  C   UNL     1       2.165   4.680  20.775  0.00  0.00    +0.000 A 
ATOM      9  C   UNL     1       1.776   6.012  20.619  0.00  0.00    +0.000 A 
ATOM     10  C   UNL     1       2.337   6.752  19.583  0.00  0.00    +0.000 A 
ATOM     11  N   UNL     1       2.066   8.081  19.218  0.00  0.00    +0.000 N 
ENDROOT
BRANCH   4  12
ATOM     12  C   UNL     1       5.462   6.313  16.484  0.00  0.00    +0.000 A 
ATOM     13  C   UNL     1       6.499   5.902  17.315  0.00  0.00    +0.000 A 
ATOM     14  C   UNL     1       7.222   4.743  17.033  0.00  0.00    +0.000 A 
ATOM     15  C   UNL     1       7.024   4.077  15.826  0.00  0.00    +0.000 A 
ATOM     16  C   UNL     1       6.124   4.592  14.878  0.00  0.00    +0.000 A 
ATOM     17  C   UNL     1       5.341   5.706  15.227  0.00  0.00    +0.000 A 
BRANCH  16  18
ATOM     18  C   UNL     1       6.008   3.966  13.513  0.00  0.00    +0.000 C 
ATOM     19  F   UNL     1       6.325   2.638  13.500  0.00  0.00    +0.000 F 
ATOM     20  F   UNL     1       4.751   4.048  12.999  0.00  0.00    +0.000 F 
ATOM     21  F   UNL     1       6.832   4.547  12.595  0.00  0.00    +0.000 F 
ENDBRANCH  16  18
ENDBRANCH   4  12
BRANCH  11  22
ATOM     22  C   UNL     1       1.093   8.855  19.865  0.00  0.00    +0.000 A 
ATOM     23  C   UNL     1       0.842   8.679  21.228  0.00  0.00    +0.000 A 
ATOM     24  C   UNL     1      -0.119   9.462  21.865  0.00  0.00    +0.000 A 
ATOM     25  C   UNL     1      -0.864  10.385  21.128  0.00  0.00    +0.000 A 
ATOM     26  C   UNL     1      -0.645  10.546  19.758  0.00  0.00    +0.000 A 
ATOM     27  C   UNL     1       0.353   9.796  19.132  0.00  0.00    +0.000 A 
BRANCH  26  28
ATOM     28  O   UNL     1      -1.473  11.450  19.153  0.00  0.00    +0.000 OA
BRANCH  28  29
ATOM     29  C   UNL     1      -1.937  11.127  17.843  0.00  0.00    +0.000 C 
BRANCH  29  30
ATOM     30  C   UNL     1      -2.872   9.922  17.949  0.00  0.00    +0.000 C 
BRANCH  30  31
ATOM     31  C   UNL     1      -4.313  10.349  17.659  0.00  0.00    +0.000 C 
BRANCH  31  32
ATOM     32  N   UNL     1      -4.606  11.761  17.954  0.00  0.00    +0.000 NA
ATOM     33  C   UNL     1      -5.202  11.890  19.299  0.00  0.00    +0.000 C 
ATOM     34  C   UNL     1      -6.678  11.595  19.091  0.00  0.00    +0.000 C 
ATOM     35  C   UNL     1      -6.970  12.231  17.743  0.00  0.00    +0.000 C 
ATOM     36  C   UNL     1      -5.610  12.363  17.060  0.00  0.00    +0.000 C 
ENDBRANCH  31  32
ENDBRANCH  30  31
ENDBRANCH  29  30
ENDBRANCH  28  29
ENDBRANCH  26  28
ENDBRANCH  11  22
TORSDOF 8
ENDMDL
MODEL 7
REMARK VINA RESULT:      -8.4      5.900     10.945
REMARK  Name = 
REMARK  8 active torsions:
REMARK  status: ('A' for Active; 'I' for Inactive)
REMARK    1  A    between atoms: N_4  and  C_5
REMARK    2  A    between atoms: C_9  and  C_10
REMARK    3  A    between atoms: N_21  and  C_22
REMARK    4  A    between atoms: C_26  and  O_27
REMARK    5  A    between atoms: O_27  and  C_28
REMARK    6  A    between atoms: C_28  and  C_29
REMARK    7  A    between atoms: C_29  and  C_30
REMARK    8  A    between atoms: C_30  and  N_31
REMARK                            x       y       z     vdW  Elec       q    Type
REMARK                         _______ _______ _______ _____ _____    ______ ____
ROOT
ATOM      1  O   UNL     1       2.705   9.460  17.226  0.00  0.00    +0.000 OA
ATOM      2  C   UNL     1       2.763   8.469  17.918  0.00  0.00    +0.000 C 
ATOM      3  C   UNL     1       3.656   7.238  17.628  0.00  0.00    +0.000 C 
ATOM      4  N   UNL     1       4.572   7.304  16.708  0.00  0.00    +0.000 NA
ATOM      5  C   UNL     1       3.238   6.213  18.606  0.00  0.00    +0.000 A 
ATOM      6  C   UNL     1       3.537   4.865  18.745  0.00  0.00    +0.000 A 
ATOM      7  C   UNL     1       3.026   4.169  19.841  0.00  0.00    +0.000 A 
ATOM      8  C   UNL     1       2.153   4.796  20.737  0.00  0.00    +0.000 A 
ATOM      9  C   UNL     1       1.793   6.134  20.555  0.00  0.00    +0.000 A 
ATOM     10  C   UNL     1       2.361   6.839  19.499  0.00  0.00    +0.000 A 
ATOM     11  N   UNL     1       2.117   8.165  19.107  0.00  0.00    +0.000 N 
ENDROOT
BRANCH   4  12
ATOM     12  C   UNL     1       5.450   6.262  16.386  0.00  0.00    +0.000 A 
ATOM     13  C   UNL     1       6.450   5.810  17.240  0.00  0.00    +0.000 A 
ATOM     14  C   UNL     1       7.142   4.631  16.967  0.00  0.00    +0.000 A 
ATOM     15  C   UNL     1       6.954   3.980  15.749  0.00  0.00    +0.000 A 
ATOM     16  C   UNL     1       6.097   4.532  14.783  0.00  0.00    +0.000 A 
ATOM     17  C   UNL     1       5.342   5.669  15.121  0.00  0.00    +0.000 A 
BRANCH  16  18
ATOM     18  C   UNL     1       5.995   3.921  13.410  0.00  0.00    +0.000 C 
ATOM     19  F   UNL     1       6.841   4.492  12.503  0.00  0.00    +0.000 F 
ATOM     20  F   UNL     1       6.288   2.593  13.399  0.00  0.00    +0.000 F 
ATOM     21  F   UNL     1       4.748   4.038  12.872  0.00  0.00    +0.000 F 
ENDBRANCH  16  18
ENDBRANCH   4  12
BRANCH  11  22
ATOM     22  C   UNL     1       1.167   8.974  19.745  0.00  0.00    +0.000 A 
ATOM     23  C   UNL     1       1.172   9.108  21.135  0.00  0.00    +0.000 A 
ATOM     24  C   UNL     1       0.231   9.925  21.759  0.00  0.00    +0.000 A 
ATOM     25  C   UNL     1      -0.747  10.567  20.997  0.00  0.00    +0.000 A 
ATOM     26  C   UNL     1      -0.783  10.413  19.609  0.00  0.00    +0.000 A 
ATOM     27  C   UNL     1       0.192   9.635  18.981  0.00  0.00    +0.000 A 
BRANCH  26  28
ATOM     28  O   UNL     1      -1.817  11.060  18.992  0.00  0.00    +0.000 OA
BRANCH  28  29
ATOM     29  C   UNL     1      -1.867  12.479  19.129  0.00  0.00    +0.000 C 
BRANCH  29  30
ATOM     30  C   UNL     1      -0.731  13.081  18.302  0.00  0.00    +0.000 C 
BRANCH  30  31
ATOM     31  C   UNL     1       0.009  14.141  19.120  0.00  0.00    +0.000 C 
BRANCH  31  32
ATOM     32  N   UNL     1       1.427  14.313  18.761  0.00  0.00    +0.000 NA
ATOM     33  C   UNL     1       2.218  13.161  19.236  0.00  0.00    +0.000 C 
ATOM     34  C   UNL     1       2.516  13.478  20.692  0.00  0.00    +0.000 C 
ATOM     35  C   UNL     1       2.744  14.979  20.678  0.00  0.00    +0.000 C 
ATOM     36  C   UNL     1       2.070  15.474  19.401  0.00  0.00    +0.000 C 
ENDBRANCH  31  32
ENDBRANCH  30  31
ENDBRANCH  29  30
ENDBRANCH  28  29
ENDBRANCH  26  28
ENDBRANCH  11  22
TORSDOF 8
ENDMDL
MODEL 8
REMARK VINA RESULT:      -8.4      4.300      9.226
REMARK  Name = 
REMARK  8 active torsions:
REMARK  status: ('A' for Active; 'I' for Inactive)
REMARK    1  A    between atoms: N_4  and  C_5
REMARK    2  A    between atoms: C_9  and  C_10
REMARK    3  A    between atoms: N_21  and  C_22
REMARK    4  A    between atoms: C_26  and  O_27
REMARK    5  A    between atoms: O_27  and  C_28
REMARK    6  A    between atoms: C_28  and  C_29
REMARK    7  A    between atoms: C_29  and  C_30
REMARK    8  A    between atoms: C_30  and  N_31
REMARK                            x       y       z     vdW  Elec       q    Type
REMARK                         _______ _______ _______ _____ _____    ______ ____
ROOT
ATOM      1  O   UNL     1       0.715   9.847  23.497  0.00  0.00    +0.000 OA
ATOM      2  C   UNL     1       0.287   9.948  22.370  0.00  0.00    +0.000 C 
ATOM      3  C   UNL     1       0.682   9.031  21.187  0.00  0.00    +0.000 C 
ATOM      4  N   UNL     1       1.355   7.941  21.409  0.00  0.00    +0.000 NA
ATOM      5  C   UNL     1       0.085   9.658  19.990  0.00  0.00    +0.000 A 
ATOM      6  C   UNL     1       0.221   9.413  18.631  0.00  0.00    +0.000 A 
ATOM      7  C   UNL     1      -0.548  10.151  17.731  0.00  0.00    +0.000 A 
ATOM      8  C   UNL     1      -1.376  11.184  18.185  0.00  0.00    +0.000 A 
ATOM      9  C   UNL     1      -1.455  11.480  19.548  0.00  0.00    +0.000 A 
ATOM     10  C   UNL     1      -0.738  10.694  20.443  0.00  0.00    +0.000 A 
ATOM     11  N   UNL     1      -0.638  10.833  21.838  0.00  0.00    +0.000 N 
ENDROOT
BRANCH   4  12
ATOM     12  C   UNL     1       1.738   7.029  20.418  0.00  0.00    +0.000 A 
ATOM     13  C   UNL     1       2.450   7.389  19.279  0.00  0.00    +0.000 A 
ATOM     14  C   UNL     1       2.999   6.416  18.444  0.00  0.00    +0.000 A 
ATOM     15  C   UNL     1       2.699   5.072  18.652  0.00  0.00    +0.000 A 
ATOM     16  C   UNL     1       1.814   4.700  19.677  0.00  0.00    +0.000 A 
ATOM     17  C   UNL     1       1.350   5.691  20.561  0.00  0.00    +0.000 A 
BRANCH  16  18
ATOM     18  C   UNL     1       1.366   3.269  19.821  0.00  0.00    +0.000 C 
ATOM     19  F   UNL     1       2.392   2.372  19.726  0.00  0.00    +0.000 F 
ATOM     20  F   UNL     1       0.770   3.019  21.018  0.00  0.00    +0.000 F 
ATOM     21  F   UNL     1       0.467   2.899  18.866  0.00  0.00    +0.000 F 
ENDBRANCH  16  18
ENDBRANCH   4  12
BRANCH  11  22
ATOM     22  C   UNL     1      -1.250  11.885  22.533  0.00  0.00    +0.000 A 
ATOM     23  C   UNL     1      -2.504  11.708  23.123  0.00  0.00    +0.000 A 
ATOM     24  C   UNL     1      -3.097  12.756  23.823  0.00  0.00    +0.000 A 
ATOM     25  C   UNL     1      -2.461  13.997  23.889  0.00  0.00    +0.000 A 
ATOM     26  C   UNL     1      -1.223  14.196  23.274  0.00  0.00    +0.000 A 
ATOM     27  C   UNL     1      -0.606  13.130  22.616  0.00  0.00    +0.000 A 
BRANCH  26  28
ATOM     28  O   UNL     1      -0.734  15.469  23.378  0.00  0.00    +0.000 OA
BRANCH  28  29
ATOM     29  C   UNL     1      -0.438  16.151  22.161  0.00  0.00    +0.000 C 
BRANCH  29  30
ATOM     30  C   UNL     1       1.078  16.165  21.976  0.00  0.00    +0.000 C 
BRANCH  30  31
ATOM     31  C   UNL     1       1.425  16.248  20.488  0.00  0.00    +0.000 C 
BRANCH  31  32
ATOM     32  N   UNL     1       2.567  15.415  20.076  0.00  0.00    +0.000 NA
ATOM     33  C   UNL     1       2.386  14.949  18.687  0.00  0.00    +0.000 C 
ATOM     34  C   UNL     1       1.497  13.723  18.810  0.00  0.00    +0.000 C 
ATOM     35  C   UNL     1       1.991  13.065  20.086  0.00  0.00    +0.000 C 
ATOM     36  C   UNL     1       2.713  14.172  20.853  0.00  0.00    +0.000 C 
ENDBRANCH  31  32
ENDBRANCH  30  31
ENDBRANCH  29  30
ENDBRANCH  28  29
ENDBRANCH  26  28
ENDBRANCH  11  22
TORSDOF 8
ENDMDL
MODEL 9
REMARK VINA RESULT:      -8.4      4.166      9.760
REMARK  Name = 
REMARK  8 active torsions:
REMARK  status: ('A' for Active; 'I' for Inactive)
REMARK    1  A    between atoms: N_4  and  C_5
REMARK    2  A    between atoms: C_9  and  C_10
REMARK    3  A    between atoms: N_21  and  C_22
REMARK    4  A    between atoms: C_26  and  O_27
REMARK    5  A    between atoms: O_27  and  C_28
REMARK    6  A    between atoms: C_28  and  C_29
REMARK    7  A    between atoms: C_29  and  C_30
REMARK    8  A    between atoms: C_30  and  N_31
REMARK                            x       y       z     vdW  Elec       q    Type
REMARK                         _______ _______ _______ _____ _____    ______ ____
ROOT
ATOM      1  O   UNL     1       0.847   9.938  23.403  0.00  0.00    +0.000 OA
ATOM      2  C   UNL     1       0.371  10.017  22.293  0.00  0.00    +0.000 C 
ATOM      3  C   UNL     1       0.713   9.072  21.115  0.00  0.00    +0.000 C 
ATOM      4  N   UNL     1       1.391   7.984  21.333  0.00  0.00    +0.000 NA
ATOM      5  C   UNL     1       0.069   9.676  19.931  0.00  0.00    +0.000 A 
ATOM      6  C   UNL     1       0.147   9.401  18.572  0.00  0.00    +0.000 A 
ATOM      7  C   UNL     1      -0.657  10.123  17.690  0.00  0.00    +0.000 A 
ATOM      8  C   UNL     1      -1.461  11.169  18.155  0.00  0.00    +0.000 A 
ATOM      9  C   UNL     1      -1.482  11.495  19.514  0.00  0.00    +0.000 A 
ATOM     10  C   UNL     1      -0.730  10.726  20.395  0.00  0.00    +0.000 A 
ATOM     11  N   UNL     1      -0.571  10.895  21.780  0.00  0.00    +0.000 N 
ENDROOT
BRANCH   4  12
ATOM     12  C   UNL     1       1.728   7.049  20.347  0.00  0.00    +0.000 A 
ATOM     13  C   UNL     1       2.353   7.387  19.151  0.00  0.00    +0.000 A 
ATOM     14  C   UNL     1       2.869   6.400  18.312  0.00  0.00    +0.000 A 
ATOM     15  C   UNL     1       2.615   5.057  18.581  0.00  0.00    +0.000 A 
ATOM     16  C   UNL     1       1.811   4.699  19.675  0.00  0.00    +0.000 A 
ATOM     17  C   UNL     1       1.383   5.707  20.556  0.00  0.00    +0.000 A 
BRANCH  16  18
ATOM     18  C   UNL     1       1.408   3.264  19.893  0.00  0.00    +0.000 C 
ATOM     19  F   UNL     1       1.048   2.996  21.183  0.00  0.00    +0.000 F 
ATOM     20  F   UNL     1       0.345   2.891  19.130  0.00  0.00    +0.000 F 
ATOM     21  F   UNL     1       2.409   2.386  19.604  0.00  0.00    +0.000 F 
ENDBRANCH  16  18
ENDBRANCH   4  12
BRANCH  11  22
ATOM     22  C   UNL     1      -1.149  11.964  22.478  0.00  0.00    +0.000 A 
ATOM     23  C   UNL     1      -0.540  13.221  22.475  0.00  0.00    +0.000 A 
ATOM     24  C   UNL     1      -1.130  14.281  23.161  0.00  0.00    +0.000 A 
ATOM     25  C   UNL     1      -2.300  14.071  23.893  0.00  0.00    +0.000 A 
ATOM     26  C   UNL     1      -2.899  12.810  23.931  0.00  0.00    +0.000 A 
ATOM     27  C   UNL     1      -2.335  11.762  23.201  0.00  0.00    +0.000 A 
BRANCH  26  28
ATOM     28  O   UNL     1      -4.014  12.734  24.719  0.00  0.00    +0.000 OA
BRANCH  28  29
ATOM     29  C   UNL     1      -5.265  12.564  24.056  0.00  0.00    +0.000 C 
BRANCH  29  30
ATOM     30  C   UNL     1      -5.804  13.946  23.686  0.00  0.00    +0.000 C 
BRANCH  30  31
ATOM     31  C   UNL     1      -6.756  13.836  22.494  0.00  0.00    +0.000 C 
BRANCH  31  32
ATOM     32  N   UNL     1      -6.293  14.518  21.274  0.00  0.00    +0.000 NA
ATOM     33  C   UNL     1      -6.414  13.620  20.108  0.00  0.00    +0.000 C 
ATOM     34  C   UNL     1      -5.155  12.773  20.149  0.00  0.00    +0.000 C 
ATOM     35  C   UNL     1      -4.094  13.753  20.618  0.00  0.00    +0.000 C 
ATOM     36  C   UNL     1      -4.866  14.883  21.296  0.00  0.00    +0.000 C 
ENDBRANCH  31  32
ENDBRANCH  30  31
ENDBRANCH  29  30
ENDBRANCH  28  29
ENDBRANCH  26  28
ENDBRANCH  11  22
TORSDOF 8
ENDMDL
