MODEL 1
REMARK VINA RESULT:      -8.2      0.000      0.000
REMARK  Name = 
REMARK  8 active torsions:
REMARK  status: ('A' for Active; 'I' for Inactive)
REMARK    1  A    between atoms: C_2  and  C_3
REMARK    2  A    between atoms: N_5  and  C_6
REMARK    3  A    between atoms: N_10  and  S_11
REMARK    4  A    between atoms: S_11  and  C_14
REMARK    5  A    between atoms: C_17  and  N_18
REMARK    6  A    between atoms: C_19  and  O_21
REMARK    7  A    between atoms: O_21  and  C_22
REMARK    8  A    between atoms: C_22  and  C_23
REMARK                            x       y       z     vdW  Elec       q    Type
REMARK                         _______ _______ _______ _____ _____    ______ ____
ROOT
ATOM      1  C   UNL     1       1.679   8.054  19.858  0.00  0.00    +0.000 A 
ATOM      2  C   UNL     1       2.185   8.385  18.601  0.00  0.00    +0.000 A 
ATOM      3  C   UNL     1       3.000   7.476  17.916  0.00  0.00    +0.000 A 
ATOM      4  C   UNL     1       3.327   6.234  18.469  0.00  0.00    +0.000 A 
ATOM      5  C   UNL     1       2.799   5.908  19.728  0.00  0.00    +0.000 A 
ATOM      6  C   UNL     1       1.979   6.814  20.426  0.00  0.00    +0.000 A 
ENDROOT
BRANCH   4   7
ATOM      7  N   UNL     1       4.153   5.291  17.815  0.00  0.00    +0.000 N 
ATOM      8  C   UNL     1       5.517   5.164  17.933  0.00  0.00    +0.000 C 
ATOM      9  O   UNL     1       6.255   5.788  18.683  0.00  0.00    +0.000 OA
ATOM     10  H   UNL     1       3.733   4.680  17.132  0.00  0.00    +0.000 HD
BRANCH   8  11
ATOM     11  O   UNL     1       5.972   4.274  17.009  0.00  0.00    +0.000 OA
BRANCH  11  12
ATOM     12  C   UNL     1       5.120   4.130  15.861  0.00  0.00    +0.000 C 
BRANCH  12  13
ATOM     13  C   UNL     1       5.847   4.251  14.544  0.00  0.00    +0.000 A 
ATOM     14  C   UNL     1       7.020   5.012  14.445  0.00  0.00    +0.000 A 
ATOM     15  C   UNL     1       7.745   5.049  13.252  0.00  0.00    +0.000 A 
ATOM     16  C   UNL     1       7.303   4.335  12.142  0.00  0.00    +0.000 A 
ATOM     17  C   UNL     1       6.130   3.586  12.221  0.00  0.00    +0.000 A 
ATOM     18  C   UNL     1       5.402   3.547  13.414  0.00  0.00    +0.000 A 
ENDBRANCH  12  13
ENDBRANCH  11  12
ENDBRANCH   8  11
ENDBRANCH   4   7
BRANCH   1  19
ATOM     19  S   UNL     1       0.768   9.274  20.786  0.00  0.00    +0.000 S 
ATOM     20  O   UNL     1       1.650   9.822  21.795  0.00  0.00    +0.000 OA
ATOM     21  O   UNL     1      -0.492   8.662  21.147  0.00  0.00    +0.000 OA
BRANCH  19  26
ATOM     22  C   UNL     1      -1.359  11.685  18.294  0.00  0.00    +0.000 C 
ATOM     23  C   UNL     1      -0.635  13.021  18.515  0.00  0.00    +0.000 C 
ATOM     24  C   UNL     1       0.830  12.827  18.889  0.00  0.00    +0.000 C 
ATOM     25  C   UNL     1       0.978  11.864  20.062  0.00  0.00    +0.000 C 
ATOM     26  N   UNL     1       0.437  10.535  19.659  0.00  0.00    +0.000 NA
ATOM     27  C   UNL     1      -1.045  10.639  19.391  0.00  0.00    +0.000 C 
BRANCH  22  30
ATOM     28  C   UNL     1      -3.478  11.419  16.990  0.00  0.00    +0.000 C 
ATOM     29  O   UNL     1      -2.962  10.792  16.076  0.00  0.00    +0.000 OA
ATOM     30  N   UNL     1      -2.798  11.891  18.089  0.00  0.00    +0.000 N 
ATOM     31  H   UNL     1      -3.316  12.341  18.833  0.00  0.00    +0.000 HD
BRANCH  28  33
ATOM     32  C   UNL     1      -5.733  11.185  17.932  0.00  0.00    +0.000 C 
ATOM     33  C   UNL     1      -4.928  11.741  17.016  0.00  0.00    +0.000 C 
ENDBRANCH  28  33
ENDBRANCH  22  30
ENDBRANCH  19  26
ENDBRANCH   1  19
TORSDOF 8
ENDMDL
MODEL 2
REMARK VINA RESULT:      -8.1      2.432      3.608
REMARK  Name = 
REMARK  8 active torsions:
REMARK  status: ('A' for Active; 'I' for Inactive)
REMARK    1  A    between atoms: C_2  and  C_3
REMARK    2  A    between atoms: N_5  and  C_6
REMARK    3  A    between atoms: N_10  and  S_11
REMARK    4  A    between atoms: S_11  and  C_14
REMARK    5  A    between atoms: C_17  and  N_18
REMARK    6  A    between atoms: C_19  and  O_21
REMARK    7  A    between atoms: O_21  and  C_22
REMARK    8  A    between atoms: C_22  and  C_23
REMARK                            x       y       z     vdW  Elec       q    Type
REMARK                         _______ _______ _______ _____ _____    ______ ____
ROOT
ATOM      1  C   UNL     1       0.501   9.958  19.732  0.00  0.00    +0.000 A 
ATOM      2  C   UNL     1       0.528   9.156  20.873  0.00  0.00    +0.000 A 
ATOM      3  C   UNL     1       1.300   7.989  20.886  0.00  0.00    +0.000 A 
ATOM      4  C   UNL     1       2.048   7.600  19.770  0.00  0.00    +0.000 A 
ATOM      5  C   UNL     1       2.023   8.425  18.634  0.00  0.00    +0.000 A 
ATOM      6  C   UNL     1       1.251   9.601  18.610  0.00  0.00    +0.000 A 
ENDROOT
BRANCH   4   7
ATOM      7  N   UNL     1       2.834   6.425  19.738  0.00  0.00    +0.000 N 
ATOM      8  C   UNL     1       2.429   5.150  20.057  0.00  0.00    +0.000 C 
ATOM      9  O   UNL     1       1.299   4.785  20.348  0.00  0.00    +0.000 OA
ATOM     10  H   UNL     1       3.817   6.513  19.529  0.00  0.00    +0.000 HD
BRANCH   8  11
ATOM     11  O   UNL     1       3.511   4.325  20.088  0.00  0.00    +0.000 OA
BRANCH  11  12
ATOM     12  C   UNL     1       3.690   3.543  18.896  0.00  0.00    +0.000 C 
BRANCH  12  13
ATOM     13  C   UNL     1       4.845   3.997  18.037  0.00  0.00    +0.000 A 
ATOM     14  C   UNL     1       5.977   4.584  18.620  0.00  0.00    +0.000 A 
ATOM     15  C   UNL     1       7.086   4.919  17.840  0.00  0.00    +0.000 A 
ATOM     16  C   UNL     1       7.074   4.680  16.468  0.00  0.00    +0.000 A 
ATOM     17  C   UNL     1       5.949   4.111  15.872  0.00  0.00    +0.000 A 
ATOM     18  C   UNL     1       4.838   3.775  16.652  0.00  0.00    +0.000 A 
ENDBRANCH  12  13
ENDBRANCH  11  12
ENDBRANCH   8  11
ENDBRANCH   4   7
BRANCH   1  19
ATOM     19  S   UNL     1      -0.600  11.361  19.671  0.00  0.00    +0.000 S 
ATOM     20  O   UNL     1       0.068  12.424  18.950  0.00  0.00    +0.000 OA
ATOM     21  O   UNL     1      -1.088  11.561  21.017  0.00  0.00    +0.000 OA
BRANCH  19  26
ATOM     22  C   UNL     1      -4.254  11.416  17.884  0.00  0.00    +0.000 C 
ATOM     23  C   UNL     1      -3.914  10.760  16.537  0.00  0.00    +0.000 C 
ATOM     24  C   UNL     1      -2.747   9.785  16.649  0.00  0.00    +0.000 C 
ATOM     25  C   UNL     1      -1.543  10.439  17.318  0.00  0.00    +0.000 C 
ATOM     26  N   UNL     1      -1.926  10.842  18.701  0.00  0.00    +0.000 NA
ATOM     27  C   UNL     1      -3.001  11.901  18.652  0.00  0.00    +0.000 C 
BRANCH  22  30
ATOM     28  C   UNL     1      -6.620  12.226  17.859  0.00  0.00    +0.000 C 
ATOM     29  O   UNL     1      -7.109  11.136  18.120  0.00  0.00    +0.000 OA
ATOM     30  N   UNL     1      -5.272  12.461  17.721  0.00  0.00    +0.000 N 
ATOM     31  H   UNL     1      -4.949  13.408  17.571  0.00  0.00    +0.000 HD
BRANCH  28  33
ATOM     32  C   UNL     1      -6.944  14.660  17.911  0.00  0.00    +0.000 C 
ATOM     33  C   UNL     1      -7.449  13.443  17.662  0.00  0.00    +0.000 C 
ENDBRANCH  28  33
ENDBRANCH  22  30
ENDBRANCH  19  26
ENDBRANCH   1  19
TORSDOF 8
ENDMDL
MODEL 3
REMARK VINA RESULT:      -8.0      1.769      2.509
REMARK  Name = 
REMARK  8 active torsions:
REMARK  status: ('A' for Active; 'I' for Inactive)
REMARK    1  A    between atoms: C_2  and  C_3
REMARK    2  A    between atoms: N_5  and  C_6
REMARK    3  A    between atoms: N_10  and  S_11
REMARK    4  A    between atoms: S_11  and  C_14
REMARK    5  A    between atoms: C_17  and  N_18
REMARK    6  A    between atoms: C_19  and  O_21
REMARK    7  A    between atoms: O_21  and  C_22
REMARK    8  A    between atoms: C_22  and  C_23
REMARK                            x       y       z     vdW  Elec       q    Type
REMARK                         _______ _______ _______ _____ _____    ______ ____
ROOT
ATOM      1  C   UNL     1       1.524   7.949  20.353  0.00  0.00    +0.000 A 
ATOM      2  C   UNL     1       1.494   6.639  20.831  0.00  0.00    +0.000 A 
ATOM      3  C   UNL     1       2.024   5.602  20.054  0.00  0.00    +0.000 A 
ATOM      4  C   UNL     1       2.582   5.849  18.796  0.00  0.00    +0.000 A 
ATOM      5  C   UNL     1       2.618   7.174  18.334  0.00  0.00    +0.000 A 
ATOM      6  C   UNL     1       2.089   8.225  19.106  0.00  0.00    +0.000 A 
ENDROOT
BRANCH   4   7
ATOM      7  N   UNL     1       3.119   4.830  17.976  0.00  0.00    +0.000 N 
ATOM      8  C   UNL     1       4.029   3.866  18.342  0.00  0.00    +0.000 C 
ATOM      9  O   UNL     1       4.478   3.663  19.461  0.00  0.00    +0.000 OA
ATOM     10  H   UNL     1       2.880   4.830  16.996  0.00  0.00    +0.000 HD
BRANCH   8  11
ATOM     11  O   UNL     1       4.445   3.191  17.236  0.00  0.00    +0.000 OA
BRANCH  11  12
ATOM     12  C   UNL     1       5.128   4.006  16.271  0.00  0.00    +0.000 C 
BRANCH  12  13
ATOM     13  C   UNL     1       6.087   5.000  16.881  0.00  0.00    +0.000 A 
ATOM     14  C   UNL     1       5.901   6.377  16.690  0.00  0.00    +0.000 A 
ATOM     15  C   UNL     1       6.731   7.301  17.329  0.00  0.00    +0.000 A 
ATOM     16  C   UNL     1       7.759   6.861  18.159  0.00  0.00    +0.000 A 
ATOM     17  C   UNL     1       7.965   5.495  18.345  0.00  0.00    +0.000 A 
ATOM     18  C   UNL     1       7.136   4.568  17.706  0.00  0.00    +0.000 A 
ENDBRANCH  12  13
ENDBRANCH  11  12
ENDBRANCH   8  11
ENDBRANCH   4   7
BRANCH   1  19
ATOM     19  S   UNL     1       0.714   9.240  21.280  0.00  0.00    +0.000 S 
ATOM     20  O   UNL     1       1.619   9.679  22.321  0.00  0.00    +0.000 OA
ATOM     21  O   UNL     1      -0.610   8.753  21.597  0.00  0.00    +0.000 OA
BRANCH  19  26
ATOM     22  C   UNL     1      -1.001  11.675  18.510  0.00  0.00    +0.000 C 
ATOM     23  C   UNL     1      -0.429  13.033  18.942  0.00  0.00    +0.000 C 
ATOM     24  C   UNL     1       0.936  12.898  19.608  0.00  0.00    +0.000 C 
ATOM     25  C   UNL     1       0.899  11.876  20.739  0.00  0.00    +0.000 C 
ATOM     26  N   UNL     1       0.543  10.546  20.169  0.00  0.00    +0.000 NA
ATOM     27  C   UNL     1      -0.853  10.584  19.598  0.00  0.00    +0.000 C 
BRANCH  22  30
ATOM     28  C   UNL     1      -2.853  11.135  16.917  0.00  0.00    +0.000 C 
ATOM     29  O   UNL     1      -2.191  10.360  16.243  0.00  0.00    +0.000 OA
ATOM     30  N   UNL     1      -2.376  11.814  18.015  0.00  0.00    +0.000 N 
ATOM     31  H   UNL     1      -3.012  12.384  18.557  0.00  0.00    +0.000 HD
BRANCH  28  33
ATOM     32  C   UNL     1      -5.207  11.342  17.585  0.00  0.00    +0.000 C 
ATOM     33  C   UNL     1      -4.279  11.430  16.622  0.00  0.00    +0.000 C 
ENDBRANCH  28  33
ENDBRANCH  22  30
ENDBRANCH  19  26
ENDBRANCH   1  19
TORSDOF 8
ENDMDL
MODEL 4
REMARK VINA RESULT:      -7.9      0.782      1.183
REMARK  Name = 
REMARK  8 active torsions:
REMARK  status: ('A' for Active; 'I' for Inactive)
REMARK    1  A    between atoms: C_2  and  C_3
REMARK    2  A    between atoms: N_5  and  C_6
REMARK    3  A    between atoms: N_10  and  S_11
REMARK    4  A    between atoms: S_11  and  C_14
REMARK    5  A    between atoms: C_17  and  N_18
REMARK    6  A    between atoms: C_19  and  O_21
REMARK    7  A    between atoms: O_21  and  C_22
REMARK    8  A    between atoms: C_22  and  C_23
REMARK                            x       y       z     vdW  Elec       q    Type
REMARK                         _______ _______ _______ _____ _____    ______ ____
ROOT
ATOM      1  C   UNL     1       1.524   8.223  20.229  0.00  0.00    +0.000 A 
ATOM      2  C   UNL     1       1.746   6.929  20.700  0.00  0.00    +0.000 A 
ATOM      3  C   UNL     1       2.329   5.972  19.861  0.00  0.00    +0.000 A 
ATOM      4  C   UNL     1       2.693   6.284  18.547  0.00  0.00    +0.000 A 
ATOM      5  C   UNL     1       2.477   7.594  18.091  0.00  0.00    +0.000 A 
ATOM      6  C   UNL     1       1.892   8.564  18.926  0.00  0.00    +0.000 A 
ENDROOT
BRANCH   4   7
ATOM      7  N   UNL     1       3.276   5.346  17.664  0.00  0.00    +0.000 N 
ATOM      8  C   UNL     1       4.576   5.328  17.216  0.00  0.00    +0.000 C 
ATOM      9  O   UNL     1       5.486   6.068  17.561  0.00  0.00    +0.000 OA
ATOM     10  H   UNL     1       2.679   4.647  17.248  0.00  0.00    +0.000 HD
BRANCH   8  11
ATOM     11  O   UNL     1       4.706   4.391  16.237  0.00  0.00    +0.000 OA
BRANCH  11  12
ATOM     12  C   UNL     1       6.066   4.052  15.924  0.00  0.00    +0.000 C 
BRANCH  12  13
ATOM     13  C   UNL     1       6.414   4.213  14.464  0.00  0.00    +0.000 A 
ATOM     14  C   UNL     1       7.443   5.080  14.069  0.00  0.00    +0.000 A 
ATOM     15  C   UNL     1       7.830   5.160  12.729  0.00  0.00    +0.000 A 
ATOM     16  C   UNL     1       7.188   4.384  11.768  0.00  0.00    +0.000 A 
ATOM     17  C   UNL     1       6.154   3.529  12.144  0.00  0.00    +0.000 A 
ATOM     18  C   UNL     1       5.765   3.446  13.484  0.00  0.00    +0.000 A 
ENDBRANCH  12  13
ENDBRANCH  11  12
ENDBRANCH   8  11
ENDBRANCH   4   7
BRANCH   1  19
ATOM     19  S   UNL     1       0.646   9.391  21.253  0.00  0.00    +0.000 S 
ATOM     20  O   UNL     1       1.566   9.889  22.253  0.00  0.00    +0.000 OA
ATOM     21  O   UNL     1      -0.598   8.756  21.629  0.00  0.00    +0.000 OA
BRANCH  19  26
ATOM     22  C   UNL     1      -1.513  11.761  18.749  0.00  0.00    +0.000 C 
ATOM     23  C   UNL     1      -0.992  13.145  19.160  0.00  0.00    +0.000 C 
ATOM     24  C   UNL     1       0.441  13.092  19.677  0.00  0.00    +0.000 C 
ATOM     25  C   UNL     1       0.593  12.044  20.775  0.00  0.00    +0.000 C 
ATOM     26  N   UNL     1       0.270  10.706  20.205  0.00  0.00    +0.000 NA
ATOM     27  C   UNL     1      -1.178  10.658  19.783  0.00  0.00    +0.000 C 
BRANCH  22  30
ATOM     28  C   UNL     1      -3.595  10.789  17.759  0.00  0.00    +0.000 C 
ATOM     29  O   UNL     1      -3.067   9.746  17.403  0.00  0.00    +0.000 OA
ATOM     30  N   UNL     1      -2.939  11.813  18.404  0.00  0.00    +0.000 N 
ATOM     31  H   UNL     1      -3.468  12.613  18.724  0.00  0.00    +0.000 HD
BRANCH  28  33
ATOM     32  C   UNL     1      -5.456  12.317  17.274  0.00  0.00    +0.000 C 
ATOM     33  C   UNL     1      -5.037  11.070  17.532  0.00  0.00    +0.000 C 
ENDBRANCH  28  33
ENDBRANCH  22  30
ENDBRANCH  19  26
ENDBRANCH   1  19
TORSDOF 8
ENDMDL
MODEL 5
REMARK VINA RESULT:      -7.9      0.768      1.422
REMARK  Name = 
REMARK  8 active torsions:
REMARK  status: ('A' for Active; 'I' for Inactive)
REMARK    1  A    between atoms: C_2  and  C_3
REMARK    2  A    between atoms: N_5  and  C_6
REMARK    3  A    between atoms: N_10  and  S_11
REMARK    4  A    between atoms: S_11  and  C_14
REMARK    5  A    between atoms: C_17  and  N_18
REMARK    6  A    between atoms: C_19  and  O_21
REMARK    7  A    between atoms: O_21  and  C_22
REMARK    8  A    between atoms: C_22  and  C_23
REMARK                            x       y       z     vdW  Elec       q    Type
REMARK                         _______ _______ _______ _____ _____    ______ ____
ROOT
ATOM      1  C   UNL     1       1.689   7.903  20.150  0.00  0.00    +0.000 A 
ATOM      2  C   UNL     1       1.836   6.551  20.459  0.00  0.00    +0.000 A 
ATOM      3  C   UNL     1       2.519   5.705  19.577  0.00  0.00    +0.000 A 
ATOM      4  C   UNL     1       3.057   6.186  18.379  0.00  0.00    +0.000 A 
ATOM      5  C   UNL     1       2.914   7.553  18.089  0.00  0.00    +0.000 A 
ATOM      6  C   UNL     1       2.230   8.412  18.968  0.00  0.00    +0.000 A 
ENDROOT
BRANCH   4   7
ATOM      7  N   UNL     1       3.746   5.365  17.457  0.00  0.00    +0.000 N 
ATOM      8  C   UNL     1       4.670   4.390  17.747  0.00  0.00    +0.000 C 
ATOM      9  O   UNL     1       5.006   3.997  18.855  0.00  0.00    +0.000 OA
ATOM     10  H   UNL     1       3.615   5.540  16.472  0.00  0.00    +0.000 HD
BRANCH   8  11
ATOM     11  O   UNL     1       5.248   3.954  16.593  0.00  0.00    +0.000 OA
BRANCH  11  12
ATOM     12  C   UNL     1       5.940   4.977  15.860  0.00  0.00    +0.000 C 
BRANCH  12  13
ATOM     13  C   UNL     1       6.309   4.574  14.453  0.00  0.00    +0.000 A 
ATOM     14  C   UNL     1       5.507   3.673  13.737  0.00  0.00    +0.000 A 
ATOM     15  C   UNL     1       5.794   3.370  12.404  0.00  0.00    +0.000 A 
ATOM     16  C   UNL     1       6.889   3.956  11.773  0.00  0.00    +0.000 A 
ATOM     17  C   UNL     1       7.703   4.841  12.477  0.00  0.00    +0.000 A 
ATOM     18  C   UNL     1       7.419   5.145  13.812  0.00  0.00    +0.000 A 
ENDBRANCH  12  13
ENDBRANCH  11  12
ENDBRANCH   8  11
ENDBRANCH   4   7
BRANCH   1  19
ATOM     19  S   UNL     1       0.691   8.940  21.204  0.00  0.00    +0.000 S 
ATOM     20  O   UNL     1       1.481   9.293  22.364  0.00  0.00    +0.000 OA
ATOM     21  O   UNL     1      -0.588   8.279  21.343  0.00  0.00    +0.000 OA
BRANCH  19  26
ATOM     22  C   UNL     1      -1.167  11.652  18.807  0.00  0.00    +0.000 C 
ATOM     23  C   UNL     1      -0.684  12.962  19.445  0.00  0.00    +0.000 C 
ATOM     24  C   UNL     1       0.685  12.814  20.101  0.00  0.00    +0.000 C 
ATOM     25  C   UNL     1       0.709  11.634  21.066  0.00  0.00    +0.000 C 
ATOM     26  N   UNL     1       0.441  10.384  20.298  0.00  0.00    +0.000 NA
ATOM     27  C   UNL     1      -0.953  10.421  19.722  0.00  0.00    +0.000 C 
BRANCH  22  30
ATOM     28  C   UNL     1      -2.962  11.288  17.104  0.00  0.00    +0.000 C 
ATOM     29  O   UNL     1      -2.237  10.713  16.306  0.00  0.00    +0.000 OA
ATOM     30  N   UNL     1      -2.546  11.777  18.321  0.00  0.00    +0.000 N 
ATOM     31  H   UNL     1      -3.228  12.180  18.949  0.00  0.00    +0.000 HD
BRANCH  28  33
ATOM     32  C   UNL     1      -5.323  11.245  17.779  0.00  0.00    +0.000 C 
ATOM     33  C   UNL     1      -4.406  11.524  16.842  0.00  0.00    +0.000 C 
ENDBRANCH  28  33
ENDBRANCH  22  30
ENDBRANCH  19  26
ENDBRANCH   1  19
TORSDOF 8
ENDMDL
MODEL 6
REMARK VINA RESULT:      -7.8      2.575      3.592
REMARK  Name = 
REMARK  8 active torsions:
REMARK  status: ('A' for Active; 'I' for Inactive)
REMARK    1  A    between atoms: C_2  and  C_3
REMARK    2  A    between atoms: N_5  and  C_6
REMARK    3  A    between atoms: N_10  and  S_11
REMARK    4  A    between atoms: S_11  and  C_14
REMARK    5  A    between atoms: C_17  and  N_18
REMARK    6  A    between atoms: C_19  and  O_21
REMARK    7  A    between atoms: O_21  and  C_22
REMARK    8  A    between atoms: C_22  and  C_23
REMARK                            x       y       z     vdW  Elec       q    Type
REMARK                         _______ _______ _______ _____ _____    ______ ____
ROOT
ATOM      1  C   UNL     1       0.640   9.947  19.341  0.00  0.00    +0.000 A 
ATOM      2  C   UNL     1       1.220   9.546  18.138  0.00  0.00    +0.000 A 
ATOM      3  C   UNL     1       1.997   8.382  18.092  0.00  0.00    +0.000 A 
ATOM      4  C   UNL     1       2.213   7.608  19.236  0.00  0.00    +0.000 A 
ATOM      5  C   UNL     1       1.610   8.015  20.437  0.00  0.00    +0.000 A 
ATOM      6  C   UNL     1       0.828   9.183  20.495  0.00  0.00    +0.000 A 
ENDROOT
BRANCH   4   7
ATOM      7  N   UNL     1       2.997   6.431  19.236  0.00  0.00    +0.000 N 
ATOM      8  C   UNL     1       2.725   5.255  19.893  0.00  0.00    +0.000 C 
ATOM      9  O   UNL     1       1.718   4.981  20.531  0.00  0.00    +0.000 OA
ATOM     10  H   UNL     1       3.891   6.454  18.769  0.00  0.00    +0.000 HD
BRANCH   8  11
ATOM     11  O   UNL     1       3.802   4.427  19.808  0.00  0.00    +0.000 OA
BRANCH  11  12
ATOM     12  C   UNL     1       3.859   3.658  18.596  0.00  0.00    +0.000 C 
BRANCH  12  13
ATOM     13  C   UNL     1       4.969   4.073  17.662  0.00  0.00    +0.000 A 
ATOM     14  C   UNL     1       6.205   4.499  18.170  0.00  0.00    +0.000 A 
ATOM     15  C   UNL     1       7.264   4.794  17.308  0.00  0.00    +0.000 A 
ATOM     16  C   UNL     1       7.099   4.677  15.931  0.00  0.00    +0.000 A 
ATOM     17  C   UNL     1       5.871   4.269  15.411  0.00  0.00    +0.000 A 
ATOM     18  C   UNL     1       4.809   3.973  16.271  0.00  0.00    +0.000 A 
ENDBRANCH  12  13
ENDBRANCH  11  12
ENDBRANCH   8  11
ENDBRANCH   4   7
BRANCH   1  19
ATOM     19  S   UNL     1      -0.222  11.507  19.424  0.00  0.00    +0.000 S 
ATOM     20  O   UNL     1       0.367  12.396  18.445  0.00  0.00    +0.000 OA
ATOM     21  O   UNL     1      -0.286  11.870  20.822  0.00  0.00    +0.000 OA
BRANCH  19  26
ATOM     22  C   UNL     1      -4.257  11.848  19.037  0.00  0.00    +0.000 C 
ATOM     23  C   UNL     1      -4.430  11.442  17.566  0.00  0.00    +0.000 C 
ATOM     24  C   UNL     1      -3.348  10.471  17.105  0.00  0.00    +0.000 C 
ATOM     25  C   UNL     1      -1.956  11.007  17.419  0.00  0.00    +0.000 C 
ATOM     26  N   UNL     1      -1.824  11.157  18.896  0.00  0.00    +0.000 NA
ATOM     27  C   UNL     1      -2.793  12.200  19.398  0.00  0.00    +0.000 C 
BRANCH  22  30
ATOM     28  C   UNL     1      -6.025  12.815  20.519  0.00  0.00    +0.000 C 
ATOM     29  O   UNL     1      -6.044  11.869  21.293  0.00  0.00    +0.000 OA
ATOM     30  N   UNL     1      -5.212  12.898  19.412  0.00  0.00    +0.000 N 
ATOM     31  H   UNL     1      -5.212  13.747  18.863  0.00  0.00    +0.000 HD
BRANCH  28  33
ATOM     32  C   UNL     1      -7.849  14.020  21.637  0.00  0.00    +0.000 C 
ATOM     33  C   UNL     1      -6.894  14.007  20.696  0.00  0.00    +0.000 C 
ENDBRANCH  28  33
ENDBRANCH  22  30
ENDBRANCH  19  26
ENDBRANCH   1  19
TORSDOF 8
ENDMDL
MODEL 7
REMARK VINA RESULT:      -7.8      0.529      1.041
REMARK  Name = 
REMARK  8 active torsions:
REMARK  status: ('A' for Active; 'I' for Inactive)
REMARK    1  A    between atoms: C_2  and  C_3
REMARK    2  A    between atoms: N_5  and  C_6
REMARK    3  A    between atoms: N_10  and  S_11
REMARK    4  A    between atoms: S_11  and  C_14
REMARK    5  A    between atoms: C_17  and  N_18
REMARK    6  A    between atoms: C_19  and  O_21
REMARK    7  A    between atoms: O_21  and  C_22
REMARK    8  A    between atoms: C_22  and  C_23
REMARK                            x       y       z     vdW  Elec       q    Type
REMARK                         _______ _______ _______ _____ _____    ______ ____
ROOT
ATOM      1  C   UNL     1       1.745   8.089  19.886  0.00  0.00    +0.000 A 
ATOM      2  C   UNL     1       2.167   8.520  18.628  0.00  0.00    +0.000 A 
ATOM      3  C   UNL     1       2.999   7.702  17.854  0.00  0.00    +0.000 A 
ATOM      4  C   UNL     1       3.425   6.453  18.318  0.00  0.00    +0.000 A 
ATOM      5  C   UNL     1       2.980   6.027  19.579  0.00  0.00    +0.000 A 
ATOM      6  C   UNL     1       2.144   6.840  20.366  0.00  0.00    +0.000 A 
ENDROOT
BRANCH   4   7
ATOM      7  N   UNL     1       4.272   5.600  17.573  0.00  0.00    +0.000 N 
ATOM      8  C   UNL     1       5.338   4.874  18.046  0.00  0.00    +0.000 C 
ATOM      9  O   UNL     1       5.701   4.767  19.210  0.00  0.00    +0.000 OA
ATOM     10  H   UNL     1       4.145   5.556  16.573  0.00  0.00    +0.000 HD
BRANCH   8  11
ATOM     11  O   UNL     1       6.018   4.329  17.000  0.00  0.00    +0.000 OA
BRANCH  11  12
ATOM     12  C   UNL     1       5.206   4.067  15.844  0.00  0.00    +0.000 C 
BRANCH  12  13
ATOM     13  C   UNL     1       5.962   4.135  14.540  0.00  0.00    +0.000 A 
ATOM     14  C   UNL     1       5.502   3.439  13.413  0.00  0.00    +0.000 A 
ATOM     15  C   UNL     1       6.147   3.574  12.181  0.00  0.00    +0.000 A 
ATOM     16  C   UNL     1       7.263   4.399  12.062  0.00  0.00    +0.000 A 
ATOM     17  C   UNL     1       7.740   5.085  13.177  0.00  0.00    +0.000 A 
ATOM     18  C   UNL     1       7.097   4.951  14.412  0.00  0.00    +0.000 A 
ENDBRANCH  12  13
ENDBRANCH  11  12
ENDBRANCH   8  11
ENDBRANCH   4   7
BRANCH   1  19
ATOM     19  S   UNL     1       0.811   9.198  20.925  0.00  0.00    +0.000 S 
ATOM     20  O   UNL     1       1.691   9.684  21.967  0.00  0.00    +0.000 OA
ATOM     21  O   UNL     1      -0.425   8.520  21.245  0.00  0.00    +0.000 OA
BRANCH  19  26
ATOM     22  C   UNL     1      -1.437  11.834  18.793  0.00  0.00    +0.000 C 
ATOM     23  C   UNL     1      -0.645  13.129  19.030  0.00  0.00    +0.000 C 
ATOM     24  C   UNL     1       0.839  12.864  19.256  0.00  0.00    +0.000 C 
ATOM     25  C   UNL     1       1.054  11.821  20.348  0.00  0.00    +0.000 C 
ATOM     26  N   UNL     1       0.429  10.540  19.913  0.00  0.00    +0.000 NA
ATOM     27  C   UNL     1      -1.065  10.709  19.789  0.00  0.00    +0.000 C 
BRANCH  22  30
ATOM     28  C   UNL     1      -3.752  11.350  17.978  0.00  0.00    +0.000 C 
ATOM     29  O   UNL     1      -3.423  10.402  17.280  0.00  0.00    +0.000 OA
ATOM     30  N   UNL     1      -2.879  12.099  18.734  0.00  0.00    +0.000 N 
ATOM     31  H   UNL     1      -3.246  12.824  19.336  0.00  0.00    +0.000 HD
BRANCH  28  33
ATOM     32  C   UNL     1      -5.752  12.460  17.084  0.00  0.00    +0.000 C 
ATOM     33  C   UNL     1      -5.163  11.803  18.093  0.00  0.00    +0.000 C 
ENDBRANCH  28  33
ENDBRANCH  22  30
ENDBRANCH  19  26
ENDBRANCH   1  19
TORSDOF 8
ENDMDL
MODEL 8
REMARK VINA RESULT:      -7.6      3.065     10.538
REMARK  Name = 
REMARK  8 active torsions:
REMARK  status: ('A' for Active; 'I' for Inactive)
REMARK    1  A    between atoms: C_2  and  C_3
REMARK    2  A    between atoms: N_5  and  C_6
REMARK    3  A    between atoms: N_10  and  S_11
REMARK    4  A    between atoms: S_11  and  C_14
REMARK    5  A    between atoms: C_17  and  N_18
REMARK    6  A    between atoms: C_19  and  O_21
REMARK    7  A    between atoms: O_21  and  C_22
REMARK    8  A    between atoms: C_22  and  C_23
REMARK                            x       y       z     vdW  Elec       q    Type
REMARK                         _______ _______ _______ _____ _____    ______ ____
ROOT
ATOM      1  C   UNL     1       2.695   5.446  19.367  0.00  0.00    +0.000 A 
ATOM      2  C   UNL     1       2.786   6.693  18.748  0.00  0.00    +0.000 A 
ATOM      3  C   UNL     1       2.155   7.803  19.320  0.00  0.00    +0.000 A 
ATOM      4  C   UNL     1       1.422   7.692  20.505  0.00  0.00    +0.000 A 
ATOM      5  C   UNL     1       1.351   6.434  21.126  0.00  0.00    +0.000 A 
ATOM      6  C   UNL     1       1.982   5.311  20.560  0.00  0.00    +0.000 A 
ENDROOT
BRANCH   4   7
ATOM      7  N   UNL     1       0.761   8.785  21.111  0.00  0.00    +0.000 N 
ATOM      8  C   UNL     1       1.187   9.509  22.200  0.00  0.00    +0.000 C 
ATOM      9  O   UNL     1       2.250   9.394  22.793  0.00  0.00    +0.000 OA
ATOM     10  H   UNL     1      -0.155   9.037  20.772  0.00  0.00    +0.000 HD
BRANCH   8  11
ATOM     11  O   UNL     1       0.196  10.352  22.601  0.00  0.00    +0.000 OA
BRANCH  11  12
ATOM     12  C   UNL     1      -0.349  11.163  21.548  0.00  0.00    +0.000 C 
BRANCH  12  13
ATOM     13  C   UNL     1      -1.548  11.978  21.964  0.00  0.00    +0.000 A 
ATOM     14  C   UNL     1      -2.075  12.957  21.109  0.00  0.00    +0.000 A 
ATOM     15  C   UNL     1      -3.240  13.648  21.452  0.00  0.00    +0.000 A 
ATOM     16  C   UNL     1      -3.887  13.375  22.654  0.00  0.00    +0.000 A 
ATOM     17  C   UNL     1      -3.366  12.416  23.521  0.00  0.00    +0.000 A 
ATOM     18  C   UNL     1      -2.200  11.723  23.180  0.00  0.00    +0.000 A 
ENDBRANCH  12  13
ENDBRANCH  11  12
ENDBRANCH   8  11
ENDBRANCH   4   7
BRANCH   1  19
ATOM     19  S   UNL     1       3.375   4.011  18.556  0.00  0.00    +0.000 S 
ATOM     20  O   UNL     1       2.841   3.961  17.211  0.00  0.00    +0.000 OA
ATOM     21  O   UNL     1       3.207   2.902  19.469  0.00  0.00    +0.000 OA
BRANCH  19  26
ATOM     22  C   UNL     1       6.967   4.825  16.828  0.00  0.00    +0.000 C 
ATOM     23  C   UNL     1       7.581   5.750  17.889  0.00  0.00    +0.000 C 
ATOM     24  C   UNL     1       7.069   5.440  19.291  0.00  0.00    +0.000 C 
ATOM     25  C   UNL     1       5.544   5.415  19.328  0.00  0.00    +0.000 C 
ATOM     26  N   UNL     1       5.062   4.333  18.423  0.00  0.00    +0.000 NA
ATOM     27  C   UNL     1       5.438   4.647  16.996  0.00  0.00    +0.000 C 
BRANCH  22  30
ATOM     28  C   UNL     1       6.958   4.573  14.339  0.00  0.00    +0.000 C 
ATOM     29  O   UNL     1       6.258   3.571  14.336  0.00  0.00    +0.000 OA
ATOM     30  N   UNL     1       7.353   5.242  15.475  0.00  0.00    +0.000 N 
ATOM     31  H   UNL     1       7.876   6.103  15.382  0.00  0.00    +0.000 HD
BRANCH  28  33
ATOM     32  C   UNL     1       7.364   4.549  11.918  0.00  0.00    +0.000 C 
ATOM     33  C   UNL     1       7.464   5.194  13.088  0.00  0.00    +0.000 C 
ENDBRANCH  28  33
ENDBRANCH  22  30
ENDBRANCH  19  26
ENDBRANCH   1  19
TORSDOF 8
ENDMDL
MODEL 9
REMARK VINA RESULT:      -7.6      3.447     10.622
REMARK  Name = 
REMARK  8 active torsions:
REMARK  status: ('A' for Active; 'I' for Inactive)
REMARK    1  A    between atoms: C_2  and  C_3
REMARK    2  A    between atoms: N_5  and  C_6
REMARK    3  A    between atoms: N_10  and  S_11
REMARK    4  A    between atoms: S_11  and  C_14
REMARK    5  A    between atoms: C_17  and  N_18
REMARK    6  A    between atoms: C_19  and  O_21
REMARK    7  A    between atoms: O_21  and  C_22
REMARK    8  A    between atoms: C_22  and  C_23
REMARK                            x       y       z     vdW  Elec       q    Type
REMARK                         _______ _______ _______ _____ _____    ______ ____
ROOT
ATOM      1  C   UNL     1       2.540   5.703  18.810  0.00  0.00    +0.000 A 
ATOM      2  C   UNL     1       2.454   6.898  18.096  0.00  0.00    +0.000 A 
ATOM      3  C   UNL     1       1.966   8.051  18.722  0.00  0.00    +0.000 A 
ATOM      4  C   UNL     1       1.553   8.032  20.058  0.00  0.00    +0.000 A 
ATOM      5  C   UNL     1       1.659   6.826  20.769  0.00  0.00    +0.000 A 
ATOM      6  C   UNL     1       2.148   5.662  20.150  0.00  0.00    +0.000 A 
ENDROOT
BRANCH   4   7
ATOM      7  N   UNL     1       1.046   9.171  20.726  0.00  0.00    +0.000 N 
ATOM      8  C   UNL     1      -0.078   9.235  21.515  0.00  0.00    +0.000 C 
ATOM      9  O   UNL     1      -0.799   8.306  21.851  0.00  0.00    +0.000 OA
ATOM     10  H   UNL     1       1.498  10.059  20.567  0.00  0.00    +0.000 HD
BRANCH   8  11
ATOM     11  O   UNL     1      -0.345  10.534  21.822  0.00  0.00    +0.000 OA
BRANCH  11  12
ATOM     12  C   UNL     1      -1.010  10.717  23.082  0.00  0.00    +0.000 C 
BRANCH  12  13
ATOM     13  C   UNL     1      -1.715  12.045  23.212  0.00  0.00    +0.000 A 
ATOM     14  C   UNL     1      -1.028  13.243  22.963  0.00  0.00    +0.000 A 
ATOM     15  C   UNL     1      -1.700  14.467  22.991  0.00  0.00    +0.000 A 
ATOM     16  C   UNL     1      -3.063  14.511  23.277  0.00  0.00    +0.000 A 
ATOM     17  C   UNL     1      -3.754  13.330  23.542  0.00  0.00    +0.000 A 
ATOM     18  C   UNL     1      -3.084  12.103  23.515  0.00  0.00    +0.000 A 
ENDBRANCH  12  13
ENDBRANCH  11  12
ENDBRANCH   8  11
ENDBRANCH   4   7
BRANCH   1  19
ATOM     19  S   UNL     1       3.020   4.208  17.965  0.00  0.00    +0.000 S 
ATOM     20  O   UNL     1       1.901   3.769  17.159  0.00  0.00    +0.000 OA
ATOM     21  O   UNL     1       3.610   3.341  18.961  0.00  0.00    +0.000 OA
BRANCH  19  26
ATOM     22  C   UNL     1       6.125   6.363  16.461  0.00  0.00    +0.000 C 
ATOM     23  C   UNL     1       6.951   5.244  15.811  0.00  0.00    +0.000 C 
ATOM     24  C   UNL     1       6.081   4.080  15.349  0.00  0.00    +0.000 C 
ATOM     25  C   UNL     1       5.180   3.583  16.475  0.00  0.00    +0.000 C 
ATOM     26  N   UNL     1       4.270   4.691  16.882  0.00  0.00    +0.000 NA
ATOM     27  C   UNL     1       5.071   5.832  17.462  0.00  0.00    +0.000 C 
BRANCH  22  30
ATOM     28  C   UNL     1       7.806   7.178  18.126  0.00  0.00    +0.000 C 
ATOM     29  O   UNL     1       7.882   6.117  18.728  0.00  0.00    +0.000 OA
ATOM     30  N   UNL     1       6.995   7.397  17.036  0.00  0.00    +0.000 N 
ATOM     31  H   UNL     1       7.045   8.286  16.555  0.00  0.00    +0.000 HD
BRANCH  28  33
ATOM     32  C   UNL     1       8.298   9.581  18.021  0.00  0.00    +0.000 C 
ATOM     33  C   UNL     1       8.603   8.371  18.511  0.00  0.00    +0.000 C 
ENDBRANCH  28  33
ENDBRANCH  22  30
ENDBRANCH  19  26
ENDBRANCH   1  19
TORSDOF 8
ENDMDL
