MODEL 1
REMARK VINA RESULT:      -7.7      0.000      0.000
REMARK  Name = 
REMARK  8 active torsions:
REMARK  status: ('A' for Active; 'I' for Inactive)
REMARK    1  A    between atoms: C_2  and  C_12
REMARK    2  A    between atoms: N_3  and  C_4
REMARK    3  A    between atoms: C_4  and  C_5
REMARK    4  A    between atoms: C_15  and  C_16
REMARK    5  A    between atoms: C_16  and  C_17
REMARK    6  A    between atoms: C_17  and  N_18
REMARK    7  A    between atoms: N_18  and  C_19
REMARK    8  A    between atoms: C_19  and  C_20
REMARK                            x       y       z     vdW  Elec       q    Type
REMARK                         _______ _______ _______ _____ _____    ______ ____
ROOT
ATOM      1  C   UNL     1       0.328  10.125  20.916  0.00  0.00    +0.000 A 
ATOM      2  C   UNL     1       0.235  10.846  19.739  0.00  0.00    +0.000 A 
ATOM      3  S   UNL     1       1.063  10.037  18.478  0.00  0.00    +0.000 S 
ATOM      4  C   UNL     1       1.490   8.785  19.576  0.00  0.00    +0.000 A 
ATOM      5  N   UNL     1       1.058   8.940  20.810  0.00  0.00    +0.000 NA
ENDROOT
BRANCH   1   7
ATOM      6  O   UNL     1       0.127  10.164  23.272  0.00  0.00    +0.000 OA
ATOM      7  C   UNL     1      -0.282  10.546  22.178  0.00  0.00    +0.000 C 
ATOM      8  N   UNL     1      -1.349  11.396  22.037  0.00  0.00    +0.000 N 
ATOM      9  H   UNL     1      -1.690  11.621  21.106  0.00  0.00    +0.000 HD
BRANCH   8  10
ATOM     10  C   UNL     1      -2.059  11.902  23.189  0.00  0.00    +0.000 C 
BRANCH  10  11
ATOM     11  C   UNL     1      -3.421  12.461  22.862  0.00  0.00    +0.000 A 
ATOM     12  N   UNL     1      -3.718  12.763  21.564  0.00  0.00    +0.000 NA
ATOM     13  C   UNL     1      -4.949  13.267  21.317  0.00  0.00    +0.000 A 
ATOM     14  C   UNL     1      -5.909  13.483  22.296  0.00  0.00    +0.000 A 
ATOM     15  C   UNL     1      -5.592  13.166  23.613  0.00  0.00    +0.000 A 
ATOM     16  C   UNL     1      -4.334  12.651  23.895  0.00  0.00    +0.000 A 
ATOM     17  F   UNL     1      -4.016  12.342  25.160  0.00  0.00    +0.000 F 
ENDBRANCH  10  11
ENDBRANCH   8  10
ENDBRANCH   1   7
BRANCH   4  18
ATOM     18  C   UNL     1       2.300   7.614  19.114  0.00  0.00    +0.000 C 
BRANCH  18  19
ATOM     19  C   UNL     1       2.216   6.458  20.116  0.00  0.00    +0.000 C 
BRANCH  19  20
ATOM     20  N   UNL     1       3.433   5.637  20.058  0.00  0.00    +0.000 NA
ATOM     21  H   UNL     1       3.590   5.197  20.967  0.00  0.00    +0.000 HD
BRANCH  20  22
ATOM     22  C   UNL     1       3.284   4.561  19.070  0.00  0.00    +0.000 C 
BRANCH  22  23
ATOM     23  C   UNL     1       4.447   4.525  18.110  0.00  0.00    +0.000 A 
ATOM     24  C   UNL     1       4.259   4.146  16.763  0.00  0.00    +0.000 A 
ATOM     25  C   UNL     1       5.328   4.059  15.863  0.00  0.00    +0.000 A 
ATOM     26  C   UNL     1       6.636   4.346  16.262  0.00  0.00    +0.000 A 
ATOM     27  C   UNL     1       6.808   4.738  17.590  0.00  0.00    +0.000 A 
ATOM     28  N   UNL     1       7.922   5.096  18.305  0.00  0.00    +0.000 N 
ATOM     29  C   UNL     1       7.529   5.405  19.574  0.00  0.00    +0.000 A 
ATOM     30  N   UNL     1       6.235   5.247  19.733  0.00  0.00    +0.000 NA
ATOM     31  C   UNL     1       5.764   4.835  18.507  0.00  0.00    +0.000 A 
ATOM     32  H   UNL     1       8.867   5.132  17.950  0.00  0.00    +0.000 HD
ENDBRANCH  22  23
ENDBRANCH  20  22
ENDBRANCH  19  20
ENDBRANCH  18  19
ENDBRANCH   4  18
TORSDOF 8
ENDMDL
MODEL 2
REMARK VINA RESULT:      -7.6      2.840      3.273
REMARK  Name = 
REMARK  8 active torsions:
REMARK  status: ('A' for Active; 'I' for Inactive)
REMARK    1  A    between atoms: C_2  and  C_12
REMARK    2  A    between atoms: N_3  and  C_4
REMARK    3  A    between atoms: C_4  and  C_5
REMARK    4  A    between atoms: C_15  and  C_16
REMARK    5  A    between atoms: C_16  and  C_17
REMARK    6  A    between atoms: C_17  and  N_18
REMARK    7  A    between atoms: N_18  and  C_19
REMARK    8  A    between atoms: C_19  and  C_20
REMARK                            x       y       z     vdW  Elec       q    Type
REMARK                         _______ _______ _______ _____ _____    ______ ____
ROOT
ATOM      1  C   UNL     1       1.575   9.053  19.081  0.00  0.00    +0.000 A 
ATOM      2  C   UNL     1       2.268   8.841  17.903  0.00  0.00    +0.000 A 
ATOM      3  S   UNL     1       2.978   7.284  17.901  0.00  0.00    +0.000 S 
ATOM      4  C   UNL     1       2.317   6.993  19.462  0.00  0.00    +0.000 A 
ATOM      5  N   UNL     1       1.614   7.981  19.974  0.00  0.00    +0.000 NA
ENDROOT
BRANCH   1   7
ATOM      6  O   UNL     1       1.283  11.135  20.165  0.00  0.00    +0.000 OA
ATOM      7  C   UNL     1       0.849  10.288  19.388  0.00  0.00    +0.000 C 
ATOM      8  N   UNL     1      -0.353  10.415  18.741  0.00  0.00    +0.000 N 
ATOM      9  H   UNL     1      -0.696   9.649  18.166  0.00  0.00    +0.000 HD
BRANCH   8  10
ATOM     10  C   UNL     1      -1.188  11.577  18.938  0.00  0.00    +0.000 C 
BRANCH  10  11
ATOM     11  C   UNL     1      -2.483  11.528  18.167  0.00  0.00    +0.000 A 
ATOM     12  N   UNL     1      -2.460  11.136  16.860  0.00  0.00    +0.000 NA
ATOM     13  C   UNL     1      -3.644  11.112  16.205  0.00  0.00    +0.000 A 
ATOM     14  C   UNL     1      -4.858  11.455  16.785  0.00  0.00    +0.000 A 
ATOM     15  C   UNL     1      -4.864  11.847  18.120  0.00  0.00    +0.000 A 
ATOM     16  C   UNL     1      -3.663  11.886  18.814  0.00  0.00    +0.000 A 
ATOM     17  F   UNL     1      -3.655  12.263  20.100  0.00  0.00    +0.000 F 
ENDBRANCH  10  11
ENDBRANCH   8  10
ENDBRANCH   1   7
BRANCH   4  18
ATOM     18  C   UNL     1       2.552   5.686  20.154  0.00  0.00    +0.000 C 
BRANCH  18  19
ATOM     19  C   UNL     1       1.740   4.564  19.500  0.00  0.00    +0.000 C 
BRANCH  19  20
ATOM     20  N   UNL     1       2.593   3.399  19.233  0.00  0.00    +0.000 NA
ATOM     21  H   UNL     1       2.571   3.183  18.235  0.00  0.00    +0.000 HD
BRANCH  20  22
ATOM     22  C   UNL     1       3.989   3.689  19.588  0.00  0.00    +0.000 C 
BRANCH  22  23
ATOM     23  C   UNL     1       4.803   4.062  18.374  0.00  0.00    +0.000 A 
ATOM     24  C   UNL     1       4.382   3.686  17.079  0.00  0.00    +0.000 A 
ATOM     25  C   UNL     1       5.143   3.978  15.941  0.00  0.00    +0.000 A 
ATOM     26  C   UNL     1       6.359   4.660  16.037  0.00  0.00    +0.000 A 
ATOM     27  C   UNL     1       6.755   5.042  17.318  0.00  0.00    +0.000 A 
ATOM     28  N   UNL     1       7.859   5.718  17.774  0.00  0.00    +0.000 N 
ATOM     29  C   UNL     1       7.748   5.842  19.128  0.00  0.00    +0.000 A 
ATOM     30  N   UNL     1       6.657   5.270  19.580  0.00  0.00    +0.000 NA
ATOM     31  C   UNL     1       6.020   4.768  18.468  0.00  0.00    +0.000 A 
ATOM     32  H   UNL     1       8.615   6.069  17.205  0.00  0.00    +0.000 HD
ENDBRANCH  22  23
ENDBRANCH  20  22
ENDBRANCH  19  20
ENDBRANCH  18  19
ENDBRANCH   4  18
TORSDOF 8
ENDMDL
MODEL 3
REMARK VINA RESULT:      -7.6      3.580     10.407
REMARK  Name = 
REMARK  8 active torsions:
REMARK  status: ('A' for Active; 'I' for Inactive)
REMARK    1  A    between atoms: C_2  and  C_12
REMARK    2  A    between atoms: N_3  and  C_4
REMARK    3  A    between atoms: C_4  and  C_5
REMARK    4  A    between atoms: C_15  and  C_16
REMARK    5  A    between atoms: C_16  and  C_17
REMARK    6  A    between atoms: C_17  and  N_18
REMARK    7  A    between atoms: N_18  and  C_19
REMARK    8  A    between atoms: C_19  and  C_20
REMARK                            x       y       z     vdW  Elec       q    Type
REMARK                         _______ _______ _______ _____ _____    ______ ____
ROOT
ATOM      1  C   UNL     1       2.000   7.357  19.582  0.00  0.00    +0.000 A 
ATOM      2  C   UNL     1       1.811   8.480  18.797  0.00  0.00    +0.000 A 
ATOM      3  S   UNL     1       1.207   9.773  19.742  0.00  0.00    +0.000 S 
ATOM      4  C   UNL     1       1.236   8.757  21.130  0.00  0.00    +0.000 A 
ATOM      5  N   UNL     1       1.660   7.528  20.925  0.00  0.00    +0.000 NA
ENDROOT
BRANCH   1   7
ATOM      6  O   UNL     1       2.095   5.568  18.038  0.00  0.00    +0.000 OA
ATOM      7  C   UNL     1       2.514   6.084  19.072  0.00  0.00    +0.000 C 
ATOM      8  N   UNL     1       3.494   5.518  19.845  0.00  0.00    +0.000 N 
ATOM      9  H   UNL     1       3.750   5.952  20.728  0.00  0.00    +0.000 HD
BRANCH   8  10
ATOM     10  C   UNL     1       4.103   4.260  19.476  0.00  0.00    +0.000 C 
BRANCH  10  11
ATOM     11  C   UNL     1       5.267   4.408  18.529  0.00  0.00    +0.000 A 
ATOM     12  N   UNL     1       6.455   4.879  19.009  0.00  0.00    +0.000 NA
ATOM     13  C   UNL     1       7.471   5.000  18.124  0.00  0.00    +0.000 A 
ATOM     14  C   UNL     1       7.370   4.672  16.779  0.00  0.00    +0.000 A 
ATOM     15  C   UNL     1       6.154   4.189  16.307  0.00  0.00    +0.000 A 
ATOM     16  C   UNL     1       5.094   4.059  17.192  0.00  0.00    +0.000 A 
ATOM     17  F   UNL     1       3.917   3.595  16.750  0.00  0.00    +0.000 F 
ENDBRANCH  10  11
ENDBRANCH   8  10
ENDBRANCH   1   7
BRANCH   4  18
ATOM     18  C   UNL     1       0.799   9.281  22.462  0.00  0.00    +0.000 C 
BRANCH  18  19
ATOM     19  C   UNL     1      -0.579   9.944  22.367  0.00  0.00    +0.000 C 
BRANCH  19  20
ATOM     20  N   UNL     1      -0.560  11.266  23.008  0.00  0.00    +0.000 NA
ATOM     21  H   UNL     1       0.390  11.641  22.984  0.00  0.00    +0.000 HD
BRANCH  20  22
ATOM     22  C   UNL     1      -1.420  12.206  22.277  0.00  0.00    +0.000 C 
BRANCH  22  23
ATOM     23  C   UNL     1      -0.728  12.755  21.055  0.00  0.00    +0.000 A 
ATOM     24  C   UNL     1       0.398  13.598  21.181  0.00  0.00    +0.000 A 
ATOM     25  C   UNL     1       1.029  14.159  20.064  0.00  0.00    +0.000 A 
ATOM     26  C   UNL     1       0.571  13.907  18.769  0.00  0.00    +0.000 A 
ATOM     27  C   UNL     1      -0.529  13.058  18.656  0.00  0.00    +0.000 A 
ATOM     28  N   UNL     1      -1.222  12.594  17.567  0.00  0.00    +0.000 N 
ATOM     29  C   UNL     1      -2.214  11.772  18.016  0.00  0.00    +0.000 A 
ATOM     30  N   UNL     1      -2.222  11.693  19.326  0.00  0.00    +0.000 NA
ATOM     31  C   UNL     1      -1.177  12.483  19.746  0.00  0.00    +0.000 A 
ATOM     32  H   UNL     1      -1.026  12.816  16.601  0.00  0.00    +0.000 HD
ENDBRANCH  22  23
ENDBRANCH  20  22
ENDBRANCH  19  20
ENDBRANCH  18  19
ENDBRANCH   4  18
TORSDOF 8
ENDMDL
MODEL 4
REMARK VINA RESULT:      -7.6      3.216      3.859
REMARK  Name = 
REMARK  8 active torsions:
REMARK  status: ('A' for Active; 'I' for Inactive)
REMARK    1  A    between atoms: C_2  and  C_12
REMARK    2  A    between atoms: N_3  and  C_4
REMARK    3  A    between atoms: C_4  and  C_5
REMARK    4  A    between atoms: C_15  and  C_16
REMARK    5  A    between atoms: C_16  and  C_17
REMARK    6  A    between atoms: C_17  and  N_18
REMARK    7  A    between atoms: N_18  and  C_19
REMARK    8  A    between atoms: C_19  and  C_20
REMARK                            x       y       z     vdW  Elec       q    Type
REMARK                         _______ _______ _______ _____ _____    ______ ____
ROOT
ATOM      1  C   UNL     1       1.083   9.445  19.386  0.00  0.00    +0.000 A 
ATOM      2  C   UNL     1       1.118   8.821  20.620  0.00  0.00    +0.000 A 
ATOM      3  S   UNL     1       1.896   7.301  20.497  0.00  0.00    +0.000 S 
ATOM      4  C   UNL     1       2.134   7.571  18.815  0.00  0.00    +0.000 A 
ATOM      5  N   UNL     1       1.668   8.712  18.352  0.00  0.00    +0.000 NA
ENDROOT
BRANCH   1   7
ATOM      6  O   UNL     1       1.152  11.737  18.807  0.00  0.00    +0.000 OA
ATOM      7  C   UNL     1       0.489  10.764  19.158  0.00  0.00    +0.000 C 
ATOM      8  N   UNL     1      -0.863  10.822  19.375  0.00  0.00    +0.000 N 
ATOM      9  H   UNL     1      -1.349  10.005  19.735  0.00  0.00    +0.000 HD
BRANCH   8  10
ATOM     10  C   UNL     1      -1.596  12.054  19.194  0.00  0.00    +0.000 C 
BRANCH  10  11
ATOM     11  C   UNL     1      -2.977  11.857  18.620  0.00  0.00    +0.000 A 
ATOM     12  N   UNL     1      -4.063  12.144  19.396  0.00  0.00    +0.000 NA
ATOM     13  C   UNL     1      -5.282  11.947  18.843  0.00  0.00    +0.000 A 
ATOM     14  C   UNL     1      -5.481  11.482  17.550  0.00  0.00    +0.000 A 
ATOM     15  C   UNL     1      -4.364  11.199  16.772  0.00  0.00    +0.000 A 
ATOM     16  C   UNL     1      -3.101  11.387  17.315  0.00  0.00    +0.000 A 
ATOM     17  F   UNL     1      -2.016  11.118  16.576  0.00  0.00    +0.000 F 
ENDBRANCH  10  11
ENDBRANCH   8  10
ENDBRANCH   1   7
BRANCH   4  18
ATOM     18  C   UNL     1       2.833   6.549  17.974  0.00  0.00    +0.000 C 
BRANCH  18  19
ATOM     19  C   UNL     1       2.293   5.143  18.257  0.00  0.00    +0.000 C 
BRANCH  19  20
ATOM     20  N   UNL     1       2.955   4.155  17.395  0.00  0.00    +0.000 NA
ATOM     21  H   UNL     1       3.359   4.627  16.585  0.00  0.00    +0.000 HD
BRANCH  20  22
ATOM     22  C   UNL     1       4.056   3.499  18.113  0.00  0.00    +0.000 C 
BRANCH  22  23
ATOM     23  C   UNL     1       5.319   4.323  18.063  0.00  0.00    +0.000 A 
ATOM     24  C   UNL     1       5.882   4.852  19.245  0.00  0.00    +0.000 A 
ATOM     25  C   UNL     1       7.026   5.659  19.221  0.00  0.00    +0.000 A 
ATOM     26  C   UNL     1       7.664   5.977  18.020  0.00  0.00    +0.000 A 
ATOM     27  C   UNL     1       7.110   5.434  16.861  0.00  0.00    +0.000 A 
ATOM     28  N   UNL     1       7.471   5.525  15.541  0.00  0.00    +0.000 N 
ATOM     29  C   UNL     1       6.589   4.784  14.809  0.00  0.00    +0.000 A 
ATOM     30  N   UNL     1       5.668   4.238  15.569  0.00  0.00    +0.000 NA
ATOM     31  C   UNL     1       5.975   4.627  16.852  0.00  0.00    +0.000 A 
ATOM     32  H   UNL     1       8.257   6.044  15.176  0.00  0.00    +0.000 HD
ENDBRANCH  22  23
ENDBRANCH  20  22
ENDBRANCH  19  20
ENDBRANCH  18  19
ENDBRANCH   4  18
TORSDOF 8
ENDMDL
MODEL 5
REMARK VINA RESULT:      -7.5      4.014      5.149
REMARK  Name = 
REMARK  8 active torsions:
REMARK  status: ('A' for Active; 'I' for Inactive)
REMARK    1  A    between atoms: C_2  and  C_12
REMARK    2  A    between atoms: N_3  and  C_4
REMARK    3  A    between atoms: C_4  and  C_5
REMARK    4  A    between atoms: C_15  and  C_16
REMARK    5  A    between atoms: C_16  and  C_17
REMARK    6  A    between atoms: C_17  and  N_18
REMARK    7  A    between atoms: N_18  and  C_19
REMARK    8  A    between atoms: C_19  and  C_20
REMARK                            x       y       z     vdW  Elec       q    Type
REMARK                         _______ _______ _______ _____ _____    ______ ____
ROOT
ATOM      1  C   UNL     1       1.884   5.978  19.921  0.00  0.00    +0.000 A 
ATOM      2  C   UNL     1       1.990   5.349  21.149  0.00  0.00    +0.000 A 
ATOM      3  S   UNL     1       1.847   3.654  20.965  0.00  0.00    +0.000 S 
ATOM      4  C   UNL     1       1.654   3.865  19.269  0.00  0.00    +0.000 A 
ATOM      5  N   UNL     1       1.687   5.111  18.845  0.00  0.00    +0.000 NA
ENDROOT
BRANCH   1   7
ATOM      6  O   UNL     1       1.941   8.216  20.682  0.00  0.00    +0.000 OA
ATOM      7  C   UNL     1       1.972   7.428  19.740  0.00  0.00    +0.000 C 
ATOM      8  N   UNL     1       2.085   7.830  18.434  0.00  0.00    +0.000 N 
ATOM      9  H   UNL     1       2.031   7.139  17.691  0.00  0.00    +0.000 HD
BRANCH   8  10
ATOM     10  C   UNL     1       2.181   9.230  18.090  0.00  0.00    +0.000 C 
BRANCH  10  11
ATOM     11  C   UNL     1       0.870   9.969  18.191  0.00  0.00    +0.000 A 
ATOM     12  N   UNL     1      -0.248   9.410  17.641  0.00  0.00    +0.000 NA
ATOM     13  C   UNL     1      -1.401  10.110  17.751  0.00  0.00    +0.000 A 
ATOM     14  C   UNL     1      -1.504  11.340  18.386  0.00  0.00    +0.000 A 
ATOM     15  C   UNL     1      -0.356  11.893  18.944  0.00  0.00    +0.000 A 
ATOM     16  C   UNL     1       0.841  11.198  18.843  0.00  0.00    +0.000 A 
ATOM     17  F   UNL     1       1.954  11.720  19.376  0.00  0.00    +0.000 F 
ENDBRANCH  10  11
ENDBRANCH   8  10
ENDBRANCH   1   7
BRANCH   4  18
ATOM     18  C   UNL     1       1.467   2.681  18.373  0.00  0.00    +0.000 C 
BRANCH  18  19
ATOM     19  C   UNL     1       2.817   2.077  17.971  0.00  0.00    +0.000 C 
BRANCH  19  20
ATOM     20  N   UNL     1       3.741   3.129  17.528  0.00  0.00    +0.000 NA
ATOM     21  H   UNL     1       3.245   4.021  17.489  0.00  0.00    +0.000 HD
BRANCH  20  22
ATOM     22  C   UNL     1       4.845   3.282  18.483  0.00  0.00    +0.000 C 
BRANCH  22  23
ATOM     23  C   UNL     1       5.799   4.371  18.058  0.00  0.00    +0.000 A 
ATOM     24  C   UNL     1       6.282   5.312  18.993  0.00  0.00    +0.000 A 
ATOM     25  C   UNL     1       7.130   6.361  18.616  0.00  0.00    +0.000 A 
ATOM     26  C   UNL     1       7.537   6.522  17.289  0.00  0.00    +0.000 A 
ATOM     27  C   UNL     1       7.069   5.576  16.378  0.00  0.00    +0.000 A 
ATOM     28  N   UNL     1       7.270   5.422  15.030  0.00  0.00    +0.000 N 
ATOM     29  C   UNL     1       6.586   4.313  14.625  0.00  0.00    +0.000 A 
ATOM     30  N   UNL     1       5.937   3.753  15.619  0.00  0.00    +0.000 NA
ATOM     31  C   UNL     1       6.227   4.521  16.723  0.00  0.00    +0.000 A 
ATOM     32  H   UNL     1       7.832   6.020  14.443  0.00  0.00    +0.000 HD
ENDBRANCH  22  23
ENDBRANCH  20  22
ENDBRANCH  19  20
ENDBRANCH  18  19
ENDBRANCH   4  18
TORSDOF 8
ENDMDL
MODEL 6
REMARK VINA RESULT:      -7.5      5.039     10.744
REMARK  Name = 
REMARK  8 active torsions:
REMARK  status: ('A' for Active; 'I' for Inactive)
REMARK    1  A    between atoms: C_2  and  C_12
REMARK    2  A    between atoms: N_3  and  C_4
REMARK    3  A    between atoms: C_4  and  C_5
REMARK    4  A    between atoms: C_15  and  C_16
REMARK    5  A    between atoms: C_16  and  C_17
REMARK    6  A    between atoms: C_17  and  N_18
REMARK    7  A    between atoms: N_18  and  C_19
REMARK    8  A    between atoms: C_19  and  C_20
REMARK                            x       y       z     vdW  Elec       q    Type
REMARK                         _______ _______ _______ _____ _____    ______ ____
ROOT
ATOM      1  C   UNL     1       4.350   3.459  18.306  0.00  0.00    +0.000 A 
ATOM      2  C   UNL     1       3.543   2.801  17.395  0.00  0.00    +0.000 A 
ATOM      3  S   UNL     1       2.180   2.131  18.183  0.00  0.00    +0.000 S 
ATOM      4  C   UNL     1       2.750   2.757  19.680  0.00  0.00    +0.000 A 
ATOM      5  N   UNL     1       3.884   3.423  19.622  0.00  0.00    +0.000 NA
ENDROOT
BRANCH   1   7
ATOM      6  O   UNL     1       6.279   4.748  18.767  0.00  0.00    +0.000 OA
ATOM      7  C   UNL     1       5.592   4.145  17.945  0.00  0.00    +0.000 C 
ATOM      8  N   UNL     1       5.920   4.063  16.616  0.00  0.00    +0.000 N 
ATOM      9  H   UNL     1       5.277   3.615  15.969  0.00  0.00    +0.000 HD
BRANCH   8  10
ATOM     10  C   UNL     1       7.116   4.690  16.102  0.00  0.00    +0.000 C 
BRANCH  10  11
ATOM     11  C   UNL     1       7.190   4.705  14.595  0.00  0.00    +0.000 A 
ATOM     12  N   UNL     1       8.067   5.555  13.985  0.00  0.00    +0.000 NA
ATOM     13  C   UNL     1       8.096   5.540  12.632  0.00  0.00    +0.000 A 
ATOM     14  C   UNL     1       7.299   4.716  11.849  0.00  0.00    +0.000 A 
ATOM     15  C   UNL     1       6.414   3.853  12.487  0.00  0.00    +0.000 A 
ATOM     16  C   UNL     1       6.360   3.851  13.874  0.00  0.00    +0.000 A 
ATOM     17  F   UNL     1       5.512   3.025  14.501  0.00  0.00    +0.000 F 
ENDBRANCH  10  11
ENDBRANCH   8  10
ENDBRANCH   1   7
BRANCH   4  18
ATOM     18  C   UNL     1       1.973   2.537  20.940  0.00  0.00    +0.000 C 
BRANCH  18  19
ATOM     19  C   UNL     1       1.566   3.871  21.576  0.00  0.00    +0.000 C 
BRANCH  19  20
ATOM     20  N   UNL     1       1.432   4.911  20.548  0.00  0.00    +0.000 NA
ATOM     21  H   UNL     1       0.442   5.061  20.344  0.00  0.00    +0.000 HD
BRANCH  20  22
ATOM     22  C   UNL     1       1.977   6.187  21.031  0.00  0.00    +0.000 C 
BRANCH  22  23
ATOM     23  C   UNL     1       1.929   7.250  19.962  0.00  0.00    +0.000 A 
ATOM     24  C   UNL     1       2.557   7.047  18.713  0.00  0.00    +0.000 A 
ATOM     25  C   UNL     1       2.568   8.036  17.722  0.00  0.00    +0.000 A 
ATOM     26  C   UNL     1       1.953   9.274  17.927  0.00  0.00    +0.000 A 
ATOM     27  C   UNL     1       1.320   9.456  19.155  0.00  0.00    +0.000 A 
ATOM     28  N   UNL     1       0.624  10.514  19.682  0.00  0.00    +0.000 N 
ATOM     29  C   UNL     1       0.197  10.162  20.928  0.00  0.00    +0.000 A 
ATOM     30  N   UNL     1       0.592   8.952  21.252  0.00  0.00    +0.000 NA
ATOM     31  C   UNL     1       1.290   8.492  20.160  0.00  0.00    +0.000 A 
ATOM     32  H   UNL     1       0.451  11.397  19.222  0.00  0.00    +0.000 HD
ENDBRANCH  22  23
ENDBRANCH  20  22
ENDBRANCH  19  20
ENDBRANCH  18  19
ENDBRANCH   4  18
TORSDOF 8
ENDMDL
MODEL 7
REMARK VINA RESULT:      -7.4      2.131      2.786
REMARK  Name = 
REMARK  8 active torsions:
REMARK  status: ('A' for Active; 'I' for Inactive)
REMARK    1  A    between atoms: C_2  and  C_12
REMARK    2  A    between atoms: N_3  and  C_4
REMARK    3  A    between atoms: C_4  and  C_5
REMARK    4  A    between atoms: C_15  and  C_16
REMARK    5  A    between atoms: C_16  and  C_17
REMARK    6  A    between atoms: C_17  and  N_18
REMARK    7  A    between atoms: N_18  and  C_19
REMARK    8  A    between atoms: C_19  and  C_20
REMARK                            x       y       z     vdW  Elec       q    Type
REMARK                         _______ _______ _______ _____ _____    ______ ____
ROOT
ATOM      1  C   UNL     1       1.557   9.189  19.009  0.00  0.00    +0.000 A 
ATOM      2  C   UNL     1       2.260   8.863  17.863  0.00  0.00    +0.000 A 
ATOM      3  S   UNL     1       2.915   7.287  17.996  0.00  0.00    +0.000 S 
ATOM      4  C   UNL     1       2.223   7.142  19.563  0.00  0.00    +0.000 A 
ATOM      5  N   UNL     1       1.546   8.190  19.984  0.00  0.00    +0.000 NA
ENDROOT
BRANCH   1   7
ATOM      6  O   UNL     1       0.017  10.887  18.428  0.00  0.00    +0.000 OA
ATOM      7  C   UNL     1       0.871  10.468  19.205  0.00  0.00    +0.000 C 
ATOM      8  N   UNL     1       1.265  11.157  20.323  0.00  0.00    +0.000 N 
ATOM      9  H   UNL     1       2.028  10.798  20.890  0.00  0.00    +0.000 HD
BRANCH   8  10
ATOM     10  C   UNL     1       0.682  12.437  20.655  0.00  0.00    +0.000 C 
BRANCH  10  11
ATOM     11  C   UNL     1      -0.560  12.333  21.504  0.00  0.00    +0.000 A 
ATOM     12  N   UNL     1      -0.514  11.604  22.657  0.00  0.00    +0.000 NA
ATOM     13  C   UNL     1      -1.653  11.532  23.385  0.00  0.00    +0.000 A 
ATOM     14  C   UNL     1      -2.841  12.155  23.027  0.00  0.00    +0.000 A 
ATOM     15  C   UNL     1      -2.870  12.898  21.851  0.00  0.00    +0.000 A 
ATOM     16  C   UNL     1      -1.717  12.984  21.083  0.00  0.00    +0.000 A 
ATOM     17  F   UNL     1      -1.731  13.696  19.948  0.00  0.00    +0.000 F 
ENDBRANCH  10  11
ENDBRANCH   8  10
ENDBRANCH   1   7
BRANCH   4  18
ATOM     18  C   UNL     1       2.402   5.887  20.359  0.00  0.00    +0.000 C 
BRANCH  18  19
ATOM     19  C   UNL     1       2.433   4.657  19.446  0.00  0.00    +0.000 C 
BRANCH  19  20
ATOM     20  N   UNL     1       3.603   3.822  19.746  0.00  0.00    +0.000 NA
ATOM     21  H   UNL     1       3.339   3.094  20.413  0.00  0.00    +0.000 HD
BRANCH  20  22
ATOM     22  C   UNL     1       4.083   3.150  18.532  0.00  0.00    +0.000 C 
BRANCH  22  23
ATOM     23  C   UNL     1       4.953   4.060  17.702  0.00  0.00    +0.000 A 
ATOM     24  C   UNL     1       4.754   4.176  16.309  0.00  0.00    +0.000 A 
ATOM     25  C   UNL     1       5.577   4.977  15.508  0.00  0.00    +0.000 A 
ATOM     26  C   UNL     1       6.638   5.702  16.057  0.00  0.00    +0.000 A 
ATOM     27  C   UNL     1       6.814   5.595  17.436  0.00  0.00    +0.000 A 
ATOM     28  N   UNL     1       7.724   6.161  18.293  0.00  0.00    +0.000 N 
ATOM     29  C   UNL     1       7.441   5.730  19.556  0.00  0.00    +0.000 A 
ATOM     30  N   UNL     1       6.420   4.905  19.569  0.00  0.00    +0.000 NA
ATOM     31  C   UNL     1       6.011   4.809  18.259  0.00  0.00    +0.000 A 
ATOM     32  H   UNL     1       8.469   6.792  18.033  0.00  0.00    +0.000 HD
ENDBRANCH  22  23
ENDBRANCH  20  22
ENDBRANCH  19  20
ENDBRANCH  18  19
ENDBRANCH   4  18
TORSDOF 8
ENDMDL
MODEL 8
REMARK VINA RESULT:      -7.4      3.664      4.841
REMARK  Name = 
REMARK  8 active torsions:
REMARK  status: ('A' for Active; 'I' for Inactive)
REMARK    1  A    between atoms: C_2  and  C_12
REMARK    2  A    between atoms: N_3  and  C_4
REMARK    3  A    between atoms: C_4  and  C_5
REMARK    4  A    between atoms: C_15  and  C_16
REMARK    5  A    between atoms: C_16  and  C_17
REMARK    6  A    between atoms: C_17  and  N_18
REMARK    7  A    between atoms: N_18  and  C_19
REMARK    8  A    between atoms: C_19  and  C_20
REMARK                            x       y       z     vdW  Elec       q    Type
REMARK                         _______ _______ _______ _____ _____    ______ ____
ROOT
ATOM      1  C   UNL     1       2.266   6.111  19.123  0.00  0.00    +0.000 A 
ATOM      2  C   UNL     1       2.209   5.962  20.498  0.00  0.00    +0.000 A 
ATOM      3  S   UNL     1       1.908   4.328  20.908  0.00  0.00    +0.000 S 
ATOM      4  C   UNL     1       1.873   3.926  19.236  0.00  0.00    +0.000 A 
ATOM      5  N   UNL     1       2.066   4.930  18.407  0.00  0.00    +0.000 NA
ENDROOT
BRANCH   1   7
ATOM      6  O   UNL     1       3.489   7.576  17.726  0.00  0.00    +0.000 OA
ATOM      7  C   UNL     1       2.516   7.388  18.453  0.00  0.00    +0.000 C 
ATOM      8  N   UNL     1       1.579   8.356  18.709  0.00  0.00    +0.000 N 
ATOM      9  H   UNL     1       0.835   8.169  19.376  0.00  0.00    +0.000 HD
BRANCH   8  10
ATOM     10  C   UNL     1       1.685   9.672  18.122  0.00  0.00    +0.000 C 
BRANCH  10  11
ATOM     11  C   UNL     1       0.702  10.667  18.688  0.00  0.00    +0.000 A 
ATOM     12  N   UNL     1       1.143  11.590  19.592  0.00  0.00    +0.000 NA
ATOM     13  C   UNL     1       0.226  12.460  20.077  0.00  0.00    +0.000 A 
ATOM     14  C   UNL     1      -1.111  12.463  19.706  0.00  0.00    +0.000 A 
ATOM     15  C   UNL     1      -1.542  11.518  18.781  0.00  0.00    +0.000 A 
ATOM     16  C   UNL     1      -0.624  10.611  18.270  0.00  0.00    +0.000 A 
ATOM     17  F   UNL     1      -1.027   9.696  17.379  0.00  0.00    +0.000 F 
ENDBRANCH  10  11
ENDBRANCH   8  10
ENDBRANCH   1   7
BRANCH   4  18
ATOM     18  C   UNL     1       1.637   2.513  18.801  0.00  0.00    +0.000 C 
BRANCH  18  19
ATOM     19  C   UNL     1       2.926   1.880  18.266  0.00  0.00    +0.000 C 
BRANCH  19  20
ATOM     20  N   UNL     1       4.058   2.802  18.428  0.00  0.00    +0.000 NA
ATOM     21  H   UNL     1       4.644   2.486  19.203  0.00  0.00    +0.000 HD
BRANCH  20  22
ATOM     22  C   UNL     1       4.894   2.809  17.221  0.00  0.00    +0.000 C 
BRANCH  22  23
ATOM     23  C   UNL     1       5.377   4.199  16.890  0.00  0.00    +0.000 A 
ATOM     24  C   UNL     1       4.991   4.829  15.686  0.00  0.00    +0.000 A 
ATOM     25  C   UNL     1       5.463   6.099  15.333  0.00  0.00    +0.000 A 
ATOM     26  C   UNL     1       6.340   6.803  16.162  0.00  0.00    +0.000 A 
ATOM     27  C   UNL     1       6.699   6.180  17.356  0.00  0.00    +0.000 A 
ATOM     28  N   UNL     1       7.513   6.572  18.388  0.00  0.00    +0.000 N 
ATOM     29  C   UNL     1       7.509   5.584  19.329  0.00  0.00    +0.000 A 
ATOM     30  N   UNL     1       6.764   4.568  18.961  0.00  0.00    +0.000 NA
ATOM     31  C   UNL     1       6.246   4.919  17.736  0.00  0.00    +0.000 A 
ATOM     32  H   UNL     1       8.019   7.444  18.444  0.00  0.00    +0.000 HD
ENDBRANCH  22  23
ENDBRANCH  20  22
ENDBRANCH  19  20
ENDBRANCH  18  19
ENDBRANCH   4  18
TORSDOF 8
ENDMDL
MODEL 9
REMARK VINA RESULT:      -7.4      4.804     11.056
REMARK  Name = 
REMARK  8 active torsions:
REMARK  status: ('A' for Active; 'I' for Inactive)
REMARK    1  A    between atoms: C_2  and  C_12
REMARK    2  A    between atoms: N_3  and  C_4
REMARK    3  A    between atoms: C_4  and  C_5
REMARK    4  A    between atoms: C_15  and  C_16
REMARK    5  A    between atoms: C_16  and  C_17
REMARK    6  A    between atoms: C_17  and  N_18
REMARK    7  A    between atoms: N_18  and  C_19
REMARK    8  A    between atoms: C_19  and  C_20
REMARK                            x       y       z     vdW  Elec       q    Type
REMARK                         _______ _______ _______ _____ _____    ______ ____
ROOT
ATOM      1  C   UNL     1       4.215   4.838  18.592  0.00  0.00    +0.000 A 
ATOM      2  C   UNL     1       3.220   3.967  18.186  0.00  0.00    +0.000 A 
ATOM      3  S   UNL     1       1.730   4.381  18.919  0.00  0.00    +0.000 S 
ATOM      4  C   UNL     1       2.503   5.687  19.727  0.00  0.00    +0.000 A 
ATOM      5  N   UNL     1       3.789   5.824  19.485  0.00  0.00    +0.000 NA
ENDROOT
BRANCH   1   7
ATOM      6  O   UNL     1       6.517   4.367  18.861  0.00  0.00    +0.000 OA
ATOM      7  C   UNL     1       5.604   4.756  18.137  0.00  0.00    +0.000 C 
ATOM      8  N   UNL     1       5.800   5.153  16.839  0.00  0.00    +0.000 N 
ATOM      9  H   UNL     1       5.021   5.535  16.309  0.00  0.00    +0.000 HD
BRANCH   8  10
ATOM     10  C   UNL     1       7.115   5.131  16.242  0.00  0.00    +0.000 C 
BRANCH  10  11
ATOM     11  C   UNL     1       7.102   4.831  14.763  0.00  0.00    +0.000 A 
ATOM     12  N   UNL     1       7.936   5.531  13.940  0.00  0.00    +0.000 NA
ATOM     13  C   UNL     1       7.888   5.233  12.620  0.00  0.00    +0.000 A 
ATOM     14  C   UNL     1       7.054   4.267  12.074  0.00  0.00    +0.000 A 
ATOM     15  C   UNL     1       6.214   3.560  12.928  0.00  0.00    +0.000 A 
ATOM     16  C   UNL     1       6.240   3.848  14.286  0.00  0.00    +0.000 A 
ATOM     17  F   UNL     1       5.436   3.174  15.120  0.00  0.00    +0.000 F 
ENDBRANCH  10  11
ENDBRANCH   8  10
ENDBRANCH   1   7
BRANCH   4  18
ATOM     18  C   UNL     1       1.722   6.586  20.634  0.00  0.00    +0.000 C 
BRANCH  18  19
ATOM     19  C   UNL     1       1.754   8.034  20.135  0.00  0.00    +0.000 C 
BRANCH  19  20
ATOM     20  N   UNL     1       1.916   8.073  18.676  0.00  0.00    +0.000 NA
ATOM     21  H   UNL     1       1.084   7.678  18.232  0.00  0.00    +0.000 HD
BRANCH  20  22
ATOM     22  C   UNL     1       2.046   9.458  18.207  0.00  0.00    +0.000 C 
BRANCH  22  23
ATOM     23  C   UNL     1       0.739  10.204  18.314  0.00  0.00    +0.000 A 
ATOM     24  C   UNL     1      -0.448   9.662  17.773  0.00  0.00    +0.000 A 
ATOM     25  C   UNL     1      -1.664  10.355  17.816  0.00  0.00    +0.000 A 
ATOM     26  C   UNL     1      -1.756  11.620  18.401  0.00  0.00    +0.000 A 
ATOM     27  C   UNL     1      -0.583  12.138  18.948  0.00  0.00    +0.000 A 
ATOM     28  N   UNL     1      -0.313  13.318  19.594  0.00  0.00    +0.000 N 
ATOM     29  C   UNL     1       1.007  13.318  19.940  0.00  0.00    +0.000 A 
ATOM     30  N   UNL     1       1.613  12.225  19.540  0.00  0.00    +0.000 NA
ATOM     31  C   UNL     1       0.641  11.473  18.922  0.00  0.00    +0.000 A 
ATOM     32  H   UNL     1      -0.978  14.053  19.786  0.00  0.00    +0.000 HD
ENDBRANCH  22  23
ENDBRANCH  20  22
ENDBRANCH  19  20
ENDBRANCH  18  19
ENDBRANCH   4  18
TORSDOF 8
ENDMDL
