MODEL 1
REMARK VINA RESULT:      -7.0      0.000      0.000
REMARK  Name = 
REMARK  6 active torsions:
REMARK  status: ('A' for Active; 'I' for Inactive)
REMARK    1  A    between atoms: C_1  and  N_2
REMARK    2  A    between atoms: C_7  and  C_8
REMARK    3  A    between atoms: C_8  and  O_9
REMARK    4  A    between atoms: O_9  and  C_10
REMARK    5  A    between atoms: C_10  and  C_11
REMARK    6  A    between atoms: C_19  and  C_21
REMARK                            x       y       z     vdW  Elec       q    Type
REMARK                         _______ _______ _______ _____ _____    ______ ____
ROOT
ATOM      1  C   UNL     1       1.127   2.661  21.338  0.00  0.00    +0.000 C 
ATOM      2  N   UNL     1       1.516   2.844  19.966  0.00  0.00    +0.000 N 
ATOM      3  N   UNL     1       1.059   1.966  19.045  0.00  0.00    +0.000 NA
ATOM      4  N   UNL     1       1.617   2.260  17.878  0.00  0.00    +0.000 NA
ATOM      5  C   UNL     1       2.418   3.347  18.068  0.00  0.00    +0.000 A 
ATOM      6  C   UNL     1       2.330   3.772  19.380  0.00  0.00    +0.000 A 
ATOM      7  C   UNL     1       3.106   4.937  19.930  0.00  0.00    +0.000 C 
ATOM      8  C   UNL     1       3.624   5.760  18.699  0.00  0.00    +0.000 C 
ATOM      9  N   UNL     1       4.212   4.895  17.652  0.00  0.00    +0.000 N 
ATOM     10  C   UNL     1       5.445   5.049  17.008  0.00  0.00    +0.000 C 
ATOM     11  O   UNL     1       5.724   4.357  16.028  0.00  0.00    +0.000 OA
ATOM     12  C   UNL     1       3.251   3.966  17.014  0.00  0.00    +0.000 C 
ENDROOT
BRANCH  10  13
ATOM     13  C   UNL     1       6.403   6.071  17.441  0.00  0.00    +0.000 A 
ATOM     14  C   UNL     1       7.366   5.833  18.495  0.00  0.00    +0.000 A 
ATOM     15  C   UNL     1       8.205   6.900  18.720  0.00  0.00    +0.000 A 
ATOM     16  S   UNL     1       7.818   8.227  17.721  0.00  0.00    +0.000 S 
ATOM     17  C   UNL     1       6.487   7.392  17.040  0.00  0.00    +0.000 A 
ENDBRANCH  10  13
BRANCH   7  18
ATOM     18  C   UNL     1       2.303   5.889  20.826  0.00  0.00    +0.000 C 
BRANCH  18  19
ATOM     19  O   UNL     1       2.043   7.113  20.147  0.00  0.00    +0.000 OA
BRANCH  19  20
ATOM     20  C   UNL     1       1.483   8.102  21.019  0.00  0.00    +0.000 C 
BRANCH  20  21
ATOM     21  C   UNL     1       0.995   9.285  20.215  0.00  0.00    +0.000 A 
ATOM     22  C   UNL     1       1.210   9.336  18.839  0.00  0.00    +0.000 A 
ATOM     23  C   UNL     1       0.726  10.426  18.120  0.00  0.00    +0.000 A 
ATOM     24  C   UNL     1       0.046  11.435  18.789  0.00  0.00    +0.000 A 
ATOM     25  C   UNL     1      -0.117  11.317  20.159  0.00  0.00    +0.000 A 
ATOM     26  N   UNL     1       0.339  10.268  20.883  0.00  0.00    +0.000 NA
ENDBRANCH  20  21
ENDBRANCH  19  20
ENDBRANCH  18  19
ENDBRANCH   7  18
TORSDOF 5
ENDMDL
MODEL 2
REMARK VINA RESULT:      -7.0      1.369      1.911
REMARK  Name = 
REMARK  6 active torsions:
REMARK  status: ('A' for Active; 'I' for Inactive)
REMARK    1  A    between atoms: C_1  and  N_2
REMARK    2  A    between atoms: C_7  and  C_8
REMARK    3  A    between atoms: C_8  and  O_9
REMARK    4  A    between atoms: O_9  and  C_10
REMARK    5  A    between atoms: C_10  and  C_11
REMARK    6  A    between atoms: C_19  and  C_21
REMARK                            x       y       z     vdW  Elec       q    Type
REMARK                         _______ _______ _______ _____ _____    ______ ____
ROOT
ATOM      1  C   UNL     1       1.006   3.692  19.946  0.00  0.00    +0.000 C 
ATOM      2  N   UNL     1       2.044   3.442  18.984  0.00  0.00    +0.000 N 
ATOM      3  N   UNL     1       2.166   2.194  18.478  0.00  0.00    +0.000 NA
ATOM      4  N   UNL     1       3.238   2.165  17.697  0.00  0.00    +0.000 NA
ATOM      5  C   UNL     1       3.780   3.416  17.699  0.00  0.00    +0.000 A 
ATOM      6  C   UNL     1       3.008   4.263  18.470  0.00  0.00    +0.000 A 
ATOM      7  C   UNL     1       3.340   5.711  18.701  0.00  0.00    +0.000 C 
ATOM      8  C   UNL     1       4.390   6.117  17.609  0.00  0.00    +0.000 C 
ATOM      9  N   UNL     1       5.469   5.114  17.467  0.00  0.00    +0.000 N 
ATOM     10  C   UNL     1       6.850   5.340  17.452  0.00  0.00    +0.000 C 
ATOM     11  O   UNL     1       7.624   4.432  17.144  0.00  0.00    +0.000 OA
ATOM     12  C   UNL     1       5.015   3.792  16.976  0.00  0.00    +0.000 C 
ENDROOT
BRANCH  10  13
ATOM     13  C   UNL     1       7.404   6.666  17.740  0.00  0.00    +0.000 A 
ATOM     14  C   UNL     1       8.250   6.919  18.886  0.00  0.00    +0.000 A 
ATOM     15  C   UNL     1       8.705   8.217  18.955  0.00  0.00    +0.000 A 
ATOM     16  S   UNL     1       8.079   9.170  17.687  0.00  0.00    +0.000 S 
ATOM     17  C   UNL     1       7.149   7.861  17.092  0.00  0.00    +0.000 A 
ENDBRANCH  10  13
BRANCH   7  18
ATOM     18  C   UNL     1       2.152   6.677  18.591  0.00  0.00    +0.000 C 
BRANCH  18  19
ATOM     19  O   UNL     1       2.101   7.537  19.723  0.00  0.00    +0.000 OA
BRANCH  19  20
ATOM     20  C   UNL     1       1.624   8.845  19.382  0.00  0.00    +0.000 C 
BRANCH  20  21
ATOM     21  C   UNL     1       0.833   9.424  20.534  0.00  0.00    +0.000 A 
ATOM     22  C   UNL     1       0.357   8.594  21.547  0.00  0.00    +0.000 A 
ATOM     23  C   UNL     1      -0.345   9.159  22.608  0.00  0.00    +0.000 A 
ATOM     24  C   UNL     1      -0.558  10.531  22.630  0.00  0.00    +0.000 A 
ATOM     25  C   UNL     1      -0.063  11.286  21.580  0.00  0.00    +0.000 A 
ATOM     26  N   UNL     1       0.626  10.765  20.538  0.00  0.00    +0.000 NA
ENDBRANCH  20  21
ENDBRANCH  19  20
ENDBRANCH  18  19
ENDBRANCH   7  18
TORSDOF 5
ENDMDL
MODEL 3
REMARK VINA RESULT:      -6.8      3.081      6.759
REMARK  Name = 
REMARK  6 active torsions:
REMARK  status: ('A' for Active; 'I' for Inactive)
REMARK    1  A    between atoms: C_1  and  N_2
REMARK    2  A    between atoms: C_7  and  C_8
REMARK    3  A    between atoms: C_8  and  O_9
REMARK    4  A    between atoms: O_9  and  C_10
REMARK    5  A    between atoms: C_10  and  C_11
REMARK    6  A    between atoms: C_19  and  C_21
REMARK                            x       y       z     vdW  Elec       q    Type
REMARK                         _______ _______ _______ _____ _____    ______ ____
ROOT
ATOM      1  C   UNL     1       5.328   4.756  19.393  0.00  0.00    +0.000 C 
ATOM      2  N   UNL     1       4.508   5.722  18.715  0.00  0.00    +0.000 N 
ATOM      3  N   UNL     1       4.845   6.081  17.455  0.00  0.00    +0.000 NA
ATOM      4  N   UNL     1       4.024   7.047  17.065  0.00  0.00    +0.000 NA
ATOM      5  C   UNL     1       3.150   7.279  18.085  0.00  0.00    +0.000 A 
ATOM      6  C   UNL     1       3.403   6.411  19.129  0.00  0.00    +0.000 A 
ATOM      7  C   UNL     1       2.633   6.416  20.421  0.00  0.00    +0.000 C 
ATOM      8  C   UNL     1       1.315   7.227  20.161  0.00  0.00    +0.000 C 
ATOM      9  N   UNL     1       1.569   8.491  19.434  0.00  0.00    +0.000 N 
ATOM     10  C   UNL     1       1.111   9.773  19.761  0.00  0.00    +0.000 C 
ATOM     11  O   UNL     1       1.248  10.703  18.965  0.00  0.00    +0.000 OA
ATOM     12  C   UNL     1       2.092   8.313  18.060  0.00  0.00    +0.000 C 
ENDROOT
BRANCH  10  13
ATOM     13  C   UNL     1       0.407  10.027  21.022  0.00  0.00    +0.000 A 
ATOM     14  C   UNL     1       0.654   9.246  22.216  0.00  0.00    +0.000 A 
ATOM     15  C   UNL     1      -0.072   9.671  23.306  0.00  0.00    +0.000 A 
ATOM     16  S   UNL     1      -1.106  10.968  22.908  0.00  0.00    +0.000 S 
ATOM     17  C   UNL     1      -0.628  10.911  21.264  0.00  0.00    +0.000 A 
ENDBRANCH  10  13
BRANCH   7  18
ATOM     18  C   UNL     1       2.233   5.030  20.946  0.00  0.00    +0.000 C 
BRANCH  18  19
ATOM     19  O   UNL     1       0.902   4.712  20.554  0.00  0.00    +0.000 OA
BRANCH  19  20
ATOM     20  C   UNL     1       0.750   3.321  20.249  0.00  0.00    +0.000 C 
BRANCH  20  21
ATOM     21  C   UNL     1       1.741   2.914  19.182  0.00  0.00    +0.000 A 
ATOM     22  C   UNL     1       1.738   3.549  17.942  0.00  0.00    +0.000 A 
ATOM     23  C   UNL     1       2.679   3.171  16.988  0.00  0.00    +0.000 A 
ATOM     24  C   UNL     1       3.593   2.170  17.292  0.00  0.00    +0.000 A 
ATOM     25  C   UNL     1       3.523   1.579  18.542  0.00  0.00    +0.000 A 
ATOM     26  N   UNL     1       2.623   1.928  19.490  0.00  0.00    +0.000 NA
ENDBRANCH  20  21
ENDBRANCH  19  20
ENDBRANCH  18  19
ENDBRANCH   7  18
TORSDOF 5
ENDMDL
MODEL 4
REMARK VINA RESULT:      -6.7      7.009     10.618
REMARK  Name = 
REMARK  6 active torsions:
REMARK  status: ('A' for Active; 'I' for Inactive)
REMARK    1  A    between atoms: C_1  and  N_2
REMARK    2  A    between atoms: C_7  and  C_8
REMARK    3  A    between atoms: C_8  and  O_9
REMARK    4  A    between atoms: O_9  and  C_10
REMARK    5  A    between atoms: C_10  and  C_11
REMARK    6  A    between atoms: C_19  and  C_21
REMARK                            x       y       z     vdW  Elec       q    Type
REMARK                         _______ _______ _______ _____ _____    ______ ____
ROOT
ATOM      1  C   UNL     1      -4.630  12.687  24.904  0.00  0.00    +0.000 C 
ATOM      2  N   UNL     1      -5.534  12.671  23.786  0.00  0.00    +0.000 N 
ATOM      3  N   UNL     1      -6.864  12.680  24.033  0.00  0.00    +0.000 NA
ATOM      4  N   UNL     1      -7.502  12.559  22.877  0.00  0.00    +0.000 NA
ATOM      5  C   UNL     1      -6.560  12.495  21.893  0.00  0.00    +0.000 A 
ATOM      6  C   UNL     1      -5.298  12.617  22.441  0.00  0.00    +0.000 A 
ATOM      7  C   UNL     1      -4.032  12.564  21.632  0.00  0.00    +0.000 C 
ATOM      8  C   UNL     1      -4.440  12.784  20.134  0.00  0.00    +0.000 C 
ATOM      9  N   UNL     1      -5.612  11.968  19.745  0.00  0.00    +0.000 N 
ATOM     10  C   UNL     1      -5.747  11.146  18.621  0.00  0.00    +0.000 C 
ATOM     11  O   UNL     1      -6.845  10.670  18.329  0.00  0.00    +0.000 OA
ATOM     12  C   UNL     1      -6.864  12.318  20.456  0.00  0.00    +0.000 C 
ENDROOT
BRANCH  10  13
ATOM     13  C   UNL     1      -4.609  10.881  17.735  0.00  0.00    +0.000 A 
ATOM     14  C   UNL     1      -4.468  11.522  16.445  0.00  0.00    +0.000 A 
ATOM     15  C   UNL     1      -3.309  11.176  15.787  0.00  0.00    +0.000 A 
ATOM     16  S   UNL     1      -2.401  10.034  16.670  0.00  0.00    +0.000 S 
ATOM     17  C   UNL     1      -3.595   9.956  17.895  0.00  0.00    +0.000 A 
ENDBRANCH  10  13
BRANCH   7  18
ATOM     18  C   UNL     1      -2.984  13.626  21.993  0.00  0.00    +0.000 C 
BRANCH  18  19
ATOM     19  O   UNL     1      -2.020  13.090  22.893  0.00  0.00    +0.000 OA
BRANCH  19  20
ATOM     20  C   UNL     1      -0.745  12.907  22.267  0.00  0.00    +0.000 C 
BRANCH  20  21
ATOM     21  C   UNL     1      -0.506  11.438  22.000  0.00  0.00    +0.000 A 
ATOM     22  C   UNL     1      -0.645  10.506  23.026  0.00  0.00    +0.000 A 
ATOM     23  C   UNL     1      -0.445   9.157  22.744  0.00  0.00    +0.000 A 
ATOM     24  C   UNL     1      -0.108   8.774  21.453  0.00  0.00    +0.000 A 
ATOM     25  C   UNL     1       0.023   9.761  20.491  0.00  0.00    +0.000 A 
ATOM     26  N   UNL     1      -0.169  11.079  20.735  0.00  0.00    +0.000 NA
ENDBRANCH  20  21
ENDBRANCH  19  20
ENDBRANCH  18  19
ENDBRANCH   7  18
TORSDOF 5
ENDMDL
MODEL 5
REMARK VINA RESULT:      -6.7      1.278      1.549
REMARK  Name = 
REMARK  6 active torsions:
REMARK  status: ('A' for Active; 'I' for Inactive)
REMARK    1  A    between atoms: C_1  and  N_2
REMARK    2  A    between atoms: C_7  and  C_8
REMARK    3  A    between atoms: C_8  and  O_9
REMARK    4  A    between atoms: O_9  and  C_10
REMARK    5  A    between atoms: C_10  and  C_11
REMARK    6  A    between atoms: C_19  and  C_21
REMARK                            x       y       z     vdW  Elec       q    Type
REMARK                         _______ _______ _______ _____ _____    ______ ____
ROOT
ATOM      1  C   UNL     1       1.029   3.625  20.569  0.00  0.00    +0.000 C 
ATOM      2  N   UNL     1       1.872   3.442  19.419  0.00  0.00    +0.000 N 
ATOM      3  N   UNL     1       1.812   2.263  18.758  0.00  0.00    +0.000 NA
ATOM      4  N   UNL     1       2.736   2.273  17.806  0.00  0.00    +0.000 NA
ATOM      5  C   UNL     1       3.366   3.480  17.859  0.00  0.00    +0.000 A 
ATOM      6  C   UNL     1       2.799   4.265  18.845  0.00  0.00    +0.000 A 
ATOM      7  C   UNL     1       3.276   5.651  19.182  0.00  0.00    +0.000 C 
ATOM      8  C   UNL     1       4.160   6.132  17.979  0.00  0.00    +0.000 C 
ATOM      9  N   UNL     1       5.121   5.096  17.538  0.00  0.00    +0.000 N 
ATOM     10  C   UNL     1       6.494   5.243  17.311  0.00  0.00    +0.000 C 
ATOM     11  O   UNL     1       7.133   4.339  16.771  0.00  0.00    +0.000 OA
ATOM     12  C   UNL     1       4.491   3.875  16.983  0.00  0.00    +0.000 C 
ENDROOT
BRANCH  10  13
ATOM     13  C   UNL     1       7.189   6.489  17.651  0.00  0.00    +0.000 A 
ATOM     14  C   UNL     1       8.030   6.610  18.822  0.00  0.00    +0.000 A 
ATOM     15  C   UNL     1       8.629   7.844  18.939  0.00  0.00    +0.000 A 
ATOM     16  S   UNL     1       8.147   8.899  17.688  0.00  0.00    +0.000 S 
ATOM     17  C   UNL     1       7.088   7.722  17.034  0.00  0.00    +0.000 A 
ENDBRANCH  10  13
BRANCH   7  18
ATOM     18  C   UNL     1       2.165   6.689  19.391  0.00  0.00    +0.000 C 
BRANCH  18  19
ATOM     19  O   UNL     1       1.970   7.456  18.208  0.00  0.00    +0.000 OA
BRANCH  19  20
ATOM     20  C   UNL     1       2.240   8.847  18.420  0.00  0.00    +0.000 C 
BRANCH  20  21
ATOM     21  C   UNL     1       0.959   9.579  18.750  0.00  0.00    +0.000 A 
ATOM     22  C   UNL     1       0.785  10.160  20.004  0.00  0.00    +0.000 A 
ATOM     23  C   UNL     1      -0.394  10.851  20.270  0.00  0.00    +0.000 A 
ATOM     24  C   UNL     1      -1.368  10.941  19.284  0.00  0.00    +0.000 A 
ATOM     25  C   UNL     1      -1.125  10.326  18.068  0.00  0.00    +0.000 A 
ATOM     26  N   UNL     1       0.012   9.652  17.780  0.00  0.00    +0.000 NA
ENDBRANCH  20  21
ENDBRANCH  19  20
ENDBRANCH  18  19
ENDBRANCH   7  18
TORSDOF 5
ENDMDL
MODEL 6
REMARK VINA RESULT:      -6.6      1.093      1.181
REMARK  Name = 
REMARK  6 active torsions:
REMARK  status: ('A' for Active; 'I' for Inactive)
REMARK    1  A    between atoms: C_1  and  N_2
REMARK    2  A    between atoms: C_7  and  C_8
REMARK    3  A    between atoms: C_8  and  O_9
REMARK    4  A    between atoms: O_9  and  C_10
REMARK    5  A    between atoms: C_10  and  C_11
REMARK    6  A    between atoms: C_19  and  C_21
REMARK                            x       y       z     vdW  Elec       q    Type
REMARK                         _______ _______ _______ _____ _____    ______ ____
ROOT
ATOM      1  C   UNL     1       1.492   2.896  20.477  0.00  0.00    +0.000 C 
ATOM      2  N   UNL     1       2.389   2.803  19.358  0.00  0.00    +0.000 N 
ATOM      3  N   UNL     1       2.509   1.613  18.727  0.00  0.00    +0.000 NA
ATOM      4  N   UNL     1       3.454   1.726  17.803  0.00  0.00    +0.000 NA
ATOM      5  C   UNL     1       3.916   3.008  17.844  0.00  0.00    +0.000 A 
ATOM      6  C   UNL     1       3.217   3.731  18.791  0.00  0.00    +0.000 A 
ATOM      7  C   UNL     1       3.492   5.175  19.106  0.00  0.00    +0.000 C 
ATOM      8  C   UNL     1       4.344   5.745  17.919  0.00  0.00    +0.000 C 
ATOM      9  N   UNL     1       5.448   4.838  17.533  0.00  0.00    +0.000 N 
ATOM     10  C   UNL     1       6.797   5.163  17.344  0.00  0.00    +0.000 C 
ATOM     11  O   UNL     1       7.568   4.342  16.847  0.00  0.00    +0.000 OA
ATOM     12  C   UNL     1       5.006   3.532  16.992  0.00  0.00    +0.000 C 
ENDROOT
BRANCH  10  13
ATOM     13  C   UNL     1       7.307   6.497  17.672  0.00  0.00    +0.000 A 
ATOM     14  C   UNL     1       8.153   6.741  18.821  0.00  0.00    +0.000 A 
ATOM     15  C   UNL     1       8.564   8.051  18.929  0.00  0.00    +0.000 A 
ATOM     16  S   UNL     1       7.896   9.023  17.698  0.00  0.00    +0.000 S 
ATOM     17  C   UNL     1       7.007   7.703  17.066  0.00  0.00    +0.000 A 
ENDBRANCH  10  13
BRANCH   7  18
ATOM     18  C   UNL     1       2.246   6.059  19.255  0.00  0.00    +0.000 C 
BRANCH  18  19
ATOM     19  O   UNL     1       2.593   7.321  19.813  0.00  0.00    +0.000 OA
BRANCH  19  20
ATOM     20  C   UNL     1       1.608   7.784  20.744  0.00  0.00    +0.000 C 
BRANCH  20  21
ATOM     21  C   UNL     1       1.168   9.184  20.379  0.00  0.00    +0.000 A 
ATOM     22  C   UNL     1       1.102   9.574  19.043  0.00  0.00    +0.000 A 
ATOM     23  C   UNL     1       0.667  10.860  18.736  0.00  0.00    +0.000 A 
ATOM     24  C   UNL     1       0.315  11.724  19.766  0.00  0.00    +0.000 A 
ATOM     25  C   UNL     1       0.420  11.266  21.068  0.00  0.00    +0.000 A 
ATOM     26  N   UNL     1       0.835  10.020  21.396  0.00  0.00    +0.000 NA
ENDBRANCH  20  21
ENDBRANCH  19  20
ENDBRANCH  18  19
ENDBRANCH   7  18
TORSDOF 5
ENDMDL
MODEL 7
REMARK VINA RESULT:      -6.6      1.408      2.013
REMARK  Name = 
REMARK  6 active torsions:
REMARK  status: ('A' for Active; 'I' for Inactive)
REMARK    1  A    between atoms: C_1  and  N_2
REMARK    2  A    between atoms: C_7  and  C_8
REMARK    3  A    between atoms: C_8  and  O_9
REMARK    4  A    between atoms: O_9  and  C_10
REMARK    5  A    between atoms: C_10  and  C_11
REMARK    6  A    between atoms: C_19  and  C_21
REMARK                            x       y       z     vdW  Elec       q    Type
REMARK                         _______ _______ _______ _____ _____    ______ ____
ROOT
ATOM      1  C   UNL     1       1.128   3.590  20.118  0.00  0.00    +0.000 C 
ATOM      2  N   UNL     1       2.177   3.352  19.164  0.00  0.00    +0.000 N 
ATOM      3  N   UNL     1       2.327   2.101  18.672  0.00  0.00    +0.000 NA
ATOM      4  N   UNL     1       3.404   2.085  17.898  0.00  0.00    +0.000 NA
ATOM      5  C   UNL     1       3.922   3.346  17.891  0.00  0.00    +0.000 A 
ATOM      6  C   UNL     1       3.128   4.186  18.648  0.00  0.00    +0.000 A 
ATOM      7  C   UNL     1       3.429   5.643  18.867  0.00  0.00    +0.000 C 
ATOM      8  C   UNL     1       4.478   6.058  17.777  0.00  0.00    +0.000 C 
ATOM      9  N   UNL     1       5.578   5.076  17.652  0.00  0.00    +0.000 N 
ATOM     10  C   UNL     1       6.955   5.328  17.643  0.00  0.00    +0.000 C 
ATOM     11  O   UNL     1       7.748   4.433  17.350  0.00  0.00    +0.000 OA
ATOM     12  C   UNL     1       5.154   3.740  17.172  0.00  0.00    +0.000 C 
ENDROOT
BRANCH  10  13
ATOM     13  C   UNL     1       7.480   6.668  17.921  0.00  0.00    +0.000 A 
ATOM     14  C   UNL     1       7.207   7.800  17.062  0.00  0.00    +0.000 A 
ATOM     15  C   UNL     1       7.752   8.979  17.520  0.00  0.00    +0.000 A 
ATOM     16  S   UNL     1       8.650   8.742  18.950  0.00  0.00    +0.000 S 
ATOM     17  C   UNL     1       8.364   7.054  18.913  0.00  0.00    +0.000 A 
ENDBRANCH  10  13
BRANCH   7  18
ATOM     18  C   UNL     1       2.224   6.584  18.739  0.00  0.00    +0.000 C 
BRANCH  18  19
ATOM     19  O   UNL     1       2.382   7.717  19.585  0.00  0.00    +0.000 OA
BRANCH  19  20
ATOM     20  C   UNL     1       1.658   7.574  20.813  0.00  0.00    +0.000 C 
BRANCH  20  21
ATOM     21  C   UNL     1       0.929   8.859  21.136  0.00  0.00    +0.000 A 
ATOM     22  C   UNL     1       0.314   9.025  22.375  0.00  0.00    +0.000 A 
ATOM     23  C   UNL     1      -0.327  10.229  22.654  0.00  0.00    +0.000 A 
ATOM     24  C   UNL     1      -0.342  11.231  21.693  0.00  0.00    +0.000 A 
ATOM     25  C   UNL     1       0.281  10.985  20.482  0.00  0.00    +0.000 A 
ATOM     26  N   UNL     1       0.915   9.827  20.184  0.00  0.00    +0.000 NA
ENDBRANCH  20  21
ENDBRANCH  19  20
ENDBRANCH  18  19
ENDBRANCH   7  18
TORSDOF 5
ENDMDL
MODEL 8
REMARK VINA RESULT:      -6.5      1.341      1.745
REMARK  Name = 
REMARK  6 active torsions:
REMARK  status: ('A' for Active; 'I' for Inactive)
REMARK    1  A    between atoms: C_1  and  N_2
REMARK    2  A    between atoms: C_7  and  C_8
REMARK    3  A    between atoms: C_8  and  O_9
REMARK    4  A    between atoms: O_9  and  C_10
REMARK    5  A    between atoms: C_10  and  C_11
REMARK    6  A    between atoms: C_19  and  C_21
REMARK                            x       y       z     vdW  Elec       q    Type
REMARK                         _______ _______ _______ _____ _____    ______ ____
ROOT
ATOM      1  C   UNL     1       1.216   3.500  20.350  0.00  0.00    +0.000 C 
ATOM      2  N   UNL     1       2.195   3.298  19.317  0.00  0.00    +0.000 N 
ATOM      3  N   UNL     1       2.298   2.070  18.759  0.00  0.00    +0.000 NA
ATOM      4  N   UNL     1       3.320   2.083  17.913  0.00  0.00    +0.000 NA
ATOM      5  C   UNL     1       3.849   3.339  17.927  0.00  0.00    +0.000 A 
ATOM      6  C   UNL     1       3.117   4.148  18.775  0.00  0.00    +0.000 A 
ATOM      7  C   UNL     1       3.448   5.591  19.039  0.00  0.00    +0.000 C 
ATOM      8  C   UNL     1       4.424   6.049  17.899  0.00  0.00    +0.000 C 
ATOM      9  N   UNL     1       5.503   5.066  17.655  0.00  0.00    +0.000 N 
ATOM     10  C   UNL     1       6.878   5.309  17.563  0.00  0.00    +0.000 C 
ATOM     11  O   UNL     1       7.640   4.422  17.175  0.00  0.00    +0.000 OA
ATOM     12  C   UNL     1       5.033   3.757  17.145  0.00  0.00    +0.000 C 
ENDROOT
BRANCH  10  13
ATOM     13  C   UNL     1       7.435   6.631  17.865  0.00  0.00    +0.000 A 
ATOM     14  C   UNL     1       7.197   7.782  17.021  0.00  0.00    +0.000 A 
ATOM     15  C   UNL     1       7.768   8.939  17.500  0.00  0.00    +0.000 A 
ATOM     16  S   UNL     1       8.648   8.659  18.934  0.00  0.00    +0.000 S 
ATOM     17  C   UNL     1       8.320   6.980  18.869  0.00  0.00    +0.000 A 
ENDBRANCH  10  13
BRANCH   7  18
ATOM     18  C   UNL     1       2.246   6.546  19.037  0.00  0.00    +0.000 C 
BRANCH  18  19
ATOM     19  O   UNL     1       2.682   7.898  18.948  0.00  0.00    +0.000 OA
BRANCH  19  20
ATOM     20  C   UNL     1       1.991   8.618  17.920  0.00  0.00    +0.000 C 
BRANCH  20  21
ATOM     21  C   UNL     1       0.918   9.491  18.531  0.00  0.00    +0.000 A 
ATOM     22  C   UNL     1      -0.272   9.724  17.846  0.00  0.00    +0.000 A 
ATOM     23  C   UNL     1      -1.252  10.511  18.445  0.00  0.00    +0.000 A 
ATOM     24  C   UNL     1      -1.021  11.045  19.706  0.00  0.00    +0.000 A 
ATOM     25  C   UNL     1       0.192  10.776  20.317  0.00  0.00    +0.000 A 
ATOM     26  N   UNL     1       1.161  10.013  19.761  0.00  0.00    +0.000 NA
ENDBRANCH  20  21
ENDBRANCH  19  20
ENDBRANCH  18  19
ENDBRANCH   7  18
TORSDOF 5
ENDMDL
MODEL 9
REMARK VINA RESULT:      -6.5      2.626      6.338
REMARK  Name = 
REMARK  6 active torsions:
REMARK  status: ('A' for Active; 'I' for Inactive)
REMARK    1  A    between atoms: C_1  and  N_2
REMARK    2  A    between atoms: C_7  and  C_8
REMARK    3  A    between atoms: C_8  and  O_9
REMARK    4  A    between atoms: O_9  and  C_10
REMARK    5  A    between atoms: C_10  and  C_11
REMARK    6  A    between atoms: C_19  and  C_21
REMARK                            x       y       z     vdW  Elec       q    Type
REMARK                         _______ _______ _______ _____ _____    ______ ____
ROOT
ATOM      1  C   UNL     1       8.046   4.967  18.291  0.00  0.00    +0.000 C 
ATOM      2  N   UNL     1       6.977   5.515  17.503  0.00  0.00    +0.000 N 
ATOM      3  N   UNL     1       7.209   5.777  16.196  0.00  0.00    +0.000 NA
ATOM      4  N   UNL     1       6.132   6.366  15.693  0.00  0.00    +0.000 NA
ATOM      5  C   UNL     1       5.209   6.456  16.692  0.00  0.00    +0.000 A 
ATOM      6  C   UNL     1       5.703   5.873  17.843  0.00  0.00    +0.000 A 
ATOM      7  C   UNL     1       4.945   5.822  19.141  0.00  0.00    +0.000 C 
ATOM      8  C   UNL     1       3.444   6.129  18.803  0.00  0.00    +0.000 C 
ATOM      9  N   UNL     1       3.299   7.289  17.895  0.00  0.00    +0.000 N 
ATOM     10  C   UNL     1       2.453   8.394  18.046  0.00  0.00    +0.000 C 
ATOM     11  O   UNL     1       2.305   9.194  17.121  0.00  0.00    +0.000 OA
ATOM     12  C   UNL     1       3.879   7.088  16.547  0.00  0.00    +0.000 C 
ENDROOT
BRANCH  10  13
ATOM     13  C   UNL     1       1.680   8.593  19.276  0.00  0.00    +0.000 A 
ATOM     14  C   UNL     1       0.776   9.710  19.451  0.00  0.00    +0.000 A 
ATOM     15  C   UNL     1       0.111   9.692  20.656  0.00  0.00    +0.000 A 
ATOM     16  S   UNL     1       0.600   8.377  21.625  0.00  0.00    +0.000 S 
ATOM     17  C   UNL     1       1.748   7.876  20.457  0.00  0.00    +0.000 A 
ENDBRANCH  10  13
BRANCH   7  18
ATOM     18  C   UNL     1       4.993   4.472  19.870  0.00  0.00    +0.000 C 
BRANCH  18  19
ATOM     19  O   UNL     1       5.110   3.404  18.937  0.00  0.00    +0.000 OA
BRANCH  19  20
ATOM     20  C   UNL     1       4.458   2.215  19.399  0.00  0.00    +0.000 C 
BRANCH  20  21
ATOM     21  C   UNL     1       2.986   2.481  19.615  0.00  0.00    +0.000 A 
ATOM     22  C   UNL     1       2.118   2.555  18.528  0.00  0.00    +0.000 A 
ATOM     23  C   UNL     1       0.763   2.775  18.760  0.00  0.00    +0.000 A 
ATOM     24  C   UNL     1       0.310   2.920  20.065  0.00  0.00    +0.000 A 
ATOM     25  C   UNL     1       1.237   2.845  21.090  0.00  0.00    +0.000 A 
ATOM     26  N   UNL     1       2.558   2.629  20.896  0.00  0.00    +0.000 NA
ENDBRANCH  20  21
ENDBRANCH  19  20
ENDBRANCH  18  19
ENDBRANCH   7  18
TORSDOF 5
ENDMDL
