MODEL 1
REMARK VINA RESULT:      -6.6      0.000      0.000
REMARK  Name = 
REMARK  8 active torsions:
REMARK  status: ('A' for Active; 'I' for Inactive)
REMARK    1  A    between atoms: C_2  and  C_3
REMARK    2  A    between atoms: C_3  and  C_11
REMARK    3  A    between atoms: C_4  and  C_5
REMARK    4  A    between atoms: C_5  and  C_6
REMARK    5  A    between atoms: C_6  and  C_7
REMARK    6  A    between atoms: C_7  and  C_8
REMARK    7  A    between atoms: C_8  and  C_9
REMARK    8  A    between atoms: C_9  and  C_10
REMARK                            x       y       z     vdW  Elec       q    Type
REMARK                         _______ _______ _______ _____ _____    ______ ____
ROOT
ATOM      1  C   UNL     1       3.759   5.663  18.819  0.00  0.00    +0.000 C 
ATOM      2  C   UNL     1       3.331   4.955  19.886  0.00  0.00    +0.000 C 
ENDROOT
BRANCH   1   3
ATOM      3  C   UNL     1       5.025   5.296  18.131  0.00  0.00    +0.000 A 
ATOM      4  C   UNL     1       6.274   5.386  18.773  0.00  0.00    +0.000 A 
ATOM      5  C   UNL     1       7.455   5.048  18.104  0.00  0.00    +0.000 A 
ATOM      6  C   UNL     1       7.405   4.596  16.790  0.00  0.00    +0.000 A 
ATOM      7  C   UNL     1       6.175   4.478  16.150  0.00  0.00    +0.000 A 
ATOM      8 CL   UNL     1       6.108   3.904  14.529  0.00  0.00    +0.000 Cl
ATOM      9  C   UNL     1       4.994   4.822  16.810  0.00  0.00    +0.000 A 
ENDBRANCH   1   3
BRANCH   1  11
ATOM     10  C   UNL     1       2.349   7.731  18.000  0.00  0.00    +0.000 C 
ATOM     11  C   UNL     1       2.998   6.786  18.360  0.00  0.00    +0.000 C 
ENDBRANCH   1  11
BRANCH   2  12
ATOM     12  C   UNL     1       2.077   5.220  20.673  0.00  0.00    +0.000 C 
BRANCH  12  13
ATOM     13  C   UNL     1       1.201   3.970  20.741  0.00  0.00    +0.000 C 
BRANCH  13  14
ATOM     14  C   UNL     1       0.769   3.532  19.344  0.00  0.00    +0.000 C 
BRANCH  14  15
ATOM     15  C   UNL     1       1.346   2.162  18.999  0.00  0.00    +0.000 C 
BRANCH  15  16
ATOM     16  C   UNL     1       2.298   2.251  17.810  0.00  0.00    +0.000 C 
ATOM     17  C   UNL     1       3.657   1.660  18.149  0.00  0.00    +0.000 C 
ENDBRANCH  15  16
ENDBRANCH  14  15
ENDBRANCH  13  14
ENDBRANCH  12  13
ENDBRANCH   2  12
TORSDOF 7
ENDMDL
MODEL 2
REMARK VINA RESULT:      -6.2      3.082      4.820
REMARK  Name = 
REMARK  8 active torsions:
REMARK  status: ('A' for Active; 'I' for Inactive)
REMARK    1  A    between atoms: C_2  and  C_3
REMARK    2  A    between atoms: C_3  and  C_11
REMARK    3  A    between atoms: C_4  and  C_5
REMARK    4  A    between atoms: C_5  and  C_6
REMARK    5  A    between atoms: C_6  and  C_7
REMARK    6  A    between atoms: C_7  and  C_8
REMARK    7  A    between atoms: C_8  and  C_9
REMARK    8  A    between atoms: C_9  and  C_10
REMARK                            x       y       z     vdW  Elec       q    Type
REMARK                         _______ _______ _______ _____ _____    ______ ____
ROOT
ATOM      1  C   UNL     1       2.767   5.954  19.981  0.00  0.00    +0.000 C 
ATOM      2  C   UNL     1       2.001   5.215  20.812  0.00  0.00    +0.000 C 
ENDROOT
BRANCH   1   3
ATOM      3  C   UNL     1       2.274   7.257  19.462  0.00  0.00    +0.000 A 
ATOM      4  C   UNL     1       2.489   7.658  18.130  0.00  0.00    +0.000 A 
ATOM      5  C   UNL     1       2.027   8.893  17.665  0.00  0.00    +0.000 A 
ATOM      6  C   UNL     1       1.327   9.740  18.518  0.00  0.00    +0.000 A 
ATOM      7  C   UNL     1       1.085   9.346  19.831  0.00  0.00    +0.000 A 
ATOM      8 CL   UNL     1       0.204  10.384  20.883  0.00  0.00    +0.000 Cl
ATOM      9  C   UNL     1       1.550   8.119  20.302  0.00  0.00    +0.000 A 
ENDBRANCH   1   3
BRANCH   1  11
ATOM     10  C   UNL     1       5.129   5.069  19.221  0.00  0.00    +0.000 C 
ATOM     11  C   UNL     1       4.055   5.469  19.582  0.00  0.00    +0.000 C 
ENDBRANCH   1  11
BRANCH   2  12
ATOM     12  C   UNL     1       2.374   3.884  21.403  0.00  0.00    +0.000 C 
BRANCH  12  13
ATOM     13  C   UNL     1       1.338   2.819  21.049  0.00  0.00    +0.000 C 
BRANCH  13  14
ATOM     14  C   UNL     1       0.697   3.114  19.696  0.00  0.00    +0.000 C 
BRANCH  14  15
ATOM     15  C   UNL     1       1.056   2.038  18.675  0.00  0.00    +0.000 C 
BRANCH  15  16
ATOM     16  C   UNL     1       2.456   2.263  18.110  0.00  0.00    +0.000 C 
ATOM     17  C   UNL     1       2.480   3.444  17.154  0.00  0.00    +0.000 C 
ENDBRANCH  15  16
ENDBRANCH  14  15
ENDBRANCH  13  14
ENDBRANCH  12  13
ENDBRANCH   2  12
TORSDOF 7
ENDMDL
MODEL 3
REMARK VINA RESULT:      -6.2      1.798      2.440
REMARK  Name = 
REMARK  8 active torsions:
REMARK  status: ('A' for Active; 'I' for Inactive)
REMARK    1  A    between atoms: C_2  and  C_3
REMARK    2  A    between atoms: C_3  and  C_11
REMARK    3  A    between atoms: C_4  and  C_5
REMARK    4  A    between atoms: C_5  and  C_6
REMARK    5  A    between atoms: C_6  and  C_7
REMARK    6  A    between atoms: C_7  and  C_8
REMARK    7  A    between atoms: C_8  and  C_9
REMARK    8  A    between atoms: C_9  and  C_10
REMARK                            x       y       z     vdW  Elec       q    Type
REMARK                         _______ _______ _______ _____ _____    ______ ____
ROOT
ATOM      1  C   UNL     1       3.151   5.054  17.801  0.00  0.00    +0.000 C 
ATOM      2  C   UNL     1       2.350   3.994  17.560  0.00  0.00    +0.000 C 
ENDROOT
BRANCH   1   3
ATOM      3  C   UNL     1       4.505   5.127  17.192  0.00  0.00    +0.000 A 
ATOM      4  C   UNL     1       4.935   4.205  16.219  0.00  0.00    +0.000 A 
ATOM      5  C   UNL     1       6.219   4.283  15.668  0.00  0.00    +0.000 A 
ATOM      6  C   UNL     1       7.086   5.295  16.067  0.00  0.00    +0.000 A 
ATOM      7  C   UNL     1       6.666   6.228  17.010  0.00  0.00    +0.000 A 
ATOM      8 CL   UNL     1       7.731   7.490  17.493  0.00  0.00    +0.000 Cl
ATOM      9  C   UNL     1       5.390   6.150  17.569  0.00  0.00    +0.000 A 
ENDBRANCH   1   3
BRANCH   1  11
ATOM     10  C   UNL     1       2.295   6.980  19.380  0.00  0.00    +0.000 C 
ATOM     11  C   UNL     1       2.700   6.104  18.664  0.00  0.00    +0.000 C 
ENDBRANCH   1  11
BRANCH   2  12
ATOM     12  C   UNL     1       0.966   3.793  18.113  0.00  0.00    +0.000 C 
BRANCH  12  13
ATOM     13  C   UNL     1       0.991   2.854  19.317  0.00  0.00    +0.000 C 
BRANCH  13  14
ATOM     14  C   UNL     1       1.049   3.645  20.621  0.00  0.00    +0.000 C 
BRANCH  14  15
ATOM     15  C   UNL     1       2.391   3.449  21.321  0.00  0.00    +0.000 C 
BRANCH  15  16
ATOM     16  C   UNL     1       3.151   2.266  20.728  0.00  0.00    +0.000 C 
ATOM     17  C   UNL     1       4.502   2.698  20.183  0.00  0.00    +0.000 C 
ENDBRANCH  15  16
ENDBRANCH  14  15
ENDBRANCH  13  14
ENDBRANCH  12  13
ENDBRANCH   2  12
TORSDOF 7
ENDMDL
MODEL 4
REMARK VINA RESULT:      -6.1      2.927      5.092
REMARK  Name = 
REMARK  8 active torsions:
REMARK  status: ('A' for Active; 'I' for Inactive)
REMARK    1  A    between atoms: C_2  and  C_3
REMARK    2  A    between atoms: C_3  and  C_11
REMARK    3  A    between atoms: C_4  and  C_5
REMARK    4  A    between atoms: C_5  and  C_6
REMARK    5  A    between atoms: C_6  and  C_7
REMARK    6  A    between atoms: C_7  and  C_8
REMARK    7  A    between atoms: C_8  and  C_9
REMARK    8  A    between atoms: C_9  and  C_10
REMARK                            x       y       z     vdW  Elec       q    Type
REMARK                         _______ _______ _______ _____ _____    ______ ____
ROOT
ATOM      1  C   UNL     1       3.352   6.345  17.921  0.00  0.00    +0.000 C 
ATOM      2  C   UNL     1       2.805   5.119  17.777  0.00  0.00    +0.000 C 
ENDROOT
BRANCH   1   3
ATOM      3  C   UNL     1       2.539   7.473  18.448  0.00  0.00    +0.000 A 
ATOM      4  C   UNL     1       2.118   8.535  17.625  0.00  0.00    +0.000 A 
ATOM      5  C   UNL     1       1.364   9.594  18.143  0.00  0.00    +0.000 A 
ATOM      6  C   UNL     1       1.004   9.600  19.487  0.00  0.00    +0.000 A 
ATOM      7  C   UNL     1       1.393   8.544  20.307  0.00  0.00    +0.000 A 
ATOM      8 CL   UNL     1       0.936   8.540  21.966  0.00  0.00    +0.000 Cl
ATOM      9  C   UNL     1       2.151   7.490  19.797  0.00  0.00    +0.000 A 
ENDBRANCH   1   3
BRANCH   1  11
ATOM     10  C   UNL     1       5.868   6.748  17.258  0.00  0.00    +0.000 C 
ATOM     11  C   UNL     1       4.717   6.564  17.546  0.00  0.00    +0.000 C 
ENDBRANCH   1  11
BRANCH   2  12
ATOM     12  C   UNL     1       3.509   3.897  17.255  0.00  0.00    +0.000 C 
BRANCH  12  13
ATOM     13  C   UNL     1       2.748   2.627  17.629  0.00  0.00    +0.000 C 
BRANCH  13  14
ATOM     14  C   UNL     1       1.427   2.966  18.312  0.00  0.00    +0.000 C 
BRANCH  14  15
ATOM     15  C   UNL     1       1.407   2.455  19.751  0.00  0.00    +0.000 C 
BRANCH  15  16
ATOM     16  C   UNL     1       1.052   3.573  20.726  0.00  0.00    +0.000 C 
ATOM     17  C   UNL     1       2.299   4.168  21.358  0.00  0.00    +0.000 C 
ENDBRANCH  15  16
ENDBRANCH  14  15
ENDBRANCH  13  14
ENDBRANCH  12  13
ENDBRANCH   2  12
TORSDOF 7
ENDMDL
MODEL 5
REMARK VINA RESULT:      -6.1      1.743      2.717
REMARK  Name = 
REMARK  8 active torsions:
REMARK  status: ('A' for Active; 'I' for Inactive)
REMARK    1  A    between atoms: C_2  and  C_3
REMARK    2  A    between atoms: C_3  and  C_11
REMARK    3  A    between atoms: C_4  and  C_5
REMARK    4  A    between atoms: C_5  and  C_6
REMARK    5  A    between atoms: C_6  and  C_7
REMARK    6  A    between atoms: C_7  and  C_8
REMARK    7  A    between atoms: C_8  and  C_9
REMARK    8  A    between atoms: C_9  and  C_10
REMARK                            x       y       z     vdW  Elec       q    Type
REMARK                         _______ _______ _______ _____ _____    ______ ____
ROOT
ATOM      1  C   UNL     1       3.420   4.926  17.622  0.00  0.00    +0.000 C 
ATOM      2  C   UNL     1       2.648   3.820  17.565  0.00  0.00    +0.000 C 
ENDROOT
BRANCH   1   3
ATOM      3  C   UNL     1       4.887   4.832  17.402  0.00  0.00    +0.000 A 
ATOM      4  C   UNL     1       5.430   4.358  16.193  0.00  0.00    +0.000 A 
ATOM      5  C   UNL     1       6.814   4.265  16.011  0.00  0.00    +0.000 A 
ATOM      6  C   UNL     1       7.678   4.661  17.026  0.00  0.00    +0.000 A 
ATOM      7  C   UNL     1       7.155   5.155  18.219  0.00  0.00    +0.000 A 
ATOM      8 CL   UNL     1       8.221   5.661  19.471  0.00  0.00    +0.000 Cl
ATOM      9  C   UNL     1       5.776   5.242  18.409  0.00  0.00    +0.000 A 
ENDBRANCH   1   3
BRANCH   1  11
ATOM     10  C   UNL     1       2.299   7.250  18.154  0.00  0.00    +0.000 C 
ATOM     11  C   UNL     1       2.824   6.195  17.917  0.00  0.00    +0.000 C 
ENDBRANCH   1  11
BRANCH   2  12
ATOM     12  C   UNL     1       1.159   3.774  17.772  0.00  0.00    +0.000 C 
BRANCH  12  13
ATOM     13  C   UNL     1       0.776   2.649  18.731  0.00  0.00    +0.000 C 
BRANCH  13  14
ATOM     14  C   UNL     1       0.493   3.198  20.127  0.00  0.00    +0.000 C 
BRANCH  14  15
ATOM     15  C   UNL     1       1.433   2.582  21.159  0.00  0.00    +0.000 C 
BRANCH  15  16
ATOM     16  C   UNL     1       2.623   3.497  21.433  0.00  0.00    +0.000 C 
ATOM     17  C   UNL     1       2.268   4.952  21.172  0.00  0.00    +0.000 C 
ENDBRANCH  15  16
ENDBRANCH  14  15
ENDBRANCH  13  14
ENDBRANCH  12  13
ENDBRANCH   2  12
TORSDOF 7
ENDMDL
MODEL 6
REMARK VINA RESULT:      -6.1      3.465      6.128
REMARK  Name = 
REMARK  8 active torsions:
REMARK  status: ('A' for Active; 'I' for Inactive)
REMARK    1  A    between atoms: C_2  and  C_3
REMARK    2  A    between atoms: C_3  and  C_11
REMARK    3  A    between atoms: C_4  and  C_5
REMARK    4  A    between atoms: C_5  and  C_6
REMARK    5  A    between atoms: C_6  and  C_7
REMARK    6  A    between atoms: C_7  and  C_8
REMARK    7  A    between atoms: C_8  and  C_9
REMARK    8  A    between atoms: C_9  and  C_10
REMARK                            x       y       z     vdW  Elec       q    Type
REMARK                         _______ _______ _______ _____ _____    ______ ____
ROOT
ATOM      1  C   UNL     1       4.603   4.373  16.661  0.00  0.00    +0.000 C 
ATOM      2  C   UNL     1       5.210   3.507  15.822  0.00  0.00    +0.000 C 
ENDROOT
BRANCH   1   3
ATOM      3  C   UNL     1       3.572   3.894  17.620  0.00  0.00    +0.000 A 
ATOM      4  C   UNL     1       3.086   2.573  17.593  0.00  0.00    +0.000 A 
ATOM      5  C   UNL     1       2.108   2.146  18.497  0.00  0.00    +0.000 A 
ATOM      6  C   UNL     1       1.612   3.026  19.453  0.00  0.00    +0.000 A 
ATOM      7  C   UNL     1       2.101   4.328  19.508  0.00  0.00    +0.000 A 
ATOM      8 CL   UNL     1       1.502   5.414  20.700  0.00  0.00    +0.000 Cl
ATOM      9  C   UNL     1       3.071   4.762  18.604  0.00  0.00    +0.000 A 
ENDBRANCH   1   3
BRANCH   1  11
ATOM     10  C   UNL     1       5.237   6.927  16.549  0.00  0.00    +0.000 C 
ATOM     11  C   UNL     1       4.939   5.764  16.612  0.00  0.00    +0.000 C 
ENDBRANCH   1  11
BRANCH   2  12
ATOM     12  C   UNL     1       6.260   3.857  14.805  0.00  0.00    +0.000 C 
BRANCH  12  13
ATOM     13  C   UNL     1       5.628   4.138  13.443  0.00  0.00    +0.000 C 
BRANCH  13  14
ATOM     14  C   UNL     1       6.283   3.290  12.355  0.00  0.00    +0.000 C 
BRANCH  14  15
ATOM     15  C   UNL     1       5.230   2.627  11.471  0.00  0.00    +0.000 C 
BRANCH  15  16
ATOM     16  C   UNL     1       3.918   3.406  11.502  0.00  0.00    +0.000 C 
ATOM     17  C   UNL     1       3.304   3.503  10.115  0.00  0.00    +0.000 C 
ENDBRANCH  15  16
ENDBRANCH  14  15
ENDBRANCH  13  14
ENDBRANCH  12  13
ENDBRANCH   2  12
TORSDOF 7
ENDMDL
MODEL 7
REMARK VINA RESULT:      -6.0      3.070      5.834
REMARK  Name = 
REMARK  8 active torsions:
REMARK  status: ('A' for Active; 'I' for Inactive)
REMARK    1  A    between atoms: C_2  and  C_3
REMARK    2  A    between atoms: C_3  and  C_11
REMARK    3  A    between atoms: C_4  and  C_5
REMARK    4  A    between atoms: C_5  and  C_6
REMARK    5  A    between atoms: C_6  and  C_7
REMARK    6  A    between atoms: C_7  and  C_8
REMARK    7  A    between atoms: C_8  and  C_9
REMARK    8  A    between atoms: C_9  and  C_10
REMARK                            x       y       z     vdW  Elec       q    Type
REMARK                         _______ _______ _______ _____ _____    ______ ____
ROOT
ATOM      1  C   UNL     1       4.633   4.649  17.314  0.00  0.00    +0.000 C 
ATOM      2  C   UNL     1       5.692   4.043  16.737  0.00  0.00    +0.000 C 
ENDROOT
BRANCH   1   3
ATOM      3  C   UNL     1       3.610   3.848  18.036  0.00  0.00    +0.000 A 
ATOM      4  C   UNL     1       2.840   2.864  17.387  0.00  0.00    +0.000 A 
ATOM      5  C   UNL     1       1.873   2.130  18.082  0.00  0.00    +0.000 A 
ATOM      6  C   UNL     1       1.673   2.354  19.441  0.00  0.00    +0.000 A 
ATOM      7  C   UNL     1       2.444   3.307  20.101  0.00  0.00    +0.000 A 
ATOM      8 CL   UNL     1       2.210   3.575  21.785  0.00  0.00    +0.000 Cl
ATOM      9  C   UNL     1       3.404   4.047  19.411  0.00  0.00    +0.000 A 
ENDBRANCH   1   3
BRANCH   1  11
ATOM     10  C   UNL     1       4.384   7.265  17.141  0.00  0.00    +0.000 C 
ATOM     11  C   UNL     1       4.484   6.070  17.212  0.00  0.00    +0.000 C 
ENDBRANCH   1  11
BRANCH   2  12
ATOM     12  C   UNL     1       6.792   4.730  15.975  0.00  0.00    +0.000 C 
BRANCH  12  13
ATOM     13  C   UNL     1       6.368   5.008  14.535  0.00  0.00    +0.000 C 
BRANCH  13  14
ATOM     14  C   UNL     1       5.759   3.762  13.897  0.00  0.00    +0.000 C 
BRANCH  14  15
ATOM     15  C   UNL     1       6.312   3.542  12.491  0.00  0.00    +0.000 C 
BRANCH  15  16
ATOM     16  C   UNL     1       5.433   2.576  11.702  0.00  0.00    +0.000 C 
ATOM     17  C   UNL     1       4.134   3.239  11.275  0.00  0.00    +0.000 C 
ENDBRANCH  15  16
ENDBRANCH  14  15
ENDBRANCH  13  14
ENDBRANCH  12  13
ENDBRANCH   2  12
TORSDOF 7
ENDMDL
MODEL 8
REMARK VINA RESULT:      -6.0      1.221      2.038
REMARK  Name = 
REMARK  8 active torsions:
REMARK  status: ('A' for Active; 'I' for Inactive)
REMARK    1  A    between atoms: C_2  and  C_3
REMARK    2  A    between atoms: C_3  and  C_11
REMARK    3  A    between atoms: C_4  and  C_5
REMARK    4  A    between atoms: C_5  and  C_6
REMARK    5  A    between atoms: C_6  and  C_7
REMARK    6  A    between atoms: C_7  and  C_8
REMARK    7  A    between atoms: C_8  and  C_9
REMARK    8  A    between atoms: C_9  and  C_10
REMARK                            x       y       z     vdW  Elec       q    Type
REMARK                         _______ _______ _______ _____ _____    ______ ____
ROOT
ATOM      1  C   UNL     1       3.381   4.767  17.647  0.00  0.00    +0.000 C 
ATOM      2  C   UNL     1       2.511   3.746  17.492  0.00  0.00    +0.000 C 
ENDROOT
BRANCH   1   3
ATOM      3  C   UNL     1       4.764   4.665  17.113  0.00  0.00    +0.000 A 
ATOM      4  C   UNL     1       5.895   4.804  17.940  0.00  0.00    +0.000 A 
ATOM      5  C   UNL     1       7.188   4.716  17.415  0.00  0.00    +0.000 A 
ATOM      6  C   UNL     1       7.373   4.470  16.058  0.00  0.00    +0.000 A 
ATOM      7  C   UNL     1       6.265   4.306  15.232  0.00  0.00    +0.000 A 
ATOM      8 CL   UNL     1       6.490   3.985  13.557  0.00  0.00    +0.000 Cl
ATOM      9  C   UNL     1       4.972   4.400  15.749  0.00  0.00    +0.000 A 
ENDBRANCH   1   3
BRANCH   1  11
ATOM     10  C   UNL     1       2.653   6.935  18.955  0.00  0.00    +0.000 C 
ATOM     11  C   UNL     1       2.973   5.948  18.349  0.00  0.00    +0.000 C 
ENDBRANCH   1  11
BRANCH   2  12
ATOM     12  C   UNL     1       1.091   3.717  17.986  0.00  0.00    +0.000 C 
BRANCH  12  13
ATOM     13  C   UNL     1       0.741   2.346  18.561  0.00  0.00    +0.000 C 
BRANCH  13  14
ATOM     14  C   UNL     1       1.120   2.262  20.037  0.00  0.00    +0.000 C 
BRANCH  14  15
ATOM     15  C   UNL     1       1.087   3.642  20.689  0.00  0.00    +0.000 C 
BRANCH  15  16
ATOM     16  C   UNL     1       2.405   3.948  21.394  0.00  0.00    +0.000 C 
ATOM     17  C   UNL     1       3.487   2.961  20.988  0.00  0.00    +0.000 C 
ENDBRANCH  15  16
ENDBRANCH  14  15
ENDBRANCH  13  14
ENDBRANCH  12  13
ENDBRANCH   2  12
TORSDOF 7
ENDMDL
MODEL 9
REMARK VINA RESULT:      -6.0      3.091      5.927
REMARK  Name = 
REMARK  8 active torsions:
REMARK  status: ('A' for Active; 'I' for Inactive)
REMARK    1  A    between atoms: C_2  and  C_3
REMARK    2  A    between atoms: C_3  and  C_11
REMARK    3  A    between atoms: C_4  and  C_5
REMARK    4  A    between atoms: C_5  and  C_6
REMARK    5  A    between atoms: C_6  and  C_7
REMARK    6  A    between atoms: C_7  and  C_8
REMARK    7  A    between atoms: C_8  and  C_9
REMARK    8  A    between atoms: C_9  and  C_10
REMARK                            x       y       z     vdW  Elec       q    Type
REMARK                         _______ _______ _______ _____ _____    ______ ____
ROOT
ATOM      1  C   UNL     1       5.137   4.409  17.538  0.00  0.00    +0.000 C 
ATOM      2  C   UNL     1       5.077   3.887  16.295  0.00  0.00    +0.000 C 
ENDROOT
BRANCH   1   3
ATOM      3  C   UNL     1       3.928   4.428  18.404  0.00  0.00    +0.000 A 
ATOM      4  C   UNL     1       3.749   5.395  19.412  0.00  0.00    +0.000 A 
ATOM      5  C   UNL     1       2.611   5.387  20.224  0.00  0.00    +0.000 A 
ATOM      6  C   UNL     1       1.625   4.425  20.032  0.00  0.00    +0.000 A 
ATOM      7  C   UNL     1       1.777   3.478  19.023  0.00  0.00    +0.000 A 
ATOM      8 CL   UNL     1       0.551   2.296  18.772  0.00  0.00    +0.000 Cl
ATOM      9  C   UNL     1       2.914   3.475  18.215  0.00  0.00    +0.000 A 
ENDBRANCH   1   3
BRANCH   1  11
ATOM     10  C   UNL     1       7.389   5.458  18.411  0.00  0.00    +0.000 C 
ATOM     11  C   UNL     1       6.366   4.966  18.018  0.00  0.00    +0.000 C 
ENDBRANCH   1  11
BRANCH   2  12
ATOM     12  C   UNL     1       6.217   3.809  15.317  0.00  0.00    +0.000 C 
BRANCH  12  13
ATOM     13  C   UNL     1       5.846   4.472  13.992  0.00  0.00    +0.000 C 
BRANCH  13  14
ATOM     14  C   UNL     1       6.558   3.792  12.826  0.00  0.00    +0.000 C 
BRANCH  14  15
ATOM     15  C   UNL     1       5.587   2.936  12.016  0.00  0.00    +0.000 C 
BRANCH  15  16
ATOM     16  C   UNL     1       4.340   3.731  11.638  0.00  0.00    +0.000 C 
ATOM     17  C   UNL     1       3.459   2.947  10.679  0.00  0.00    +0.000 C 
ENDBRANCH  15  16
ENDBRANCH  14  15
ENDBRANCH  13  14
ENDBRANCH  12  13
ENDBRANCH   2  12
TORSDOF 7
ENDMDL
