MODEL 1
REMARK VINA RESULT:      -8.3      0.000      0.000
REMARK  Name = 
REMARK  1 active torsions:
REMARK  status: ('A' for Active; 'I' for Inactive)
REMARK    1  A    between atoms: C_4  and  C_5
REMARK                            x       y       z     vdW  Elec       q    Type
REMARK                         _______ _______ _______ _____ _____    ______ ____
ROOT
ATOM      1  C   UNL     1       6.598   4.971  16.480  0.00  0.00    +0.000 A 
ATOM      2  N   UNL     1       7.661   5.419  17.277  0.00  0.00    +0.000 N 
ATOM      3  C   UNL     1       7.553   5.607  18.643  0.00  0.00    +0.000 A 
ATOM      4  C   UNL     1       6.404   5.397  19.315  0.00  0.00    +0.000 A 
ATOM      5  C   UNL     1       5.270   4.958  18.519  0.00  0.00    +0.000 A 
ATOM      6  C   UNL     1       4.022   4.670  18.885  0.00  0.00    +0.000 A 
ATOM      7  C   UNL     1       3.267   4.646  20.095  0.00  0.00    +0.000 A 
ATOM      8  C   UNL     1       1.977   4.270  20.041  0.00  0.00    +0.000 A 
ATOM      9  C   UNL     1       1.341   3.895  18.787  0.00  0.00    +0.000 A 
ATOM     10  C   UNL     1       1.991   3.896  17.610  0.00  0.00    +0.000 A 
ATOM     11  C   UNL     1       3.413   4.289  17.589  0.00  0.00    +0.000 A 
ATOM     12  N   UNL     1       4.191   4.332  16.552  0.00  0.00    +0.000 NA
ATOM     13  C   UNL     1       5.398   4.748  17.069  0.00  0.00    +0.000 A 
ATOM     14  H   UNL     1       8.535   5.609  16.800  0.00  0.00    +0.000 HD
ENDROOT
BRANCH   1  18
ATOM     15  C   UNL     1       6.642   3.970  12.939  0.00  0.00    +0.000 A 
ATOM     16  C   UNL     1       7.579   4.968  13.025  0.00  0.00    +0.000 A 
ATOM     17  O   UNL     1       7.680   5.419  14.300  0.00  0.00    +0.000 OA
ATOM     18  C   UNL     1       6.760   4.736  15.077  0.00  0.00    +0.000 A 
ATOM     19  C   UNL     1       6.126   3.819  14.241  0.00  0.00    +0.000 A 
ENDBRANCH   1  18
TORSDOF 1
ENDMDL
MODEL 2
REMARK VINA RESULT:      -8.2      1.842      3.578
REMARK  Name = 
REMARK  1 active torsions:
REMARK  status: ('A' for Active; 'I' for Inactive)
REMARK    1  A    between atoms: C_4  and  C_5
REMARK                            x       y       z     vdW  Elec       q    Type
REMARK                         _______ _______ _______ _____ _____    ______ ____
ROOT
ATOM      1  C   UNL     1       6.718   5.866  16.881  0.00  0.00    +0.000 A 
ATOM      2  N   UNL     1       7.260   5.188  15.780  0.00  0.00    +0.000 N 
ATOM      3  C   UNL     1       6.618   4.138  15.150  0.00  0.00    +0.000 A 
ATOM      4  C   UNL     1       5.427   3.664  15.564  0.00  0.00    +0.000 A 
ATOM      5  C   UNL     1       4.844   4.322  16.721  0.00  0.00    +0.000 A 
ATOM      6  C   UNL     1       3.697   4.090  17.356  0.00  0.00    +0.000 A 
ATOM      7  C   UNL     1       2.596   3.192  17.231  0.00  0.00    +0.000 A 
ATOM      8  C   UNL     1       1.581   3.292  18.107  0.00  0.00    +0.000 A 
ATOM      9  C   UNL     1       1.583   4.286  19.170  0.00  0.00    +0.000 A 
ATOM     10  C   UNL     1       2.586   5.162  19.348  0.00  0.00    +0.000 A 
ATOM     11  C   UNL     1       3.734   5.119  18.421  0.00  0.00    +0.000 A 
ATOM     12  N   UNL     1       4.774   5.895  18.438  0.00  0.00    +0.000 NA
ATOM     13  C   UNL     1       5.528   5.448  17.376  0.00  0.00    +0.000 A 
ATOM     14  H   UNL     1       8.167   5.505  15.456  0.00  0.00    +0.000 HD
ENDROOT
BRANCH   1  18
ATOM     15  C   UNL     1       8.605   8.386  18.786  0.00  0.00    +0.000 A 
ATOM     16  C   UNL     1       8.027   9.092  17.764  0.00  0.00    +0.000 A 
ATOM     17  O   UNL     1       7.275   8.275  16.985  0.00  0.00    +0.000 OA
ATOM     18  C   UNL     1       7.386   6.985  17.475  0.00  0.00    +0.000 A 
ATOM     19  C   UNL     1       8.196   7.050  18.607  0.00  0.00    +0.000 A 
ENDBRANCH   1  18
TORSDOF 1
ENDMDL
MODEL 3
REMARK VINA RESULT:      -7.8      1.857      3.485
REMARK  Name = 
REMARK  1 active torsions:
REMARK  status: ('A' for Active; 'I' for Inactive)
REMARK    1  A    between atoms: C_4  and  C_5
REMARK                            x       y       z     vdW  Elec       q    Type
REMARK                         _______ _______ _______ _____ _____    ______ ____
ROOT
ATOM      1  C   UNL     1       6.106   5.469  17.263  0.00  0.00    +0.000 A 
ATOM      2  N   UNL     1       6.391   4.683  16.137  0.00  0.00    +0.000 N 
ATOM      3  C   UNL     1       5.565   3.663  15.700  0.00  0.00    +0.000 A 
ATOM      4  C   UNL     1       4.428   3.327  16.341  0.00  0.00    +0.000 A 
ATOM      5  C   UNL     1       4.112   4.101  17.529  0.00  0.00    +0.000 A 
ATOM      6  C   UNL     1       3.076   4.013  18.362  0.00  0.00    +0.000 A 
ATOM      7  C   UNL     1       1.900   3.216  18.488  0.00  0.00    +0.000 A 
ATOM      8  C   UNL     1       1.063   3.460  19.511  0.00  0.00    +0.000 A 
ATOM      9  C   UNL     1       1.331   4.507  20.486  0.00  0.00    +0.000 A 
ATOM     10  C   UNL     1       2.419   5.295  20.430  0.00  0.00    +0.000 A 
ATOM     11  C   UNL     1       3.381   5.093  19.330  0.00  0.00    +0.000 A 
ATOM     12  N   UNL     1       4.469   5.768  19.117  0.00  0.00    +0.000 NA
ATOM     13  C   UNL     1       4.989   5.193  17.978  0.00  0.00    +0.000 A 
ATOM     14  H   UNL     1       7.251   4.895  15.645  0.00  0.00    +0.000 HD
ENDROOT
BRANCH   1  18
ATOM     15  C   UNL     1       8.474   7.915  18.661  0.00  0.00    +0.000 A 
ATOM     16  C   UNL     1       7.841   8.591  17.650  0.00  0.00    +0.000 A 
ATOM     17  O   UNL     1       6.914   7.799  17.055  0.00  0.00    +0.000 OA
ATOM     18  C   UNL     1       6.956   6.552  17.655  0.00  0.00    +0.000 A 
ATOM     19  C   UNL     1       7.910   6.624  18.669  0.00  0.00    +0.000 A 
ENDBRANCH   1  18
TORSDOF 1
ENDMDL
MODEL 4
REMARK VINA RESULT:      -7.7      1.912      2.513
REMARK  Name = 
REMARK  1 active torsions:
REMARK  status: ('A' for Active; 'I' for Inactive)
REMARK    1  A    between atoms: C_4  and  C_5
REMARK                            x       y       z     vdW  Elec       q    Type
REMARK                         _______ _______ _______ _____ _____    ______ ____
ROOT
ATOM      1  C   UNL     1       4.408   5.883  16.823  0.00  0.00    +0.000 A 
ATOM      2  N   UNL     1       4.153   7.262  16.858  0.00  0.00    +0.000 N 
ATOM      3  C   UNL     1       3.284   7.846  17.761  0.00  0.00    +0.000 A 
ATOM      4  C   UNL     1       2.591   7.129  18.666  0.00  0.00    +0.000 A 
ATOM      5  C   UNL     1       2.806   5.692  18.644  0.00  0.00    +0.000 A 
ATOM      6  C   UNL     1       2.278   4.731  19.401  0.00  0.00    +0.000 A 
ATOM      7  C   UNL     1       1.354   4.642  20.484  0.00  0.00    +0.000 A 
ATOM      8  C   UNL     1       1.083   3.431  21.000  0.00  0.00    +0.000 A 
ATOM      9  C   UNL     1       1.702   2.221  20.480  0.00  0.00    +0.000 A 
ATOM     10  C   UNL     1       2.579   2.230  19.463  0.00  0.00    +0.000 A 
ATOM     11  C   UNL     1       2.935   3.524  18.847  0.00  0.00    +0.000 A 
ATOM     12  N   UNL     1       3.769   3.717  17.873  0.00  0.00    +0.000 NA
ATOM     13  C   UNL     1       3.743   5.081  17.689  0.00  0.00    +0.000 A 
ATOM     14  H   UNL     1       4.642   7.829  16.174  0.00  0.00    +0.000 HD
ENDROOT
BRANCH   1  18
ATOM     15  C   UNL     1       6.437   4.096  14.327  0.00  0.00    +0.000 A 
ATOM     16  C   UNL     1       7.301   5.003  14.884  0.00  0.00    +0.000 A 
ATOM     17  O   UNL     1       6.677   5.725  15.849  0.00  0.00    +0.000 OA
ATOM     18  C   UNL     1       5.355   5.319  15.910  0.00  0.00    +0.000 A 
ATOM     19  C   UNL     1       5.204   4.292  14.979  0.00  0.00    +0.000 A 
ENDBRANCH   1  18
TORSDOF 1
ENDMDL
MODEL 5
REMARK VINA RESULT:      -7.7      2.770      6.012
REMARK  Name = 
REMARK  1 active torsions:
REMARK  status: ('A' for Active; 'I' for Inactive)
REMARK    1  A    between atoms: C_4  and  C_5
REMARK                            x       y       z     vdW  Elec       q    Type
REMARK                         _______ _______ _______ _____ _____    ______ ____
ROOT
ATOM      1  C   UNL     1       2.712   5.302  19.355  0.00  0.00    +0.000 A 
ATOM      2  N   UNL     1       2.245   6.612  19.536  0.00  0.00    +0.000 N 
ATOM      3  C   UNL     1       2.573   7.654  18.689  0.00  0.00    +0.000 A 
ATOM      4  C   UNL     1       3.393   7.497  17.632  0.00  0.00    +0.000 A 
ATOM      5  C   UNL     1       3.921   6.159  17.426  0.00  0.00    +0.000 A 
ATOM      6  C   UNL     1       4.741   5.693  16.485  0.00  0.00    +0.000 A 
ATOM      7  C   UNL     1       5.423   6.209  15.343  0.00  0.00    +0.000 A 
ATOM      8  C   UNL     1       6.180   5.371  14.613  0.00  0.00    +0.000 A 
ATOM      9  C   UNL     1       6.320   3.965  14.961  0.00  0.00    +0.000 A 
ATOM     10  C   UNL     1       5.708   3.412  16.022  0.00  0.00    +0.000 A 
ATOM     11  C   UNL     1       4.852   4.266  16.869  0.00  0.00    +0.000 A 
ATOM     12  N   UNL     1       4.180   3.896  17.915  0.00  0.00    +0.000 NA
ATOM     13  C   UNL     1       3.555   5.053  18.324  0.00  0.00    +0.000 A 
ATOM     14  H   UNL     1       1.643   6.770  20.336  0.00  0.00    +0.000 HD
ENDROOT
BRANCH   1  18
ATOM     15  C   UNL     1       1.160   2.701  21.445  0.00  0.00    +0.000 A 
ATOM     16  C   UNL     1       2.505   2.563  21.670  0.00  0.00    +0.000 A 
ATOM     17  O   UNL     1       3.203   3.489  20.966  0.00  0.00    +0.000 OA
ATOM     18  C   UNL     1       2.308   4.236  20.221  0.00  0.00    +0.000 A 
ATOM     19  C   UNL     1       1.033   3.764  20.530  0.00  0.00    +0.000 A 
ENDBRANCH   1  18
TORSDOF 1
ENDMDL
MODEL 6
REMARK VINA RESULT:      -7.4      2.497      3.105
REMARK  Name = 
REMARK  1 active torsions:
REMARK  status: ('A' for Active; 'I' for Inactive)
REMARK    1  A    between atoms: C_4  and  C_5
REMARK                            x       y       z     vdW  Elec       q    Type
REMARK                         _______ _______ _______ _____ _____    ______ ____
ROOT
ATOM      1  C   UNL     1       4.909   4.479  17.508  0.00  0.00    +0.000 A 
ATOM      2  N   UNL     1       4.991   3.390  18.387  0.00  0.00    +0.000 N 
ATOM      3  C   UNL     1       4.298   3.329  19.582  0.00  0.00    +0.000 A 
ATOM      4  C   UNL     1       3.503   4.329  20.009  0.00  0.00    +0.000 A 
ATOM      5  C   UNL     1       3.412   5.489  19.139  0.00  0.00    +0.000 A 
ATOM      6  C   UNL     1       2.719   6.619  19.280  0.00  0.00    +0.000 A 
ATOM      7  C   UNL     1       1.825   7.184  20.236  0.00  0.00    +0.000 A 
ATOM      8  C   UNL     1       1.308   8.401  19.993  0.00  0.00    +0.000 A 
ATOM      9  C   UNL     1       1.641   9.147  18.789  0.00  0.00    +0.000 A 
ATOM     10  C   UNL     1       2.475   8.677  17.847  0.00  0.00    +0.000 A 
ATOM     11  C   UNL     1       3.078   7.343  18.038  0.00  0.00    +0.000 A 
ATOM     12  N   UNL     1       3.888   6.734  17.228  0.00  0.00    +0.000 NA
ATOM     13  C   UNL     1       4.142   5.539  17.863  0.00  0.00    +0.000 A 
ATOM     14  H   UNL     1       5.599   2.628  18.106  0.00  0.00    +0.000 HD
ENDROOT
BRANCH   1  18
ATOM     15  C   UNL     1       7.096   4.723  14.559  0.00  0.00    +0.000 A 
ATOM     16  C   UNL     1       5.930   4.188  14.076  0.00  0.00    +0.000 A 
ATOM     17  O   UNL     1       5.016   4.062  15.071  0.00  0.00    +0.000 OA
ATOM     18  C   UNL     1       5.598   4.484  16.254  0.00  0.00    +0.000 A 
ATOM     19  C   UNL     1       6.886   4.916  15.938  0.00  0.00    +0.000 A 
ENDBRANCH   1  18
TORSDOF 1
ENDMDL
MODEL 7
REMARK VINA RESULT:      -7.4      1.978      5.518
REMARK  Name = 
REMARK  1 active torsions:
REMARK  status: ('A' for Active; 'I' for Inactive)
REMARK    1  A    between atoms: C_4  and  C_5
REMARK                            x       y       z     vdW  Elec       q    Type
REMARK                         _______ _______ _______ _____ _____    ______ ____
ROOT
ATOM      1  C   UNL     1       4.882   4.555  17.538  0.00  0.00    +0.000 A 
ATOM      2  N   UNL     1       5.547   5.387  18.450  0.00  0.00    +0.000 N 
ATOM      3  C   UNL     1       6.658   6.139  18.116  0.00  0.00    +0.000 A 
ATOM      4  C   UNL     1       7.207   6.113  16.885  0.00  0.00    +0.000 A 
ATOM      5  C   UNL     1       6.563   5.241  15.917  0.00  0.00    +0.000 A 
ATOM      6  C   UNL     1       6.862   5.002  14.641  0.00  0.00    +0.000 A 
ATOM      7  C   UNL     1       7.841   5.434  13.699  0.00  0.00    +0.000 A 
ATOM      8  C   UNL     1       7.792   4.942  12.448  0.00  0.00    +0.000 A 
ATOM      9  C   UNL     1       6.774   3.985  12.042  0.00  0.00    +0.000 A 
ATOM     10  C   UNL     1       5.822   3.534  12.876  0.00  0.00    +0.000 A 
ATOM     11  C   UNL     1       5.805   4.034  14.265  0.00  0.00    +0.000 A 
ATOM     12  N   UNL     1       4.955   3.719  15.193  0.00  0.00    +0.000 NA
ATOM     13  C   UNL     1       5.373   4.455  16.279  0.00  0.00    +0.000 A 
ATOM     14  H   UNL     1       5.174   5.414  19.393  0.00  0.00    +0.000 HD
ENDROOT
BRANCH   1  18
ATOM     15  C   UNL     1       1.575   3.140  18.312  0.00  0.00    +0.000 A 
ATOM     16  C   UNL     1       2.462   2.175  18.714  0.00  0.00    +0.000 A 
ATOM     17  O   UNL     1       3.739   2.583  18.501  0.00  0.00    +0.000 OA
ATOM     18  C   UNL     1       3.703   3.832  17.905  0.00  0.00    +0.000 A 
ATOM     19  C   UNL     1       2.360   4.193  17.804  0.00  0.00    +0.000 A 
ENDBRANCH   1  18
TORSDOF 1
ENDMDL
MODEL 8
REMARK VINA RESULT:      -7.2      2.310      3.025
REMARK  Name = 
REMARK  1 active torsions:
REMARK  status: ('A' for Active; 'I' for Inactive)
REMARK    1  A    between atoms: C_4  and  C_5
REMARK                            x       y       z     vdW  Elec       q    Type
REMARK                         _______ _______ _______ _____ _____    ______ ____
ROOT
ATOM      1  C   UNL     1       4.852   4.252  17.772  0.00  0.00    +0.000 A 
ATOM      2  N   UNL     1       4.918   3.090  18.555  0.00  0.00    +0.000 N 
ATOM      3  C   UNL     1       4.191   2.922  19.719  0.00  0.00    +0.000 A 
ATOM      4  C   UNL     1       3.376   3.878  20.208  0.00  0.00    +0.000 A 
ATOM      5  C   UNL     1       3.302   5.109  19.440  0.00  0.00    +0.000 A 
ATOM      6  C   UNL     1       2.597   6.218  19.658  0.00  0.00    +0.000 A 
ATOM      7  C   UNL     1       1.671   6.693  20.633  0.00  0.00    +0.000 A 
ATOM      8  C   UNL     1       1.152   7.924  20.482  0.00  0.00    +0.000 A 
ATOM      9  C   UNL     1       1.514   8.774  19.357  0.00  0.00    +0.000 A 
ATOM     10  C   UNL     1       2.379   8.392  18.402  0.00  0.00    +0.000 A 
ATOM     11  C   UNL     1       2.986   7.050  18.495  0.00  0.00    +0.000 A 
ATOM     12  N   UNL     1       3.824   6.517  17.659  0.00  0.00    +0.000 NA
ATOM     13  C   UNL     1       4.068   5.273  18.195  0.00  0.00    +0.000 A 
ATOM     14  H   UNL     1       5.539   2.359  18.227  0.00  0.00    +0.000 HD
ENDROOT
BRANCH   1  18
ATOM     15  C   UNL     1       6.258   4.377  14.374  0.00  0.00    +0.000 A 
ATOM     16  C   UNL     1       7.295   4.755  15.187  0.00  0.00    +0.000 A 
ATOM     17  O   UNL     1       6.913   4.732  16.488  0.00  0.00    +0.000 OA
ATOM     18  C   UNL     1       5.578   4.369  16.544  0.00  0.00    +0.000 A 
ATOM     19  C   UNL     1       5.170   4.127  15.233  0.00  0.00    +0.000 A 
ENDBRANCH   1  18
TORSDOF 1
ENDMDL
MODEL 9
REMARK VINA RESULT:      -7.0      3.712      5.393
REMARK  Name = 
REMARK  1 active torsions:
REMARK  status: ('A' for Active; 'I' for Inactive)
REMARK    1  A    between atoms: C_4  and  C_5
REMARK                            x       y       z     vdW  Elec       q    Type
REMARK                         _______ _______ _______ _____ _____    ______ ____
ROOT
ATOM      1  C   UNL     1       3.038   7.340  17.957  0.00  0.00    +0.000 A 
ATOM      2  N   UNL     1       4.145   7.657  17.156  0.00  0.00    +0.000 N 
ATOM      3  C   UNL     1       4.981   6.700  16.611  0.00  0.00    +0.000 A 
ATOM      4  C   UNL     1       4.811   5.381  16.829  0.00  0.00    +0.000 A 
ATOM      5  C   UNL     1       3.690   5.013  17.677  0.00  0.00    +0.000 A 
ATOM      6  C   UNL     1       3.266   3.813  18.070  0.00  0.00    +0.000 A 
ATOM      7  C   UNL     1       3.650   2.453  17.875  0.00  0.00    +0.000 A 
ATOM      8  C   UNL     1       2.922   1.488  18.463  0.00  0.00    +0.000 A 
ATOM      9  C   UNL     1       1.764   1.798  19.289  0.00  0.00    +0.000 A 
ATOM     10  C   UNL     1       1.347   3.055  19.517  0.00  0.00    +0.000 A 
ATOM     11  C   UNL     1       2.090   4.170  18.898  0.00  0.00    +0.000 A 
ATOM     12  N   UNL     1       1.819   5.435  19.000  0.00  0.00    +0.000 NA
ATOM     13  C   UNL     1       2.798   6.037  18.241  0.00  0.00    +0.000 A 
ATOM     14  H   UNL     1       4.315   8.642  16.990  0.00  0.00    +0.000 HD
ENDROOT
BRANCH   1  18
ATOM     15  C   UNL     1       0.819  10.167  18.748  0.00  0.00    +0.000 A 
ATOM     16  C   UNL     1       0.922   9.473  19.925  0.00  0.00    +0.000 A 
ATOM     17  O   UNL     1       1.740   8.402  19.777  0.00  0.00    +0.000 OA
ATOM     18  C   UNL     1       2.162   8.355  18.459  0.00  0.00    +0.000 A 
ATOM     19  C   UNL     1       1.608   9.462  17.819  0.00  0.00    +0.000 A 
ENDBRANCH   1  18
TORSDOF 1
ENDMDL
