MODEL 1
REMARK VINA RESULT:      -7.7      0.000      0.000
REMARK  Name = 
REMARK  15 active torsions:
REMARK  status: ('A' for Active; 'I' for Inactive)
REMARK    1  A    between atoms: C_1  and  O_2
REMARK    2  A    between atoms: O_2  and  C_3
REMARK    3  A    between atoms: C_3  and  C_5
REMARK    4  A    between atoms: C_5  and  C_6
REMARK    5  A    between atoms: C_6  and  N_7
REMARK    6  A    between atoms: C_6  and  C_18
REMARK    7  A    between atoms: C_8  and  O_10
REMARK    8  A    between atoms: O_10  and  C_11
REMARK    9  A    between atoms: C_11  and  C_12
REMARK   10  A    between atoms: C_18  and  C_19
REMARK   11  A    between atoms: C_18  and  C_29
REMARK   12  A    between atoms: C_19  and  O_21
REMARK   13  A    between atoms: O_21  and  C_22
REMARK   14  A    between atoms: C_22  and  C_23
REMARK   15  A    between atoms: C_29  and  C_30
REMARK                            x       y       z     vdW  Elec       q    Type
REMARK                         _______ _______ _______ _____ _____    ______ ____
ROOT
ATOM      1  C   UNL     1       4.313   5.032  19.054  0.00  0.00    +0.000 C 
ENDROOT
BRANCH   1   2
ATOM      2  N   UNL     1       3.648   6.071  18.264  0.00  0.00    +0.000 N 
ATOM      3  C   UNL     1       2.630   6.845  18.743  0.00  0.00    +0.000 C 
ATOM      4  O   UNL     1       2.122   6.704  19.847  0.00  0.00    +0.000 OA
ATOM      5  H   UNL     1       3.979   6.318  17.334  0.00  0.00    +0.000 HD
BRANCH   3   6
ATOM      6  O   UNL     1       2.288   7.764  17.821  0.00  0.00    +0.000 OA
BRANCH   6   7
ATOM      7  C   UNL     1       2.438   9.138  18.213  0.00  0.00    +0.000 C 
BRANCH   7   8
ATOM      8  C   UNL     1       1.085   9.701  18.571  0.00  0.00    +0.000 A 
ATOM      9  C   UNL     1       0.035   9.682  17.643  0.00  0.00    +0.000 A 
ATOM     10  C   UNL     1      -1.217  10.202  17.980  0.00  0.00    +0.000 A 
ATOM     11  C   UNL     1      -1.430  10.747  19.246  0.00  0.00    +0.000 A 
ATOM     12  C   UNL     1      -0.391  10.775  20.175  0.00  0.00    +0.000 A 
ATOM     13  C   UNL     1       0.862  10.257  19.838  0.00  0.00    +0.000 A 
ENDBRANCH   7   8
ENDBRANCH   6   7
ENDBRANCH   3   6
ENDBRANCH   1   2
BRANCH   1  14
ATOM     14  C   UNL     1       5.722   5.483  19.464  0.00  0.00    +0.000 C 
BRANCH  14  15
ATOM     15  C   UNL     1       6.687   5.443  18.307  0.00  0.00    +0.000 C 
ATOM     16  O   UNL     1       7.524   4.560  18.169  0.00  0.00    +0.000 OA
BRANCH  15  18
ATOM     17  C   UNL     1       7.516   7.509  17.521  0.00  0.00    +0.000 C 
ATOM     18  O   UNL     1       6.497   6.505  17.484  0.00  0.00    +0.000 OA
ENDBRANCH  15  18
ENDBRANCH  14  15
ENDBRANCH   1  14
BRANCH   1  19
ATOM     19  C   UNL     1       4.260   3.632  18.379  0.00  0.00    +0.000 C 
BRANCH  19  20
ATOM     20  C   UNL     1       3.540   2.490  19.149  0.00  0.00    +0.000 C 
ATOM     21  C   UNL     1       3.717   1.114  18.483  0.00  0.00    +0.000 C 
ATOM     22  O   UNL     1       2.125   2.770  19.157  0.00  0.00    +0.000 OA
ATOM     23  C   UNL     1       1.691   2.555  20.501  0.00  0.00    +0.000 C 
ATOM     24  C   UNL     1       2.924   2.736  21.341  0.00  0.00    +0.000 C 
ATOM     25  O   UNL     1       4.001   2.330  20.498  0.00  0.00    +0.000 OA
ENDBRANCH  19  20
BRANCH  19  26
ATOM     26  C   UNL     1       3.628   3.811  16.999  0.00  0.00    +0.000 C 
ATOM     27  O   UNL     1       2.453   3.577  16.746  0.00  0.00    +0.000 OA
BRANCH  26  28
ATOM     28  O   UNL     1       4.493   4.318  16.078  0.00  0.00    +0.000 OA
BRANCH  28  29
ATOM     29  C   UNL     1       5.516   3.399  15.641  0.00  0.00    +0.000 C 
BRANCH  29  30
ATOM     30  C   UNL     1       6.209   3.887  14.393  0.00  0.00    +0.000 A 
ATOM     31  C   UNL     1       5.900   3.324  13.149  0.00  0.00    +0.000 A 
ATOM     32  C   UNL     1       6.530   3.771  11.986  0.00  0.00    +0.000 A 
ATOM     33  C   UNL     1       7.481   4.786  12.054  0.00  0.00    +0.000 A 
ATOM     34  C   UNL     1       7.791   5.368  13.281  0.00  0.00    +0.000 A 
ATOM     35  C   UNL     1       7.156   4.926  14.445  0.00  0.00    +0.000 A 
ENDBRANCH  29  30
ENDBRANCH  28  29
ENDBRANCH  26  28
ENDBRANCH  19  26
ENDBRANCH   1  19
TORSDOF 13
ENDMDL
MODEL 2
REMARK VINA RESULT:      -7.7      2.807      6.962
REMARK  Name = 
REMARK  15 active torsions:
REMARK  status: ('A' for Active; 'I' for Inactive)
REMARK    1  A    between atoms: C_1  and  O_2
REMARK    2  A    between atoms: O_2  and  C_3
REMARK    3  A    between atoms: C_3  and  C_5
REMARK    4  A    between atoms: C_5  and  C_6
REMARK    5  A    between atoms: C_6  and  N_7
REMARK    6  A    between atoms: C_6  and  C_18
REMARK    7  A    between atoms: C_8  and  O_10
REMARK    8  A    between atoms: O_10  and  C_11
REMARK    9  A    between atoms: C_11  and  C_12
REMARK   10  A    between atoms: C_18  and  C_19
REMARK   11  A    between atoms: C_18  and  C_29
REMARK   12  A    between atoms: C_19  and  O_21
REMARK   13  A    between atoms: O_21  and  C_22
REMARK   14  A    between atoms: C_22  and  C_23
REMARK   15  A    between atoms: C_29  and  C_30
REMARK                            x       y       z     vdW  Elec       q    Type
REMARK                         _______ _______ _______ _____ _____    ______ ____
ROOT
ATOM      1  C   UNL     1       6.280   6.091  17.072  0.00  0.00    +0.000 C 
ENDROOT
BRANCH   1   2
ATOM      2  N   UNL     1       6.971   7.377  16.948  0.00  0.00    +0.000 N 
ATOM      3  C   UNL     1       7.970   7.778  17.789  0.00  0.00    +0.000 C 
ATOM      4  O   UNL     1       8.338   7.145  18.768  0.00  0.00    +0.000 OA
ATOM      5  H   UNL     1       6.787   8.001  16.166  0.00  0.00    +0.000 HD
BRANCH   3   6
ATOM      6  O   UNL     1       8.466   8.957  17.370  0.00  0.00    +0.000 OA
BRANCH   6   7
ATOM      7  C   UNL     1       8.088  10.110  18.138  0.00  0.00    +0.000 C 
BRANCH   7   8
ATOM      8  C   UNL     1       9.329  10.775  18.678  0.00  0.00    +0.000 A 
ATOM      9  C   UNL     1      10.355  11.182  17.814  0.00  0.00    +0.000 A 
ATOM     10  C   UNL     1      11.502  11.801  18.317  0.00  0.00    +0.000 A 
ATOM     11  C   UNL     1      11.635  12.015  19.689  0.00  0.00    +0.000 A 
ATOM     12  C   UNL     1      10.624  11.610  20.558  0.00  0.00    +0.000 A 
ATOM     13  C   UNL     1       9.477  10.990  20.055  0.00  0.00    +0.000 A 
ENDBRANCH   7   8
ENDBRANCH   6   7
ENDBRANCH   3   6
ENDBRANCH   1   2
BRANCH   1  14
ATOM     14  C   UNL     1       5.629   5.696  15.739  0.00  0.00    +0.000 C 
BRANCH  14  15
ATOM     15  C   UNL     1       6.597   4.988  14.826  0.00  0.00    +0.000 C 
ATOM     16  O   UNL     1       7.716   5.421  14.579  0.00  0.00    +0.000 OA
BRANCH  15  18
ATOM     17  C   UNL     1       6.215   3.641  12.926  0.00  0.00    +0.000 C 
ATOM     18  O   UNL     1       6.049   3.850  14.331  0.00  0.00    +0.000 OA
ENDBRANCH  15  18
ENDBRANCH  14  15
ENDBRANCH   1  14
BRANCH   1  19
ATOM     19  C   UNL     1       5.320   6.036  18.294  0.00  0.00    +0.000 C 
BRANCH  19  20
ATOM     20  C   UNL     1       3.795   6.159  18.017  0.00  0.00    +0.000 C 
ATOM     21  C   UNL     1       3.273   5.079  17.051  0.00  0.00    +0.000 C 
ATOM     22  O   UNL     1       3.549   7.433  17.389  0.00  0.00    +0.000 OA
ATOM     23  C   UNL     1       2.426   7.995  18.069  0.00  0.00    +0.000 C 
ATOM     24  C   UNL     1       2.421   7.336  19.420  0.00  0.00    +0.000 C 
ATOM     25  O   UNL     1       2.988   6.046  19.197  0.00  0.00    +0.000 OA
ENDBRANCH  19  20
BRANCH  19  26
ATOM     26  C   UNL     1       5.610   4.737  19.046  0.00  0.00    +0.000 C 
ATOM     27  O   UNL     1       6.196   4.681  20.120  0.00  0.00    +0.000 OA
BRANCH  26  28
ATOM     28  O   UNL     1       5.098   3.637  18.429  0.00  0.00    +0.000 OA
BRANCH  28  29
ATOM     29  C   UNL     1       4.671   2.586  19.322  0.00  0.00    +0.000 C 
BRANCH  29  30
ATOM     30  C   UNL     1       3.192   2.665  19.610  0.00  0.00    +0.000 A 
ATOM     31  C   UNL     1       2.740   3.118  20.856  0.00  0.00    +0.000 A 
ATOM     32  C   UNL     1       1.373   3.200  21.132  0.00  0.00    +0.000 A 
ATOM     33  C   UNL     1       0.442   2.828  20.165  0.00  0.00    +0.000 A 
ATOM     34  C   UNL     1       0.874   2.390  18.915  0.00  0.00    +0.000 A 
ATOM     35  C   UNL     1       2.242   2.312  18.635  0.00  0.00    +0.000 A 
ENDBRANCH  29  30
ENDBRANCH  28  29
ENDBRANCH  26  28
ENDBRANCH  19  26
ENDBRANCH   1  19
TORSDOF 13
ENDMDL
MODEL 3
REMARK VINA RESULT:      -7.6      2.192      6.627
REMARK  Name = 
REMARK  15 active torsions:
REMARK  status: ('A' for Active; 'I' for Inactive)
REMARK    1  A    between atoms: C_1  and  O_2
REMARK    2  A    between atoms: O_2  and  C_3
REMARK    3  A    between atoms: C_3  and  C_5
REMARK    4  A    between atoms: C_5  and  C_6
REMARK    5  A    between atoms: C_6  and  N_7
REMARK    6  A    between atoms: C_6  and  C_18
REMARK    7  A    between atoms: C_8  and  O_10
REMARK    8  A    between atoms: O_10  and  C_11
REMARK    9  A    between atoms: C_11  and  C_12
REMARK   10  A    between atoms: C_18  and  C_19
REMARK   11  A    between atoms: C_18  and  C_29
REMARK   12  A    between atoms: C_19  and  O_21
REMARK   13  A    between atoms: O_21  and  C_22
REMARK   14  A    between atoms: C_22  and  C_23
REMARK   15  A    between atoms: C_29  and  C_30
REMARK                            x       y       z     vdW  Elec       q    Type
REMARK                         _______ _______ _______ _____ _____    ______ ____
ROOT
ATOM      1  C   UNL     1       5.468   5.108  17.004  0.00  0.00    +0.000 C 
ENDROOT
BRANCH   1   2
ATOM      2  N   UNL     1       6.324   6.171  17.538  0.00  0.00    +0.000 N 
ATOM      3  C   UNL     1       7.533   5.938  18.128  0.00  0.00    +0.000 C 
ATOM      4  O   UNL     1       7.991   4.824  18.337  0.00  0.00    +0.000 OA
ATOM      5  H   UNL     1       6.083   7.152  17.415  0.00  0.00    +0.000 HD
BRANCH   3   6
ATOM      6  O   UNL     1       8.119   7.111  18.434  0.00  0.00    +0.000 OA
BRANCH   6   7
ATOM      7  C   UNL     1       7.700   8.247  17.661  0.00  0.00    +0.000 C 
BRANCH   7   8
ATOM      8  C   UNL     1       8.383   9.484  18.188  0.00  0.00    +0.000 A 
ATOM      9  C   UNL     1       9.080   9.453  19.403  0.00  0.00    +0.000 A 
ATOM     10  C   UNL     1       9.714  10.600  19.886  0.00  0.00    +0.000 A 
ATOM     11  C   UNL     1       9.654  11.789  19.160  0.00  0.00    +0.000 A 
ATOM     12  C   UNL     1       8.959  11.833  17.952  0.00  0.00    +0.000 A 
ATOM     13  C   UNL     1       8.323  10.686  17.470  0.00  0.00    +0.000 A 
ENDBRANCH   7   8
ENDBRANCH   6   7
ENDBRANCH   3   6
ENDBRANCH   1   2
BRANCH   1  14
ATOM     14  C   UNL     1       5.368   5.211  15.476  0.00  0.00    +0.000 C 
BRANCH  14  15
ATOM     15  C   UNL     1       6.667   4.858  14.799  0.00  0.00    +0.000 C 
ATOM     16  O   UNL     1       7.696   5.504  14.955  0.00  0.00    +0.000 OA
BRANCH  15  18
ATOM     17  C   UNL     1       5.392   3.783  13.128  0.00  0.00    +0.000 C 
ATOM     18  O   UNL     1       6.518   3.763  14.011  0.00  0.00    +0.000 OA
ENDBRANCH  15  18
ENDBRANCH  14  15
ENDBRANCH   1  14
BRANCH   1  19
ATOM     19  C   UNL     1       4.097   5.013  17.730  0.00  0.00    +0.000 C 
BRANCH  19  20
ATOM     20  C   UNL     1       3.433   3.611  17.832  0.00  0.00    +0.000 C 
ATOM     21  C   UNL     1       4.182   2.534  17.025  0.00  0.00    +0.000 C 
ATOM     22  O   UNL     1       2.104   3.696  17.280  0.00  0.00    +0.000 OA
ATOM     23  C   UNL     1       1.249   3.032  18.212  0.00  0.00    +0.000 C 
ATOM     24  C   UNL     1       1.978   3.102  19.525  0.00  0.00    +0.000 C 
ATOM     25  O   UNL     1       3.360   3.108  19.174  0.00  0.00    +0.000 OA
ENDBRANCH  19  20
BRANCH  19  26
ATOM     26  C   UNL     1       4.275   5.608  19.127  0.00  0.00    +0.000 C 
ATOM     27  O   UNL     1       5.227   5.370  19.859  0.00  0.00    +0.000 OA
BRANCH  26  28
ATOM     28  O   UNL     1       3.290   6.487  19.462  0.00  0.00    +0.000 OA
BRANCH  28  29
ATOM     29  C   UNL     1       2.799   7.289  18.367  0.00  0.00    +0.000 C 
BRANCH  29  30
ATOM     30  C   UNL     1       1.880   8.386  18.848  0.00  0.00    +0.000 A 
ATOM     31  C   UNL     1       1.472   8.426  20.187  0.00  0.00    +0.000 A 
ATOM     32  C   UNL     1       0.626   9.439  20.645  0.00  0.00    +0.000 A 
ATOM     33  C   UNL     1       0.176  10.422  19.768  0.00  0.00    +0.000 A 
ATOM     34  C   UNL     1       0.583  10.405  18.435  0.00  0.00    +0.000 A 
ATOM     35  C   UNL     1       1.435   9.396  17.977  0.00  0.00    +0.000 A 
ENDBRANCH  29  30
ENDBRANCH  28  29
ENDBRANCH  26  28
ENDBRANCH  19  26
ENDBRANCH   1  19
TORSDOF 13
ENDMDL
MODEL 4
REMARK VINA RESULT:      -7.2      0.918      1.265
REMARK  Name = 
REMARK  15 active torsions:
REMARK  status: ('A' for Active; 'I' for Inactive)
REMARK    1  A    between atoms: C_1  and  O_2
REMARK    2  A    between atoms: O_2  and  C_3
REMARK    3  A    between atoms: C_3  and  C_5
REMARK    4  A    between atoms: C_5  and  C_6
REMARK    5  A    between atoms: C_6  and  N_7
REMARK    6  A    between atoms: C_6  and  C_18
REMARK    7  A    between atoms: C_8  and  O_10
REMARK    8  A    between atoms: O_10  and  C_11
REMARK    9  A    between atoms: C_11  and  C_12
REMARK   10  A    between atoms: C_18  and  C_19
REMARK   11  A    between atoms: C_18  and  C_29
REMARK   12  A    between atoms: C_19  and  O_21
REMARK   13  A    between atoms: O_21  and  C_22
REMARK   14  A    between atoms: C_22  and  C_23
REMARK   15  A    between atoms: C_29  and  C_30
REMARK                            x       y       z     vdW  Elec       q    Type
REMARK                         _______ _______ _______ _____ _____    ______ ____
ROOT
ATOM      1  C   UNL     1       4.671   4.937  19.277  0.00  0.00    +0.000 C 
ENDROOT
BRANCH   1   2
ATOM      2  N   UNL     1       4.170   6.037  18.450  0.00  0.00    +0.000 N 
ATOM      3  C   UNL     1       3.108   6.819  18.801  0.00  0.00    +0.000 C 
ATOM      4  O   UNL     1       2.423   6.638  19.798  0.00  0.00    +0.000 OA
ATOM      5  H   UNL     1       4.655   6.321  17.601  0.00  0.00    +0.000 HD
BRANCH   3   6
ATOM      6  O   UNL     1       2.944   7.796  17.889  0.00  0.00    +0.000 OA
BRANCH   6   7
ATOM      7  C   UNL     1       1.611   8.311  17.749  0.00  0.00    +0.000 C 
BRANCH   7   8
ATOM      8  C   UNL     1       1.531   9.665  18.408  0.00  0.00    +0.000 A 
ATOM      9  C   UNL     1       0.781   9.847  19.577  0.00  0.00    +0.000 A 
ATOM     10  C   UNL     1       0.712  11.103  20.187  0.00  0.00    +0.000 A 
ATOM     11  C   UNL     1       1.390  12.187  19.630  0.00  0.00    +0.000 A 
ATOM     12  C   UNL     1       2.135  12.019  18.464  0.00  0.00    +0.000 A 
ATOM     13  C   UNL     1       2.202  10.764  17.853  0.00  0.00    +0.000 A 
ENDBRANCH   7   8
ENDBRANCH   6   7
ENDBRANCH   3   6
ENDBRANCH   1   2
BRANCH   1  14
ATOM     14  C   UNL     1       6.114   5.208  19.723  0.00  0.00    +0.000 C 
BRANCH  14  15
ATOM     15  C   UNL     1       7.014   5.537  18.559  0.00  0.00    +0.000 C 
ATOM     16  O   UNL     1       7.788   4.725  18.068  0.00  0.00    +0.000 OA
BRANCH  15  18
ATOM     17  C   UNL     1       7.640   7.245  17.055  0.00  0.00    +0.000 C 
ATOM     18  O   UNL     1       6.846   6.825  18.169  0.00  0.00    +0.000 OA
ENDBRANCH  15  18
ENDBRANCH  14  15
ENDBRANCH   1  14
BRANCH   1  19
ATOM     19  C   UNL     1       4.456   3.542  18.624  0.00  0.00    +0.000 C 
BRANCH  19  20
ATOM     20  C   UNL     1       3.420   2.591  19.285  0.00  0.00    +0.000 C 
ATOM     21  C   UNL     1       3.376   1.201  18.625  0.00  0.00    +0.000 C 
ATOM     22  O   UNL     1       2.108   3.169  19.128  0.00  0.00    +0.000 OA
ATOM     23  C   UNL     1       1.480   3.068  20.407  0.00  0.00    +0.000 C 
ATOM     24  C   UNL     1       2.613   2.989  21.391  0.00  0.00    +0.000 C 
ATOM     25  O   UNL     1       3.670   2.351  20.677  0.00  0.00    +0.000 OA
ENDBRANCH  19  20
BRANCH  19  26
ATOM     26  C   UNL     1       4.090   3.774  17.158  0.00  0.00    +0.000 C 
ATOM     27  O   UNL     1       2.962   4.043  16.765  0.00  0.00    +0.000 OA
BRANCH  26  28
ATOM     28  O   UNL     1       5.164   3.707  16.323  0.00  0.00    +0.000 OA
BRANCH  28  29
ATOM     29  C   UNL     1       5.380   4.888  15.522  0.00  0.00    +0.000 C 
BRANCH  29  30
ATOM     30  C   UNL     1       5.988   4.550  14.182  0.00  0.00    +0.000 A 
ATOM     31  C   UNL     1       5.327   3.677  13.309  0.00  0.00    +0.000 A 
ATOM     32  C   UNL     1       5.876   3.360  12.065  0.00  0.00    +0.000 A 
ATOM     33  C   UNL     1       7.096   3.911  11.680  0.00  0.00    +0.000 A 
ATOM     34  C   UNL     1       7.760   4.793  12.530  0.00  0.00    +0.000 A 
ATOM     35  C   UNL     1       7.209   5.115  13.773  0.00  0.00    +0.000 A 
ENDBRANCH  29  30
ENDBRANCH  28  29
ENDBRANCH  26  28
ENDBRANCH  19  26
ENDBRANCH   1  19
TORSDOF 13
ENDMDL
MODEL 5
REMARK VINA RESULT:      -7.2      2.730      6.798
REMARK  Name = 
REMARK  15 active torsions:
REMARK  status: ('A' for Active; 'I' for Inactive)
REMARK    1  A    between atoms: C_1  and  O_2
REMARK    2  A    between atoms: O_2  and  C_3
REMARK    3  A    between atoms: C_3  and  C_5
REMARK    4  A    between atoms: C_5  and  C_6
REMARK    5  A    between atoms: C_6  and  N_7
REMARK    6  A    between atoms: C_6  and  C_18
REMARK    7  A    between atoms: C_8  and  O_10
REMARK    8  A    between atoms: O_10  and  C_11
REMARK    9  A    between atoms: C_11  and  C_12
REMARK   10  A    between atoms: C_18  and  C_19
REMARK   11  A    between atoms: C_18  and  C_29
REMARK   12  A    between atoms: C_19  and  O_21
REMARK   13  A    between atoms: O_21  and  C_22
REMARK   14  A    between atoms: C_22  and  C_23
REMARK   15  A    between atoms: C_29  and  C_30
REMARK                            x       y       z     vdW  Elec       q    Type
REMARK                         _______ _______ _______ _____ _____    ______ ____
ROOT
ATOM      1  C   UNL     1       6.385   5.375  17.420  0.00  0.00    +0.000 C 
ENDROOT
BRANCH   1   2
ATOM      2  N   UNL     1       6.870   6.757  17.424  0.00  0.00    +0.000 N 
ATOM      3  C   UNL     1       7.857   7.206  18.254  0.00  0.00    +0.000 C 
ATOM      4  O   UNL     1       8.383   6.527  19.125  0.00  0.00    +0.000 OA
ATOM      5  H   UNL     1       6.541   7.432  16.738  0.00  0.00    +0.000 HD
BRANCH   3   6
ATOM      6  O   UNL     1       8.144   8.488  17.963  0.00  0.00    +0.000 OA
BRANCH   6   7
ATOM      7  C   UNL     1       9.077   9.141  18.838  0.00  0.00    +0.000 C 
BRANCH   7   8
ATOM      8  C   UNL     1       8.989  10.633  18.632  0.00  0.00    +0.000 A 
ATOM      9  C   UNL     1       9.670  11.513  19.484  0.00  0.00    +0.000 A 
ATOM     10  C   UNL     1       9.589  12.894  19.288  0.00  0.00    +0.000 A 
ATOM     11  C   UNL     1       8.825  13.407  18.240  0.00  0.00    +0.000 A 
ATOM     12  C   UNL     1       8.140  12.541  17.389  0.00  0.00    +0.000 A 
ATOM     13  C   UNL     1       8.219  11.160  17.586  0.00  0.00    +0.000 A 
ENDBRANCH   7   8
ENDBRANCH   6   7
ENDBRANCH   3   6
ENDBRANCH   1   2
BRANCH   1  14
ATOM     14  C   UNL     1       7.301   4.482  16.572  0.00  0.00    +0.000 C 
BRANCH  14  15
ATOM     15  C   UNL     1       7.082   4.689  15.095  0.00  0.00    +0.000 C 
ATOM     16  O   UNL     1       7.563   5.630  14.477  0.00  0.00    +0.000 OA
BRANCH  15  18
ATOM     17  C   UNL     1       6.144   3.713  13.161  0.00  0.00    +0.000 C 
ATOM     18  O   UNL     1       6.290   3.713  14.584  0.00  0.00    +0.000 OA
ENDBRANCH  15  18
ENDBRANCH  14  15
ENDBRANCH   1  14
BRANCH   1  19
ATOM     19  C   UNL     1       4.876   5.264  17.064  0.00  0.00    +0.000 C 
BRANCH  19  20
ATOM     20  C   UNL     1       3.945   4.560  18.091  0.00  0.00    +0.000 C 
ATOM     21  C   UNL     1       4.051   5.159  19.505  0.00  0.00    +0.000 C 
ATOM     22  O   UNL     1       4.344   3.178  18.193  0.00  0.00    +0.000 OA
ATOM     23  C   UNL     1       3.138   2.416  18.128  0.00  0.00    +0.000 C 
ATOM     24  C   UNL     1       2.157   3.301  17.410  0.00  0.00    +0.000 C 
ATOM     25  O   UNL     1       2.554   4.629  17.745  0.00  0.00    +0.000 OA
ENDBRANCH  19  20
BRANCH  19  26
ATOM     26  C   UNL     1       4.366   6.677  16.781  0.00  0.00    +0.000 C 
ATOM     27  O   UNL     1       4.437   7.227  15.690  0.00  0.00    +0.000 OA
BRANCH  26  28
ATOM     28  O   UNL     1       3.765   7.253  17.859  0.00  0.00    +0.000 OA
BRANCH  28  29
ATOM     29  C   UNL     1       2.541   7.959  17.562  0.00  0.00    +0.000 C 
BRANCH  29  30
ATOM     30  C   UNL     1       1.880   8.479  18.815  0.00  0.00    +0.000 A 
ATOM     31  C   UNL     1       1.284   9.746  18.822  0.00  0.00    +0.000 A 
ATOM     32  C   UNL     1       0.664  10.237  19.973  0.00  0.00    +0.000 A 
ATOM     33  C   UNL     1       0.635   9.466  21.133  0.00  0.00    +0.000 A 
ATOM     34  C   UNL     1       1.209   8.196  21.139  0.00  0.00    +0.000 A 
ATOM     35  C   UNL     1       1.825   7.701  19.986  0.00  0.00    +0.000 A 
ENDBRANCH  29  30
ENDBRANCH  28  29
ENDBRANCH  26  28
ENDBRANCH  19  26
ENDBRANCH   1  19
TORSDOF 13
ENDMDL
MODEL 6
REMARK VINA RESULT:      -7.1      1.978      6.901
REMARK  Name = 
REMARK  15 active torsions:
REMARK  status: ('A' for Active; 'I' for Inactive)
REMARK    1  A    between atoms: C_1  and  O_2
REMARK    2  A    between atoms: O_2  and  C_3
REMARK    3  A    between atoms: C_3  and  C_5
REMARK    4  A    between atoms: C_5  and  C_6
REMARK    5  A    between atoms: C_6  and  N_7
REMARK    6  A    between atoms: C_6  and  C_18
REMARK    7  A    between atoms: C_8  and  O_10
REMARK    8  A    between atoms: O_10  and  C_11
REMARK    9  A    between atoms: C_11  and  C_12
REMARK   10  A    between atoms: C_18  and  C_19
REMARK   11  A    between atoms: C_18  and  C_29
REMARK   12  A    between atoms: C_19  and  O_21
REMARK   13  A    between atoms: O_21  and  C_22
REMARK   14  A    between atoms: C_22  and  C_23
REMARK   15  A    between atoms: C_29  and  C_30
REMARK                            x       y       z     vdW  Elec       q    Type
REMARK                         _______ _______ _______ _____ _____    ______ ____
ROOT
ATOM      1  C   UNL     1       5.223   5.755  18.058  0.00  0.00    +0.000 C 
ENDROOT
BRANCH   1   2
ATOM      2  N   UNL     1       5.849   5.407  16.780  0.00  0.00    +0.000 N 
ATOM      3  C   UNL     1       5.720   6.161  15.649  0.00  0.00    +0.000 C 
ATOM      4  O   UNL     1       5.015   7.157  15.565  0.00  0.00    +0.000 OA
ATOM      5  H   UNL     1       6.485   4.617  16.703  0.00  0.00    +0.000 HD
BRANCH   3   6
ATOM      6  O   UNL     1       6.478   5.637  14.668  0.00  0.00    +0.000 OA
BRANCH   6   7
ATOM      7  C   UNL     1       6.625   4.209  14.679  0.00  0.00    +0.000 C 
BRANCH   7   8
ATOM      8  C   UNL     1       6.114   3.647  13.376  0.00  0.00    +0.000 A 
ATOM      9  C   UNL     1       6.969   2.944  12.516  0.00  0.00    +0.000 A 
ATOM     10  C   UNL     1       6.491   2.422  11.312  0.00  0.00    +0.000 A 
ATOM     11  C   UNL     1       5.155   2.603  10.954  0.00  0.00    +0.000 A 
ATOM     12  C   UNL     1       4.297   3.306  11.798  0.00  0.00    +0.000 A 
ATOM     13  C   UNL     1       4.775   3.829  13.002  0.00  0.00    +0.000 A 
ENDBRANCH   7   8
ENDBRANCH   6   7
ENDBRANCH   3   6
ENDBRANCH   1   2
BRANCH   1  14
ATOM     14  C   UNL     1       6.255   5.723  19.193  0.00  0.00    +0.000 C 
BRANCH  14  15
ATOM     15  C   UNL     1       7.663   5.575  18.673  0.00  0.00    +0.000 C 
ATOM     16  O   UNL     1       8.091   4.528  18.203  0.00  0.00    +0.000 OA
BRANCH  15  18
ATOM     17  C   UNL     1       7.968   7.798  17.940  0.00  0.00    +0.000 C 
ATOM     18  O   UNL     1       8.353   6.734  18.816  0.00  0.00    +0.000 OA
ENDBRANCH  15  18
ENDBRANCH  14  15
ENDBRANCH   1  14
BRANCH   1  19
ATOM     19  C   UNL     1       3.933   4.934  18.343  0.00  0.00    +0.000 C 
BRANCH  19  20
ATOM     20  C   UNL     1       2.586   5.708  18.392  0.00  0.00    +0.000 C 
ATOM     21  C   UNL     1       1.457   4.993  17.627  0.00  0.00    +0.000 C 
ATOM     22  O   UNL     1       2.773   6.988  17.756  0.00  0.00    +0.000 OA
ATOM     23  C   UNL     1       2.174   7.949  18.627  0.00  0.00    +0.000 C 
ATOM     24  C   UNL     1       2.186   7.304  19.984  0.00  0.00    +0.000 C 
ATOM     25  O   UNL     1       2.087   5.905  19.722  0.00  0.00    +0.000 OA
ENDBRANCH  19  20
BRANCH  19  26
ATOM     26  C   UNL     1       3.858   3.820  17.299  0.00  0.00    +0.000 C 
ATOM     27  O   UNL     1       3.357   3.951  16.190  0.00  0.00    +0.000 OA
BRANCH  26  28
ATOM     28  O   UNL     1       4.460   2.668  17.704  0.00  0.00    +0.000 OA
BRANCH  28  29
ATOM     29  C   UNL     1       3.554   1.640  18.157  0.00  0.00    +0.000 C 
BRANCH  29  30
ATOM     30  C   UNL     1       2.758   2.088  19.358  0.00  0.00    +0.000 A 
ATOM     31  C   UNL     1       3.404   2.356  20.571  0.00  0.00    +0.000 A 
ATOM     32  C   UNL     1       2.679   2.776  21.688  0.00  0.00    +0.000 A 
ATOM     33  C   UNL     1       1.297   2.931  21.606  0.00  0.00    +0.000 A 
ATOM     34  C   UNL     1       0.640   2.683  20.403  0.00  0.00    +0.000 A 
ATOM     35  C   UNL     1       1.365   2.268  19.282  0.00  0.00    +0.000 A 
ENDBRANCH  29  30
ENDBRANCH  28  29
ENDBRANCH  26  28
ENDBRANCH  19  26
ENDBRANCH   1  19
TORSDOF 13
ENDMDL
MODEL 7
REMARK VINA RESULT:      -7.1      1.236      1.574
REMARK  Name = 
REMARK  15 active torsions:
REMARK  status: ('A' for Active; 'I' for Inactive)
REMARK    1  A    between atoms: C_1  and  O_2
REMARK    2  A    between atoms: O_2  and  C_3
REMARK    3  A    between atoms: C_3  and  C_5
REMARK    4  A    between atoms: C_5  and  C_6
REMARK    5  A    between atoms: C_6  and  N_7
REMARK    6  A    between atoms: C_6  and  C_18
REMARK    7  A    between atoms: C_8  and  O_10
REMARK    8  A    between atoms: O_10  and  C_11
REMARK    9  A    between atoms: C_11  and  C_12
REMARK   10  A    between atoms: C_18  and  C_19
REMARK   11  A    between atoms: C_18  and  C_29
REMARK   12  A    between atoms: C_19  and  O_21
REMARK   13  A    between atoms: O_21  and  C_22
REMARK   14  A    between atoms: C_22  and  C_23
REMARK   15  A    between atoms: C_29  and  C_30
REMARK                            x       y       z     vdW  Elec       q    Type
REMARK                         _______ _______ _______ _____ _____    ______ ____
ROOT
ATOM      1  C   UNL     1       4.572   5.072  19.452  0.00  0.00    +0.000 C 
ENDROOT
BRANCH   1   2
ATOM      2  N   UNL     1       3.341   5.804  19.761  0.00  0.00    +0.000 N 
ATOM      3  C   UNL     1       2.908   6.884  19.047  0.00  0.00    +0.000 C 
ATOM      4  O   UNL     1       3.534   7.394  18.128  0.00  0.00    +0.000 OA
ATOM      5  H   UNL     1       2.704   5.480  20.486  0.00  0.00    +0.000 HD
BRANCH   3   6
ATOM      6  O   UNL     1       1.710   7.283  19.513  0.00  0.00    +0.000 OA
BRANCH   6   7
ATOM      7  C   UNL     1       1.626   7.506  20.929  0.00  0.00    +0.000 C 
BRANCH   7   8
ATOM      8  C   UNL     1       0.818   8.753  21.186  0.00  0.00    +0.000 A 
ATOM      9  C   UNL     1       0.465   9.607  20.132  0.00  0.00    +0.000 A 
ATOM     10  C   UNL     1      -0.287  10.759  20.374  0.00  0.00    +0.000 A 
ATOM     11  C   UNL     1      -0.689  11.070  21.673  0.00  0.00    +0.000 A 
ATOM     12  C   UNL     1      -0.340  10.232  22.730  0.00  0.00    +0.000 A 
ATOM     13  C   UNL     1       0.413   9.080  22.488  0.00  0.00    +0.000 A 
ENDBRANCH   7   8
ENDBRANCH   6   7
ENDBRANCH   3   6
ENDBRANCH   1   2
BRANCH   1  14
ATOM     14  C   UNL     1       5.571   5.977  18.719  0.00  0.00    +0.000 C 
BRANCH  14  15
ATOM     15  C   UNL     1       6.995   5.691  19.123  0.00  0.00    +0.000 C 
ATOM     16  O   UNL     1       7.289   5.129  20.170  0.00  0.00    +0.000 OA
BRANCH  15  18
ATOM     17  C   UNL     1       7.493   7.372  17.542  0.00  0.00    +0.000 C 
ATOM     18  O   UNL     1       7.862   6.148  18.185  0.00  0.00    +0.000 OA
ENDBRANCH  15  18
ENDBRANCH  14  15
ENDBRANCH   1  14
BRANCH   1  19
ATOM     19  C   UNL     1       4.306   3.711  18.748  0.00  0.00    +0.000 C 
BRANCH  19  20
ATOM     20  C   UNL     1       3.278   2.749  19.407  0.00  0.00    +0.000 C 
ATOM     21  C   UNL     1       3.142   1.412  18.657  0.00  0.00    +0.000 C 
ATOM     22  O   UNL     1       1.980   3.379  19.373  0.00  0.00    +0.000 OA
ATOM     23  C   UNL     1       1.429   3.208  20.679  0.00  0.00    +0.000 C 
ATOM     24  C   UNL     1       2.616   3.023  21.582  0.00  0.00    +0.000 C 
ATOM     25  O   UNL     1       3.603   2.403  20.760  0.00  0.00    +0.000 OA
ENDBRANCH  19  20
BRANCH  19  26
ATOM     26  C   UNL     1       3.889   4.013  17.308  0.00  0.00    +0.000 C 
ATOM     27  O   UNL     1       2.804   4.483  16.991  0.00  0.00    +0.000 OA
BRANCH  26  28
ATOM     28  O   UNL     1       4.875   3.759  16.403  0.00  0.00    +0.000 OA
BRANCH  28  29
ATOM     29  C   UNL     1       5.373   4.924  15.711  0.00  0.00    +0.000 C 
BRANCH  29  30
ATOM     30  C   UNL     1       5.970   4.565  14.372  0.00  0.00    +0.000 A 
ATOM     31  C   UNL     1       5.307   3.669  13.523  0.00  0.00    +0.000 A 
ATOM     32  C   UNL     1       5.846   3.332  12.280  0.00  0.00    +0.000 A 
ATOM     33  C   UNL     1       7.057   3.886  11.872  0.00  0.00    +0.000 A 
ATOM     34  C   UNL     1       7.723   4.790  12.697  0.00  0.00    +0.000 A 
ATOM     35  C   UNL     1       7.181   5.132  13.940  0.00  0.00    +0.000 A 
ENDBRANCH  29  30
ENDBRANCH  28  29
ENDBRANCH  26  28
ENDBRANCH  19  26
ENDBRANCH   1  19
TORSDOF 13
ENDMDL
MODEL 8
REMARK VINA RESULT:      -7.1      2.122      6.668
REMARK  Name = 
REMARK  15 active torsions:
REMARK  status: ('A' for Active; 'I' for Inactive)
REMARK    1  A    between atoms: C_1  and  O_2
REMARK    2  A    between atoms: O_2  and  C_3
REMARK    3  A    between atoms: C_3  and  C_5
REMARK    4  A    between atoms: C_5  and  C_6
REMARK    5  A    between atoms: C_6  and  N_7
REMARK    6  A    between atoms: C_6  and  C_18
REMARK    7  A    between atoms: C_8  and  O_10
REMARK    8  A    between atoms: O_10  and  C_11
REMARK    9  A    between atoms: C_11  and  C_12
REMARK   10  A    between atoms: C_18  and  C_19
REMARK   11  A    between atoms: C_18  and  C_29
REMARK   12  A    between atoms: C_19  and  O_21
REMARK   13  A    between atoms: O_21  and  C_22
REMARK   14  A    between atoms: C_22  and  C_23
REMARK   15  A    between atoms: C_29  and  C_30
REMARK                            x       y       z     vdW  Elec       q    Type
REMARK                         _______ _______ _______ _____ _____    ______ ____
ROOT
ATOM      1  C   UNL     1       5.213   5.037  16.690  0.00  0.00    +0.000 C 
ENDROOT
BRANCH   1   2
ATOM      2  N   UNL     1       6.006   6.074  17.352  0.00  0.00    +0.000 N 
ATOM      3  C   UNL     1       7.293   5.887  17.768  0.00  0.00    +0.000 C 
ATOM      4  O   UNL     1       7.888   4.821  17.698  0.00  0.00    +0.000 OA
ATOM      5  H   UNL     1       5.650   7.022  17.458  0.00  0.00    +0.000 HD
BRANCH   3   6
ATOM      6  O   UNL     1       7.783   7.042  18.256  0.00  0.00    +0.000 OA
BRANCH   6   7
ATOM      7  C   UNL     1       7.480   8.225  17.500  0.00  0.00    +0.000 C 
BRANCH   7   8
ATOM      8  C   UNL     1       8.242   9.391  18.078  0.00  0.00    +0.000 A 
ATOM      9  C   UNL     1       8.974   9.249  19.265  0.00  0.00    +0.000 A 
ATOM     10  C   UNL     1       9.681  10.330  19.795  0.00  0.00    +0.000 A 
ATOM     11  C   UNL     1       9.660  11.565  19.146  0.00  0.00    +0.000 A 
ATOM     12  C   UNL     1       8.932  11.719  17.968  0.00  0.00    +0.000 A 
ATOM     13  C   UNL     1       8.223  10.638  17.438  0.00  0.00    +0.000 A 
ENDBRANCH   7   8
ENDBRANCH   6   7
ENDBRANCH   3   6
ENDBRANCH   1   2
BRANCH   1  14
ATOM     14  C   UNL     1       5.219   5.239  15.168  0.00  0.00    +0.000 C 
BRANCH  14  15
ATOM     15  C   UNL     1       6.378   4.536  14.509  0.00  0.00    +0.000 C 
ATOM     16  O   UNL     1       6.329   3.366  14.149  0.00  0.00    +0.000 OA
BRANCH  15  18
ATOM     17  C   UNL     1       8.044   5.434  13.098  0.00  0.00    +0.000 C 
ATOM     18  O   UNL     1       7.445   5.367  14.396  0.00  0.00    +0.000 OA
ENDBRANCH  15  18
ENDBRANCH  14  15
ENDBRANCH   1  14
BRANCH   1  19
ATOM     19  C   UNL     1       3.795   4.872  17.307  0.00  0.00    +0.000 C 
BRANCH  19  20
ATOM     20  C   UNL     1       3.411   3.472  17.863  0.00  0.00    +0.000 C 
ATOM     21  C   UNL     1       4.414   2.374  17.465  0.00  0.00    +0.000 C 
ATOM     22  O   UNL     1       2.137   3.094  17.304  0.00  0.00    +0.000 OA
ATOM     23  C   UNL     1       1.360   2.604  18.397  0.00  0.00    +0.000 C 
ATOM     24  C   UNL     1       1.958   3.245  19.618  0.00  0.00    +0.000 C 
ATOM     25  O   UNL     1       3.336   3.426  19.295  0.00  0.00    +0.000 OA
ENDBRANCH  19  20
BRANCH  19  26
ATOM     26  C   UNL     1       3.646   5.927  18.403  0.00  0.00    +0.000 C 
ATOM     27  O   UNL     1       4.477   6.131  19.278  0.00  0.00    +0.000 OA
BRANCH  26  28
ATOM     28  O   UNL     1       2.511   6.670  18.278  0.00  0.00    +0.000 OA
BRANCH  28  29
ATOM     29  C   UNL     1       2.729   8.093  18.178  0.00  0.00    +0.000 C 
BRANCH  29  30
ATOM     30  C   UNL     1       1.594   8.876  18.790  0.00  0.00    +0.000 A 
ATOM     31  C   UNL     1       0.765   9.664  17.982  0.00  0.00    +0.000 A 
ATOM     32  C   UNL     1      -0.292  10.389  18.536  0.00  0.00    +0.000 A 
ATOM     33  C   UNL     1      -0.532  10.335  19.906  0.00  0.00    +0.000 A 
ATOM     34  C   UNL     1       0.273   9.544  20.724  0.00  0.00    +0.000 A 
ATOM     35  C   UNL     1       1.328   8.814  20.170  0.00  0.00    +0.000 A 
ENDBRANCH  29  30
ENDBRANCH  28  29
ENDBRANCH  26  28
ENDBRANCH  19  26
ENDBRANCH   1  19
TORSDOF 13
ENDMDL
MODEL 9
REMARK VINA RESULT:      -7.0      2.157      6.845
REMARK  Name = 
REMARK  15 active torsions:
REMARK  status: ('A' for Active; 'I' for Inactive)
REMARK    1  A    between atoms: C_1  and  O_2
REMARK    2  A    between atoms: O_2  and  C_3
REMARK    3  A    between atoms: C_3  and  C_5
REMARK    4  A    between atoms: C_5  and  C_6
REMARK    5  A    between atoms: C_6  and  N_7
REMARK    6  A    between atoms: C_6  and  C_18
REMARK    7  A    between atoms: C_8  and  O_10
REMARK    8  A    between atoms: O_10  and  C_11
REMARK    9  A    between atoms: C_11  and  C_12
REMARK   10  A    between atoms: C_18  and  C_19
REMARK   11  A    between atoms: C_18  and  C_29
REMARK   12  A    between atoms: C_19  and  O_21
REMARK   13  A    between atoms: O_21  and  C_22
REMARK   14  A    between atoms: C_22  and  C_23
REMARK   15  A    between atoms: C_29  and  C_30
REMARK                            x       y       z     vdW  Elec       q    Type
REMARK                         _______ _______ _______ _____ _____    ______ ____
ROOT
ATOM      1  C   UNL     1       5.036   5.311  17.050  0.00  0.00    +0.000 C 
ENDROOT
BRANCH   1   2
ATOM      2  N   UNL     1       5.941   6.321  17.604  0.00  0.00    +0.000 N 
ATOM      3  C   UNL     1       7.161   6.024  18.141  0.00  0.00    +0.000 C 
ATOM      4  O   UNL     1       7.591   4.887  18.280  0.00  0.00    +0.000 OA
ATOM      5  H   UNL     1       5.727   7.313  17.537  0.00  0.00    +0.000 HD
BRANCH   3   6
ATOM      6  O   UNL     1       7.794   7.162  18.482  0.00  0.00    +0.000 OA
BRANCH   6   7
ATOM      7  C   UNL     1       7.714   8.237  17.533  0.00  0.00    +0.000 C 
BRANCH   7   8
ATOM      8  C   UNL     1       8.363   9.465  18.120  0.00  0.00    +0.000 A 
ATOM      9  C   UNL     1       8.254  10.707  17.478  0.00  0.00    +0.000 A 
ATOM     10  C   UNL     1       8.854  11.843  18.027  0.00  0.00    +0.000 A 
ATOM     11  C   UNL     1       9.571  11.747  19.220  0.00  0.00    +0.000 A 
ATOM     12  C   UNL     1       9.690  10.516  19.864  0.00  0.00    +0.000 A 
ATOM     13  C   UNL     1       9.091   9.380  19.314  0.00  0.00    +0.000 A 
ENDBRANCH   7   8
ENDBRANCH   6   7
ENDBRANCH   3   6
ENDBRANCH   1   2
BRANCH   1  14
ATOM     14  C   UNL     1       5.109   5.302  15.517  0.00  0.00    +0.000 C 
BRANCH  14  15
ATOM     15  C   UNL     1       6.287   4.508  15.012  0.00  0.00    +0.000 C 
ATOM     16  O   UNL     1       6.273   3.288  14.913  0.00  0.00    +0.000 OA
BRANCH  15  18
ATOM     17  C   UNL     1       7.833   5.219  13.376  0.00  0.00    +0.000 C 
ATOM     18  O   UNL     1       7.325   5.327  14.710  0.00  0.00    +0.000 OA
ENDBRANCH  15  18
ENDBRANCH  14  15
ENDBRANCH   1  14
BRANCH   1  19
ATOM     19  C   UNL     1       3.593   5.413  17.621  0.00  0.00    +0.000 C 
BRANCH  19  20
ATOM     20  C   UNL     1       2.805   4.089  17.826  0.00  0.00    +0.000 C 
ATOM     21  C   UNL     1       1.300   4.237  17.542  0.00  0.00    +0.000 C 
ATOM     22  O   UNL     1       2.932   3.694  19.207  0.00  0.00    +0.000 OA
ATOM     23  C   UNL     1       3.247   2.302  19.189  0.00  0.00    +0.000 C 
ATOM     24  C   UNL     1       3.870   2.062  17.842  0.00  0.00    +0.000 C 
ATOM     25  O   UNL     1       3.255   3.019  16.982  0.00  0.00    +0.000 OA
ENDBRANCH  19  20
BRANCH  19  26
ATOM     26  C   UNL     1       3.675   6.181  18.940  0.00  0.00    +0.000 C 
ATOM     27  O   UNL     1       4.377   5.849  19.886  0.00  0.00    +0.000 OA
BRANCH  26  28
ATOM     28  O   UNL     1       2.924   7.318  18.943  0.00  0.00    +0.000 OA
BRANCH  28  29
ATOM     29  C   UNL     1       2.102   7.495  20.116  0.00  0.00    +0.000 C 
BRANCH  29  30
ATOM     30  C   UNL     1       1.233   8.725  20.008  0.00  0.00    +0.000 A 
ATOM     31  C   UNL     1       1.215   9.471  18.823  0.00  0.00    +0.000 A 
ATOM     32  C   UNL     1       0.412  10.608  18.708  0.00  0.00    +0.000 A 
ATOM     33  C   UNL     1      -0.381  11.013  19.779  0.00  0.00    +0.000 A 
ATOM     34  C   UNL     1      -0.386  10.274  20.960  0.00  0.00    +0.000 A 
ATOM     35  C   UNL     1       0.413   9.132  21.074  0.00  0.00    +0.000 A 
ENDBRANCH  29  30
ENDBRANCH  28  29
ENDBRANCH  26  28
ENDBRANCH  19  26
ENDBRANCH   1  19
TORSDOF 13
ENDMDL
