MODEL 1
REMARK VINA RESULT:      -7.6      0.000      0.000
REMARK  Name = 
REMARK  9 active torsions:
REMARK  status: ('A' for Active; 'I' for Inactive)
REMARK    1  A    between atoms: C_1  and  C_2
REMARK    2  A    between atoms: C_2  and  N_3
REMARK    3  A    between atoms: C_4  and  C_6
REMARK    4  A    between atoms: C_9  and  C_10
REMARK    5  A    between atoms: C_10  and  C_25
REMARK    6  A    between atoms: N_18  and  C_19
REMARK    7  A    between atoms: C_19  and  C_20
REMARK    8  A    between atoms: C_29  and  O_30
REMARK    9  A    between atoms: O_30  and  C_31
REMARK                            x       y       z     vdW  Elec       q    Type
REMARK                         _______ _______ _______ _____ _____    ______ ____
ROOT
ATOM      1  C   UNL     1      -0.326  11.154  18.326  0.00  0.00    +0.000 C 
ATOM      2  C   UNL     1       0.134  12.410  18.571  0.00  0.00    +0.000 C 
ATOM      3  C   UNL     1       1.537  12.790  19.053  0.00  0.00    +0.000 C 
ATOM      4  C   UNL     1       1.490  13.637  20.367  0.00  0.00    +0.000 C 
ATOM      5  C   UNL     1       1.519  15.159  20.103  0.00  0.00    +0.000 C 
ATOM      6  C   UNL     1       0.051  15.585  20.035  0.00  0.00    +0.000 C 
ATOM      7  C   UNL     1      -0.703  14.255  20.092  0.00  0.00    +0.000 C 
ATOM      8  C   UNL     1      -0.762  13.646  18.642  0.00  0.00    +0.000 C 
ATOM      9  N   UNL     1       0.159  13.421  20.984  0.00  0.00    +0.000 NA
ENDROOT
BRANCH   1  13
ATOM     10  C   UNL     1       1.850   7.613  19.466  0.00  0.00    +0.000 A 
ATOM     11  C   UNL     1       1.047   8.300  20.385  0.00  0.00    +0.000 A 
ATOM     12  C   UNL     1       0.363   9.454  20.000  0.00  0.00    +0.000 A 
ATOM     13  C   UNL     1       0.475   9.954  18.696  0.00  0.00    +0.000 A 
ATOM     14  C   UNL     1       1.277   9.276  17.779  0.00  0.00    +0.000 A 
ATOM     15  C   UNL     1       1.966   8.110  18.159  0.00  0.00    +0.000 A 
BRANCH  10  17
ATOM     16  N   UNL     1       1.875   5.560  20.809  0.00  0.00    +0.000 N 
ATOM     17  C   UNL     1       2.559   6.389  19.943  0.00  0.00    +0.000 C 
ATOM     18  O   UNL     1       3.716   6.178  19.591  0.00  0.00    +0.000 OA
ATOM     19  H   UNL     1       0.960   5.823  21.143  0.00  0.00    +0.000 HD
BRANCH  16  21
ATOM     20  C   UNL     1       1.578   3.164  21.276  0.00  0.00    +0.000 C 
ATOM     21  C   UNL     1       2.491   4.372  21.373  0.00  0.00    +0.000 C 
ENDBRANCH  16  21
ENDBRANCH  10  17
ENDBRANCH   1  13
BRANCH   1  22
ATOM     22  C   UNL     1      -1.714  10.998  17.826  0.00  0.00    +0.000 A 
ATOM     23  C   UNL     1      -1.920  10.514  16.528  0.00  0.00    +0.000 A 
ATOM     24  C   UNL     1      -3.211  10.432  16.011  0.00  0.00    +0.000 A 
ATOM     25  C   UNL     1      -4.295  10.839  16.788  0.00  0.00    +0.000 A 
ATOM     26  C   UNL     1      -4.105  11.321  18.087  0.00  0.00    +0.000 A 
ATOM     27  C   UNL     1      -2.813  11.391  18.608  0.00  0.00    +0.000 A 
BRANCH  26  28
ATOM     28  O   UNL     1      -5.255  11.701  18.726  0.00  0.00    +0.000 OA
ATOM     29  C   UNL     1      -6.407  10.896  18.504  0.00  0.00    +0.000 C 
ENDBRANCH  26  28
ENDBRANCH   1  22
BRANCH   9  30
ATOM     30  C   UNL     1       0.086  13.802  22.401  0.00  0.00    +0.000 C 
BRANCH  30  31
ATOM     31  C   UNL     1      -1.237  13.453  23.038  0.00  0.00    +0.000 A 
ATOM     32  C   UNL     1      -1.948  12.269  22.978  0.00  0.00    +0.000 A 
ATOM     33  C   UNL     1      -3.190  12.339  23.674  0.00  0.00    +0.000 A 
ATOM     34  C   UNL     1      -3.390  13.574  24.246  0.00  0.00    +0.000 A 
ATOM     35  S   UNL     1      -2.083  14.635  23.956  0.00  0.00    +0.000 S 
ENDBRANCH  30  31
ENDBRANCH   9  30
TORSDOF 7
ENDMDL
MODEL 2
REMARK VINA RESULT:      -7.5      0.997      1.764
REMARK  Name = 
REMARK  9 active torsions:
REMARK  status: ('A' for Active; 'I' for Inactive)
REMARK    1  A    between atoms: C_1  and  C_2
REMARK    2  A    between atoms: C_2  and  N_3
REMARK    3  A    between atoms: C_4  and  C_6
REMARK    4  A    between atoms: C_9  and  C_10
REMARK    5  A    between atoms: C_10  and  C_25
REMARK    6  A    between atoms: N_18  and  C_19
REMARK    7  A    between atoms: C_19  and  C_20
REMARK    8  A    between atoms: C_29  and  O_30
REMARK    9  A    between atoms: O_30  and  C_31
REMARK                            x       y       z     vdW  Elec       q    Type
REMARK                         _______ _______ _______ _____ _____    ______ ____
ROOT
ATOM      1  C   UNL     1      -0.368  11.532  18.435  0.00  0.00    +0.000 C 
ATOM      2  C   UNL     1       0.269  12.727  18.558  0.00  0.00    +0.000 C 
ATOM      3  C   UNL     1       1.733  12.944  18.951  0.00  0.00    +0.000 C 
ATOM      4  C   UNL     1       1.869  13.886  20.192  0.00  0.00    +0.000 C 
ATOM      5  C   UNL     1       2.090  15.364  19.803  0.00  0.00    +0.000 C 
ATOM      6  C   UNL     1       0.692  15.984  19.759  0.00  0.00    +0.000 C 
ATOM      7  C   UNL     1      -0.231  14.780  19.955  0.00  0.00    +0.000 C 
ATOM      8  C   UNL     1      -0.446  14.077  18.563  0.00  0.00    +0.000 C 
ATOM      9  N   UNL     1       0.554  13.904  20.877  0.00  0.00    +0.000 NA
ENDROOT
BRANCH   1  13
ATOM     10  C   UNL     1       1.653   7.913  19.611  0.00  0.00    +0.000 A 
ATOM     11  C   UNL     1       1.661   8.351  18.281  0.00  0.00    +0.000 A 
ATOM     12  C   UNL     1       0.987   9.517  17.918  0.00  0.00    +0.000 A 
ATOM     13  C   UNL     1       0.281  10.264  18.870  0.00  0.00    +0.000 A 
ATOM     14  C   UNL     1       0.266   9.830  20.195  0.00  0.00    +0.000 A 
ATOM     15  C   UNL     1       0.947   8.657  20.568  0.00  0.00    +0.000 A 
BRANCH  10  17
ATOM     16  N   UNL     1       1.833   5.824  20.886  0.00  0.00    +0.000 N 
ATOM     17  C   UNL     1       2.389   6.654  19.932  0.00  0.00    +0.000 C 
ATOM     18  O   UNL     1       3.460   6.415  19.381  0.00  0.00    +0.000 OA
ATOM     19  H   UNL     1       1.000   6.108  21.378  0.00  0.00    +0.000 HD
BRANCH  16  21
ATOM     20  C   UNL     1       1.840   3.372  20.709  0.00  0.00    +0.000 C 
ATOM     21  C   UNL     1       2.494   4.603  21.310  0.00  0.00    +0.000 C 
ENDBRANCH  16  21
ENDBRANCH  10  17
ENDBRANCH   1  13
BRANCH   1  22
ATOM     22  C   UNL     1      -1.788  11.533  18.006  0.00  0.00    +0.000 A 
ATOM     23  C   UNL     1      -2.785  11.805  18.950  0.00  0.00    +0.000 A 
ATOM     24  C   UNL     1      -4.129  11.736  18.586  0.00  0.00    +0.000 A 
ATOM     25  C   UNL     1      -4.475  11.389  17.281  0.00  0.00    +0.000 A 
ATOM     26  C   UNL     1      -3.491  11.118  16.326  0.00  0.00    +0.000 A 
ATOM     27  C   UNL     1      -2.145  11.199  16.688  0.00  0.00    +0.000 A 
BRANCH  26  28
ATOM     28  O   UNL     1      -3.974  10.773  15.092  0.00  0.00    +0.000 OA
ATOM     29  C   UNL     1      -3.109  10.019  14.253  0.00  0.00    +0.000 C 
ENDBRANCH  26  28
ENDBRANCH   1  22
BRANCH   9  30
ATOM     30  C   UNL     1       0.606  14.397  22.260  0.00  0.00    +0.000 C 
BRANCH  30  31
ATOM     31  C   UNL     1      -0.691  14.198  23.006  0.00  0.00    +0.000 A 
ATOM     32  C   UNL     1      -1.598  13.159  22.915  0.00  0.00    +0.000 A 
ATOM     33  C   UNL     1      -2.738  13.351  23.750  0.00  0.00    +0.000 A 
ATOM     34  C   UNL     1      -2.667  14.531  24.453  0.00  0.00    +0.000 A 
ATOM     35  S   UNL     1      -1.229  15.392  24.119  0.00  0.00    +0.000 S 
ENDBRANCH  30  31
ENDBRANCH   9  30
TORSDOF 7
ENDMDL
MODEL 3
REMARK VINA RESULT:      -7.5      0.974      1.349
REMARK  Name = 
REMARK  9 active torsions:
REMARK  status: ('A' for Active; 'I' for Inactive)
REMARK    1  A    between atoms: C_1  and  C_2
REMARK    2  A    between atoms: C_2  and  N_3
REMARK    3  A    between atoms: C_4  and  C_6
REMARK    4  A    between atoms: C_9  and  C_10
REMARK    5  A    between atoms: C_10  and  C_25
REMARK    6  A    between atoms: N_18  and  C_19
REMARK    7  A    between atoms: C_19  and  C_20
REMARK    8  A    between atoms: C_29  and  O_30
REMARK    9  A    between atoms: O_30  and  C_31
REMARK                            x       y       z     vdW  Elec       q    Type
REMARK                         _______ _______ _______ _____ _____    ______ ____
ROOT
ATOM      1  C   UNL     1      -0.402  11.191  18.347  0.00  0.00    +0.000 C 
ATOM      2  C   UNL     1       0.116  12.428  18.573  0.00  0.00    +0.000 C 
ATOM      3  C   UNL     1       1.520  12.748  19.095  0.00  0.00    +0.000 C 
ATOM      4  C   UNL     1       1.473  13.635  20.383  0.00  0.00    +0.000 C 
ATOM      5  C   UNL     1       1.592  15.144  20.078  0.00  0.00    +0.000 C 
ATOM      6  C   UNL     1       0.152  15.644  19.946  0.00  0.00    +0.000 C 
ATOM      7  C   UNL     1      -0.672  14.359  20.012  0.00  0.00    +0.000 C 
ATOM      8  C   UNL     1      -0.714  13.711  18.578  0.00  0.00    +0.000 C 
ATOM      9  N   UNL     1       0.112  13.506  20.957  0.00  0.00    +0.000 NA
ENDROOT
BRANCH   1  13
ATOM     10  C   UNL     1       1.831   7.696  19.516  0.00  0.00    +0.000 A 
ATOM     11  C   UNL     1       1.826   8.145  18.190  0.00  0.00    +0.000 A 
ATOM     12  C   UNL     1       1.084   9.270  17.828  0.00  0.00    +0.000 A 
ATOM     13  C   UNL     1       0.321   9.962  18.778  0.00  0.00    +0.000 A 
ATOM     14  C   UNL     1       0.319   9.516  20.099  0.00  0.00    +0.000 A 
ATOM     15  C   UNL     1       1.068   8.385  20.470  0.00  0.00    +0.000 A 
BRANCH  10  17
ATOM     16  N   UNL     1       3.762   6.251  19.063  0.00  0.00    +0.000 N 
ATOM     17  C   UNL     1       2.641   6.483  19.835  0.00  0.00    +0.000 C 
ATOM     18  O   UNL     1       2.277   5.723  20.728  0.00  0.00    +0.000 OA
ATOM     19  H   UNL     1       3.970   6.853  18.281  0.00  0.00    +0.000 HD
BRANCH  16  21
ATOM     20  C   UNL     1       4.348   4.034  18.176  0.00  0.00    +0.000 C 
ATOM     21  C   UNL     1       4.589   5.073  19.255  0.00  0.00    +0.000 C 
ENDBRANCH  16  21
ENDBRANCH  10  17
ENDBRANCH   1  13
BRANCH   1  22
ATOM     22  C   UNL     1      -1.778  11.093  17.802  0.00  0.00    +0.000 A 
ATOM     23  C   UNL     1      -1.956  10.717  16.465  0.00  0.00    +0.000 A 
ATOM     24  C   UNL     1      -3.235  10.693  15.912  0.00  0.00    +0.000 A 
ATOM     25  C   UNL     1      -4.334  11.051  16.692  0.00  0.00    +0.000 A 
ATOM     26  C   UNL     1      -4.172  11.426  18.029  0.00  0.00    +0.000 A 
ATOM     27  C   UNL     1      -2.892  11.438  18.586  0.00  0.00    +0.000 A 
BRANCH  26  28
ATOM     28  O   UNL     1      -5.333  11.769  18.668  0.00  0.00    +0.000 OA
ATOM     29  C   UNL     1      -6.439  10.891  18.501  0.00  0.00    +0.000 C 
ENDBRANCH  26  28
ENDBRANCH   1  22
BRANCH   9  30
ATOM     30  C   UNL     1       0.012  13.932  22.360  0.00  0.00    +0.000 C 
BRANCH  30  31
ATOM     31  C   UNL     1      -1.276  13.498  23.017  0.00  0.00    +0.000 A 
ATOM     32  C   UNL     1      -1.904  12.267  22.973  0.00  0.00    +0.000 A 
ATOM     33  C   UNL     1      -3.139  12.256  23.686  0.00  0.00    +0.000 A 
ATOM     34  C   UNL     1      -3.417  13.479  24.252  0.00  0.00    +0.000 A 
ATOM     35  S   UNL     1      -2.189  14.625  23.938  0.00  0.00    +0.000 S 
ENDBRANCH  30  31
ENDBRANCH   9  30
TORSDOF 7
ENDMDL
MODEL 4
REMARK VINA RESULT:      -7.4      0.911      1.025
REMARK  Name = 
REMARK  9 active torsions:
REMARK  status: ('A' for Active; 'I' for Inactive)
REMARK    1  A    between atoms: C_1  and  C_2
REMARK    2  A    between atoms: C_2  and  N_3
REMARK    3  A    between atoms: C_4  and  C_6
REMARK    4  A    between atoms: C_9  and  C_10
REMARK    5  A    between atoms: C_10  and  C_25
REMARK    6  A    between atoms: N_18  and  C_19
REMARK    7  A    between atoms: C_19  and  C_20
REMARK    8  A    between atoms: C_29  and  O_30
REMARK    9  A    between atoms: O_30  and  C_31
REMARK                            x       y       z     vdW  Elec       q    Type
REMARK                         _______ _______ _______ _____ _____    ______ ____
ROOT
ATOM      1  C   UNL     1      -0.133  11.146  18.255  0.00  0.00    +0.000 C 
ATOM      2  C   UNL     1       0.448  12.375  18.258  0.00  0.00    +0.000 C 
ATOM      3  C   UNL     1       1.934  12.681  18.467  0.00  0.00    +0.000 C 
ATOM      4  C   UNL     1       2.161  13.680  19.648  0.00  0.00    +0.000 C 
ATOM      5  C   UNL     1       2.255  15.150  19.183  0.00  0.00    +0.000 C 
ATOM      6  C   UNL     1       0.829  15.696  19.284  0.00  0.00    +0.000 C 
ATOM      7  C   UNL     1       0.003  14.458  19.631  0.00  0.00    +0.000 C 
ATOM      8  C   UNL     1      -0.335  13.687  18.300  0.00  0.00    +0.000 C 
ATOM      9  N   UNL     1       0.937  13.661  20.484  0.00  0.00    +0.000 NA
ENDROOT
BRANCH   1  13
ATOM     10  C   UNL     1       1.933   7.571  19.489  0.00  0.00    +0.000 A 
ATOM     11  C   UNL     1       1.191   8.332  20.399  0.00  0.00    +0.000 A 
ATOM     12  C   UNL     1       0.542   9.496  19.984  0.00  0.00    +0.000 A 
ATOM     13  C   UNL     1       0.630   9.931  18.655  0.00  0.00    +0.000 A 
ATOM     14  C   UNL     1       1.371   9.178  17.744  0.00  0.00    +0.000 A 
ATOM     15  C   UNL     1       2.024   8.003  18.157  0.00  0.00    +0.000 A 
BRANCH  10  17
ATOM     16  N   UNL     1       1.886   5.535  20.858  0.00  0.00    +0.000 N 
ATOM     17  C   UNL     1       2.607   6.341  19.999  0.00  0.00    +0.000 C 
ATOM     18  O   UNL     1       3.769   6.104  19.679  0.00  0.00    +0.000 OA
ATOM     19  H   UNL     1       0.968   5.819  21.164  0.00  0.00    +0.000 HD
BRANCH  16  21
ATOM     20  C   UNL     1       1.608   3.117  21.206  0.00  0.00    +0.000 C 
ATOM     21  C   UNL     1       2.466   4.344  21.452  0.00  0.00    +0.000 C 
ENDBRANCH  16  21
ENDBRANCH  10  17
ENDBRANCH   1  13
BRANCH   1  22
ATOM     22  C   UNL     1      -1.592  11.058  17.998  0.00  0.00    +0.000 A 
ATOM     23  C   UNL     1      -2.043  10.377  16.860  0.00  0.00    +0.000 A 
ATOM     24  C   UNL     1      -3.403  10.348  16.558  0.00  0.00    +0.000 A 
ATOM     25  C   UNL     1      -4.311  11.004  17.388  0.00  0.00    +0.000 A 
ATOM     26  C   UNL     1      -3.876  11.685  18.529  0.00  0.00    +0.000 A 
ATOM     27  C   UNL     1      -2.515  11.704  18.838  0.00  0.00    +0.000 A 
BRANCH  26  28
ATOM     28  O   UNL     1      -4.872  12.298  19.240  0.00  0.00    +0.000 OA
ATOM     29  C   UNL     1      -4.593  12.605  20.600  0.00  0.00    +0.000 C 
ENDBRANCH  26  28
ENDBRANCH   1  22
BRANCH   9  30
ATOM     30  C   UNL     1       1.123  14.214  21.833  0.00  0.00    +0.000 C 
BRANCH  30  31
ATOM     31  C   UNL     1      -0.163  14.292  22.620  0.00  0.00    +0.000 A 
ATOM     32  C   UNL     1      -1.057  13.285  22.931  0.00  0.00    +0.000 A 
ATOM     33  C   UNL     1      -2.189  13.761  23.655  0.00  0.00    +0.000 A 
ATOM     34  C   UNL     1      -2.125  15.117  23.876  0.00  0.00    +0.000 A 
ATOM     35  S   UNL     1      -0.703  15.807  23.227  0.00  0.00    +0.000 S 
ENDBRANCH  30  31
ENDBRANCH   9  30
TORSDOF 7
ENDMDL
MODEL 5
REMARK VINA RESULT:      -7.4      0.955      1.418
REMARK  Name = 
REMARK  9 active torsions:
REMARK  status: ('A' for Active; 'I' for Inactive)
REMARK    1  A    between atoms: C_1  and  C_2
REMARK    2  A    between atoms: C_2  and  N_3
REMARK    3  A    between atoms: C_4  and  C_6
REMARK    4  A    between atoms: C_9  and  C_10
REMARK    5  A    between atoms: C_10  and  C_25
REMARK    6  A    between atoms: N_18  and  C_19
REMARK    7  A    between atoms: C_19  and  C_20
REMARK    8  A    between atoms: C_29  and  O_30
REMARK    9  A    between atoms: O_30  and  C_31
REMARK                            x       y       z     vdW  Elec       q    Type
REMARK                         _______ _______ _______ _____ _____    ______ ____
ROOT
ATOM      1  C   UNL     1      -0.318  11.272  18.325  0.00  0.00    +0.000 C 
ATOM      2  C   UNL     1       0.327  12.469  18.352  0.00  0.00    +0.000 C 
ATOM      3  C   UNL     1       1.813  12.698  18.645  0.00  0.00    +0.000 C 
ATOM      4  C   UNL     1       2.024  13.697  19.830  0.00  0.00    +0.000 C 
ATOM      5  C   UNL     1       2.222  15.154  19.359  0.00  0.00    +0.000 C 
ATOM      6  C   UNL     1       0.824  15.776  19.372  0.00  0.00    +0.000 C 
ATOM      7  C   UNL     1      -0.085  14.587  19.679  0.00  0.00    +0.000 C 
ATOM      8  C   UNL     1      -0.386  13.820  18.338  0.00  0.00    +0.000 C 
ATOM      9  N   UNL     1       0.754  13.752  20.592  0.00  0.00    +0.000 NA
ENDROOT
BRANCH   1  13
ATOM     10  C   UNL     1       1.772   7.708  19.550  0.00  0.00    +0.000 A 
ATOM     11  C   UNL     1       1.741   8.107  18.209  0.00  0.00    +0.000 A 
ATOM     12  C   UNL     1       1.046   9.256  17.830  0.00  0.00    +0.000 A 
ATOM     13  C   UNL     1       0.356  10.023  18.779  0.00  0.00    +0.000 A 
ATOM     14  C   UNL     1       0.380   9.627  20.115  0.00  0.00    +0.000 A 
ATOM     15  C   UNL     1       1.083   8.472  20.504  0.00  0.00    +0.000 A 
BRANCH  10  17
ATOM     16  N   UNL     1       1.931   5.581  20.763  0.00  0.00    +0.000 N 
ATOM     17  C   UNL     1       2.529   6.466  19.888  0.00  0.00    +0.000 C 
ATOM     18  O   UNL     1       3.650   6.288  19.419  0.00  0.00    +0.000 OA
ATOM     19  H   UNL     1       1.050   5.814  21.194  0.00  0.00    +0.000 HD
BRANCH  16  21
ATOM     20  C   UNL     1       1.660   3.181  21.224  0.00  0.00    +0.000 C 
ATOM     21  C   UNL     1       2.603   4.369  21.198  0.00  0.00    +0.000 C 
ENDBRANCH  16  21
ENDBRANCH  10  17
ENDBRANCH   1  13
BRANCH   1  22
ATOM     22  C   UNL     1      -1.761  11.258  17.983  0.00  0.00    +0.000 A 
ATOM     23  C   UNL     1      -2.147  10.957  16.672  0.00  0.00    +0.000 A 
ATOM     24  C   UNL     1      -3.492  11.013  16.310  0.00  0.00    +0.000 A 
ATOM     25  C   UNL     1      -4.449  11.376  17.257  0.00  0.00    +0.000 A 
ATOM     26  C   UNL     1      -4.079  11.676  18.571  0.00  0.00    +0.000 A 
ATOM     27  C   UNL     1      -2.733  11.608  18.936  0.00  0.00    +0.000 A 
BRANCH  26  28
ATOM     28  O   UNL     1      -5.118  12.033  19.387  0.00  0.00    +0.000 OA
ATOM     29  C   UNL     1      -4.781  12.674  20.611  0.00  0.00    +0.000 C 
ENDBRANCH  26  28
ENDBRANCH   1  22
BRANCH   9  30
ATOM     30  C   UNL     1       0.890  14.309  21.945  0.00  0.00    +0.000 C 
BRANCH  30  31
ATOM     31  C   UNL     1      -0.417  14.351  22.700  0.00  0.00    +0.000 A 
ATOM     32  C   UNL     1      -0.994  15.403  23.386  0.00  0.00    +0.000 A 
ATOM     33  C   UNL     1      -2.220  15.040  24.016  0.00  0.00    +0.000 A 
ATOM     34  C   UNL     1      -2.543  13.721  23.792  0.00  0.00    +0.000 A 
ATOM     35  S   UNL     1      -1.382  12.933  22.816  0.00  0.00    +0.000 S 
ENDBRANCH  30  31
ENDBRANCH   9  30
TORSDOF 7
ENDMDL
MODEL 6
REMARK VINA RESULT:      -7.3      1.178      1.816
REMARK  Name = 
REMARK  9 active torsions:
REMARK  status: ('A' for Active; 'I' for Inactive)
REMARK    1  A    between atoms: C_1  and  C_2
REMARK    2  A    between atoms: C_2  and  N_3
REMARK    3  A    between atoms: C_4  and  C_6
REMARK    4  A    between atoms: C_9  and  C_10
REMARK    5  A    between atoms: C_10  and  C_25
REMARK    6  A    between atoms: N_18  and  C_19
REMARK    7  A    between atoms: C_19  and  C_20
REMARK    8  A    between atoms: C_29  and  O_30
REMARK    9  A    between atoms: O_30  and  C_31
REMARK                            x       y       z     vdW  Elec       q    Type
REMARK                         _______ _______ _______ _____ _____    ______ ____
ROOT
ATOM      1  C   UNL     1      -0.182  11.542  18.292  0.00  0.00    +0.000 C 
ATOM      2  C   UNL     1       0.427  12.757  18.336  0.00  0.00    +0.000 C 
ATOM      3  C   UNL     1       1.921  13.020  18.549  0.00  0.00    +0.000 C 
ATOM      4  C   UNL     1       2.175  13.971  19.764  0.00  0.00    +0.000 C 
ATOM      5  C   UNL     1       2.301  15.454  19.351  0.00  0.00    +0.000 C 
ATOM      6  C   UNL     1       0.889  16.029  19.477  0.00  0.00    +0.000 C 
ATOM      7  C   UNL     1       0.035  14.799  19.783  0.00  0.00    +0.000 C 
ATOM      8  C   UNL     1      -0.324  14.083  18.427  0.00  0.00    +0.000 C 
ATOM      9  N   UNL     1       0.953  13.951  20.604  0.00  0.00    +0.000 NA
ENDROOT
BRANCH   1  13
ATOM     10  C   UNL     1       1.803   7.876  19.384  0.00  0.00    +0.000 A 
ATOM     11  C   UNL     1       1.048   8.599  20.315  0.00  0.00    +0.000 A 
ATOM     12  C   UNL     1       0.426   9.792  19.946  0.00  0.00    +0.000 A 
ATOM     13  C   UNL     1       0.554  10.296  18.645  0.00  0.00    +0.000 A 
ATOM     14  C   UNL     1       1.309   9.582  17.714  0.00  0.00    +0.000 A 
ATOM     15  C   UNL     1       1.935   8.377  18.080  0.00  0.00    +0.000 A 
BRANCH  10  17
ATOM     16  N   UNL     1       1.736   5.826  20.730  0.00  0.00    +0.000 N 
ATOM     17  C   UNL     1       2.448   6.611  19.844  0.00  0.00    +0.000 C 
ATOM     18  O   UNL     1       3.580   6.328  19.462  0.00  0.00    +0.000 OA
ATOM     19  H   UNL     1       0.848   6.145  21.086  0.00  0.00    +0.000 HD
BRANCH  16  21
ATOM     20  C   UNL     1       1.402   3.405  21.003  0.00  0.00    +0.000 C 
ATOM     21  C   UNL     1       2.292   4.602  21.280  0.00  0.00    +0.000 C 
ENDBRANCH  16  21
ENDBRANCH  10  17
ENDBRANCH   1  13
BRANCH   1  22
ATOM     22  C   UNL     1      -1.643  11.497  18.037  0.00  0.00    +0.000 A 
ATOM     23  C   UNL     1      -2.524  11.880  19.055  0.00  0.00    +0.000 A 
ATOM     24  C   UNL     1      -3.901  11.773  18.863  0.00  0.00    +0.000 A 
ATOM     25  C   UNL     1      -4.395  11.276  17.658  0.00  0.00    +0.000 A 
ATOM     26  C   UNL     1      -3.527  10.892  16.631  0.00  0.00    +0.000 A 
ATOM     27  C   UNL     1      -2.149  11.011  16.819  0.00  0.00    +0.000 A 
BRANCH  26  28
ATOM     28  O   UNL     1      -4.150  10.406  15.513  0.00  0.00    +0.000 OA
ATOM     29  C   UNL     1      -3.333  10.185  14.370  0.00  0.00    +0.000 C 
ENDBRANCH  26  28
ENDBRANCH   1  22
BRANCH   9  30
ATOM     30  C   UNL     1       1.156  14.451  21.970  0.00  0.00    +0.000 C 
BRANCH  30  31
ATOM     31  C   UNL     1      -0.139  14.685  22.710  0.00  0.00    +0.000 A 
ATOM     32  C   UNL     1      -0.601  15.840  23.313  0.00  0.00    +0.000 A 
ATOM     33  C   UNL     1      -1.859  15.656  23.959  0.00  0.00    +0.000 A 
ATOM     34  C   UNL     1      -2.319  14.366  23.830  0.00  0.00    +0.000 A 
ATOM     35  S   UNL     1      -1.248  13.390  22.924  0.00  0.00    +0.000 S 
ENDBRANCH  30  31
ENDBRANCH   9  30
TORSDOF 7
ENDMDL
MODEL 7
REMARK VINA RESULT:      -7.3      0.895      1.498
REMARK  Name = 
REMARK  9 active torsions:
REMARK  status: ('A' for Active; 'I' for Inactive)
REMARK    1  A    between atoms: C_1  and  C_2
REMARK    2  A    between atoms: C_2  and  N_3
REMARK    3  A    between atoms: C_4  and  C_6
REMARK    4  A    between atoms: C_9  and  C_10
REMARK    5  A    between atoms: C_10  and  C_25
REMARK    6  A    between atoms: N_18  and  C_19
REMARK    7  A    between atoms: C_19  and  C_20
REMARK    8  A    between atoms: C_29  and  O_30
REMARK    9  A    between atoms: O_30  and  C_31
REMARK                            x       y       z     vdW  Elec       q    Type
REMARK                         _______ _______ _______ _____ _____    ______ ____
ROOT
ATOM      1  C   UNL     1      -0.259  11.240  18.347  0.00  0.00    +0.000 C 
ATOM      2  C   UNL     1       0.229  12.487  18.585  0.00  0.00    +0.000 C 
ATOM      3  C   UNL     1       1.642  12.837  19.061  0.00  0.00    +0.000 C 
ATOM      4  C   UNL     1       1.619  13.690  20.372  0.00  0.00    +0.000 C 
ATOM      5  C   UNL     1       1.681  15.209  20.101  0.00  0.00    +0.000 C 
ATOM      6  C   UNL     1       0.223  15.668  20.036  0.00  0.00    +0.000 C 
ATOM      7  C   UNL     1      -0.560  14.356  20.101  0.00  0.00    +0.000 C 
ATOM      8  C   UNL     1      -0.638  13.742  18.654  0.00  0.00    +0.000 C 
ATOM      9  N   UNL     1       0.286  13.506  20.994  0.00  0.00    +0.000 NA
ENDROOT
BRANCH   1  13
ATOM     10  C   UNL     1       1.839   7.654  19.492  0.00  0.00    +0.000 A 
ATOM     11  C   UNL     1       1.037   8.350  20.405  0.00  0.00    +0.000 A 
ATOM     12  C   UNL     1       0.378   9.518  20.019  0.00  0.00    +0.000 A 
ATOM     13  C   UNL     1       0.516  10.024  18.720  0.00  0.00    +0.000 A 
ATOM     14  C   UNL     1       1.316   9.337  17.808  0.00  0.00    +0.000 A 
ATOM     15  C   UNL     1       1.979   8.157  18.189  0.00  0.00    +0.000 A 
BRANCH  10  17
ATOM     16  N   UNL     1       1.833   5.623  20.869  0.00  0.00    +0.000 N 
ATOM     17  C   UNL     1       2.520   6.415  19.970  0.00  0.00    +0.000 C 
ATOM     18  O   UNL     1       3.660   6.160  19.589  0.00  0.00    +0.000 OA
ATOM     19  H   UNL     1       0.938   5.922  21.223  0.00  0.00    +0.000 HD
BRANCH  16  21
ATOM     20  C   UNL     1       1.928   3.169  20.744  0.00  0.00    +0.000 C 
ATOM     21  C   UNL     1       2.426   4.425  21.435  0.00  0.00    +0.000 C 
ENDBRANCH  16  21
ENDBRANCH  10  17
ENDBRANCH   1  13
BRANCH   1  22
ATOM     22  C   UNL     1      -1.652  11.113  17.853  0.00  0.00    +0.000 A 
ATOM     23  C   UNL     1      -2.700  11.619  18.631  0.00  0.00    +0.000 A 
ATOM     24  C   UNL     1      -4.021  11.443  18.222  0.00  0.00    +0.000 A 
ATOM     25  C   UNL     1      -4.294  10.756  17.040  0.00  0.00    +0.000 A 
ATOM     26  C   UNL     1      -3.257  10.248  16.250  0.00  0.00    +0.000 A 
ATOM     27  C   UNL     1      -1.935  10.436  16.654  0.00  0.00    +0.000 A 
BRANCH  26  28
ATOM     28  O   UNL     1      -3.671   9.582  15.129  0.00  0.00    +0.000 OA
ATOM     29  C   UNL     1      -3.278  10.129  13.876  0.00  0.00    +0.000 C 
ENDBRANCH  26  28
ENDBRANCH   1  22
BRANCH   9  30
ATOM     30  C   UNL     1       0.227  13.894  22.410  0.00  0.00    +0.000 C 
BRANCH  30  31
ATOM     31  C   UNL     1      -1.102  13.577  23.053  0.00  0.00    +0.000 A 
ATOM     32  C   UNL     1      -1.822  12.398  23.028  0.00  0.00    +0.000 A 
ATOM     33  C   UNL     1      -3.066  12.500  23.718  0.00  0.00    +0.000 A 
ATOM     34  C   UNL     1      -3.258  13.754  24.249  0.00  0.00    +0.000 A 
ATOM     35  S   UNL     1      -1.940  14.794  23.930  0.00  0.00    +0.000 S 
ENDBRANCH  30  31
ENDBRANCH   9  30
TORSDOF 7
ENDMDL
MODEL 8
REMARK VINA RESULT:      -7.3      1.520      2.284
REMARK  Name = 
REMARK  9 active torsions:
REMARK  status: ('A' for Active; 'I' for Inactive)
REMARK    1  A    between atoms: C_1  and  C_2
REMARK    2  A    between atoms: C_2  and  N_3
REMARK    3  A    between atoms: C_4  and  C_6
REMARK    4  A    between atoms: C_9  and  C_10
REMARK    5  A    between atoms: C_10  and  C_25
REMARK    6  A    between atoms: N_18  and  C_19
REMARK    7  A    between atoms: C_19  and  C_20
REMARK    8  A    between atoms: C_29  and  O_30
REMARK    9  A    between atoms: O_30  and  C_31
REMARK                            x       y       z     vdW  Elec       q    Type
REMARK                         _______ _______ _______ _____ _____    ______ ____
ROOT
ATOM      1  C   UNL     1      -0.233  11.504  18.350  0.00  0.00    +0.000 C 
ATOM      2  C   UNL     1       0.426  12.693  18.385  0.00  0.00    +0.000 C 
ATOM      3  C   UNL     1       1.920  12.900  18.653  0.00  0.00    +0.000 C 
ATOM      4  C   UNL     1       2.166  13.876  19.850  0.00  0.00    +0.000 C 
ATOM      5  C   UNL     1       2.373  15.338  19.400  0.00  0.00    +0.000 C 
ATOM      6  C   UNL     1       0.983  15.977  19.450  0.00  0.00    +0.000 C 
ATOM      7  C   UNL     1       0.065  14.793  19.755  0.00  0.00    +0.000 C 
ATOM      8  C   UNL     1      -0.270  14.053  18.407  0.00  0.00    +0.000 C 
ATOM      9  N   UNL     1       0.911  13.932  20.637  0.00  0.00    +0.000 NA
ENDROOT
BRANCH   1  13
ATOM     10  C   UNL     1       1.837   7.897  19.478  0.00  0.00    +0.000 A 
ATOM     11  C   UNL     1       1.808   8.333  18.148  0.00  0.00    +0.000 A 
ATOM     12  C   UNL     1       1.118   9.495  17.800  0.00  0.00    +0.000 A 
ATOM     13  C   UNL     1       0.433  10.240  18.769  0.00  0.00    +0.000 A 
ATOM     14  C   UNL     1       0.456   9.808  20.095  0.00  0.00    +0.000 A 
ATOM     15  C   UNL     1       1.152   8.640  20.452  0.00  0.00    +0.000 A 
BRANCH  10  17
ATOM     16  N   UNL     1       3.547   6.245  18.872  0.00  0.00    +0.000 N 
ATOM     17  C   UNL     1       2.587   6.643  19.782  0.00  0.00    +0.000 C 
ATOM     18  O   UNL     1       2.311   5.995  20.788  0.00  0.00    +0.000 OA
ATOM     19  H   UNL     1       3.674   6.760  18.015  0.00  0.00    +0.000 HD
BRANCH  16  21
ATOM     20  C   UNL     1       5.763   5.282  19.330  0.00  0.00    +0.000 C 
ATOM     21  C   UNL     1       4.297   5.014  19.046  0.00  0.00    +0.000 C 
ENDBRANCH  16  21
ENDBRANCH  10  17
ENDBRANCH   1  13
BRANCH   1  22
ATOM     22  C   UNL     1      -1.683  11.513  18.036  0.00  0.00    +0.000 A 
ATOM     23  C   UNL     1      -2.594  11.876  19.035  0.00  0.00    +0.000 A 
ATOM     24  C   UNL     1      -3.964  11.818  18.784  0.00  0.00    +0.000 A 
ATOM     25  C   UNL     1      -4.422  11.391  17.538  0.00  0.00    +0.000 A 
ATOM     26  C   UNL     1      -3.524  11.028  16.530  0.00  0.00    +0.000 A 
ATOM     27  C   UNL     1      -2.152  11.099  16.778  0.00  0.00    +0.000 A 
BRANCH  26  28
ATOM     28  O   UNL     1      -4.113  10.612  15.367  0.00  0.00    +0.000 OA
ATOM     29  C   UNL     1      -3.254  10.067  14.373  0.00  0.00    +0.000 C 
ENDBRANCH  26  28
ENDBRANCH   1  22
BRANCH   9  30
ATOM     30  C   UNL     1       1.080  14.465  21.997  0.00  0.00    +0.000 C 
BRANCH  30  31
ATOM     31  C   UNL     1      -0.225  14.596  22.745  0.00  0.00    +0.000 A 
ATOM     32  C   UNL     1      -0.776  15.711  23.346  0.00  0.00    +0.000 A 
ATOM     33  C   UNL     1      -2.010  15.427  24.002  0.00  0.00    +0.000 A 
ATOM     34  C   UNL     1      -2.363  14.103  23.881  0.00  0.00    +0.000 A 
ATOM     35  S   UNL     1      -1.222  13.215  22.971  0.00  0.00    +0.000 S 
ENDBRANCH  30  31
ENDBRANCH   9  30
TORSDOF 7
ENDMDL
MODEL 9
REMARK VINA RESULT:      -7.3      1.355      1.902
REMARK  Name = 
REMARK  9 active torsions:
REMARK  status: ('A' for Active; 'I' for Inactive)
REMARK    1  A    between atoms: C_1  and  C_2
REMARK    2  A    between atoms: C_2  and  N_3
REMARK    3  A    between atoms: C_4  and  C_6
REMARK    4  A    between atoms: C_9  and  C_10
REMARK    5  A    between atoms: C_10  and  C_25
REMARK    6  A    between atoms: N_18  and  C_19
REMARK    7  A    between atoms: C_19  and  C_20
REMARK    8  A    between atoms: C_29  and  O_30
REMARK    9  A    between atoms: O_30  and  C_31
REMARK                            x       y       z     vdW  Elec       q    Type
REMARK                         _______ _______ _______ _____ _____    ______ ____
ROOT
ATOM      1  C   UNL     1      -0.400  11.599  18.457  0.00  0.00    +0.000 C 
ATOM      2  C   UNL     1       0.056  12.833  18.803  0.00  0.00    +0.000 C 
ATOM      3  C   UNL     1       1.437  13.169  19.373  0.00  0.00    +0.000 C 
ATOM      4  C   UNL     1       1.335  13.930  20.735  0.00  0.00    +0.000 C 
ATOM      5  C   UNL     1       1.385  15.465  20.571  0.00  0.00    +0.000 C 
ATOM      6  C   UNL     1      -0.075  15.908  20.463  0.00  0.00    +0.000 C 
ATOM      7  C   UNL     1      -0.838  14.585  20.400  0.00  0.00    +0.000 C 
ATOM      8  C   UNL     1      -0.835  14.070  18.913  0.00  0.00    +0.000 C 
ATOM      9  N   UNL     1      -0.024  13.687  21.275  0.00  0.00    +0.000 NA
ENDROOT
BRANCH   1  13
ATOM     10  C   UNL     1       1.699   7.974  19.468  0.00  0.00    +0.000 A 
ATOM     11  C   UNL     1       0.874   8.619  20.396  0.00  0.00    +0.000 A 
ATOM     12  C   UNL     1       0.215   9.801  20.055  0.00  0.00    +0.000 A 
ATOM     13  C   UNL     1       0.376  10.371  18.785  0.00  0.00    +0.000 A 
ATOM     14  C   UNL     1       1.200   9.735  17.858  0.00  0.00    +0.000 A 
ATOM     15  C   UNL     1       1.863   8.541  18.195  0.00  0.00    +0.000 A 
BRANCH  10  17
ATOM     16  N   UNL     1       3.495   6.327  19.184  0.00  0.00    +0.000 N 
ATOM     17  C   UNL     1       2.379   6.717  19.898  0.00  0.00    +0.000 C 
ATOM     18  O   UNL     1       1.919   6.061  20.828  0.00  0.00    +0.000 OA
ATOM     19  H   UNL     1       3.782   6.849  18.370  0.00  0.00    +0.000 HD
BRANCH  16  21
ATOM     20  C   UNL     1       5.680   5.199  19.170  0.00  0.00    +0.000 C 
ATOM     21  C   UNL     1       4.200   5.094  19.486  0.00  0.00    +0.000 C 
ENDBRANCH  16  21
ENDBRANCH  10  17
ENDBRANCH   1  13
BRANCH   1  22
ATOM     22  C   UNL     1      -1.764  11.488  17.885  0.00  0.00    +0.000 A 
ATOM     23  C   UNL     1      -2.863  11.428  18.751  0.00  0.00    +0.000 A 
ATOM     24  C   UNL     1      -4.146  11.247  18.238  0.00  0.00    +0.000 A 
ATOM     25  C   UNL     1      -4.330  11.119  16.862  0.00  0.00    +0.000 A 
ATOM     26  C   UNL     1      -3.243  11.180  15.985  0.00  0.00    +0.000 A 
ATOM     27  C   UNL     1      -1.960  11.374  16.499  0.00  0.00    +0.000 A 
BRANCH  26  28
ATOM     28  O   UNL     1      -3.568  11.021  14.665  0.00  0.00    +0.000 OA
ATOM     29  C   UNL     1      -3.106   9.835  14.030  0.00  0.00    +0.000 C 
ENDBRANCH  26  28
ENDBRANCH   1  22
BRANCH   9  30
ATOM     30  C   UNL     1      -0.160  13.976  22.709  0.00  0.00    +0.000 C 
BRANCH  30  31
ATOM     31  C   UNL     1      -1.493  13.548  23.273  0.00  0.00    +0.000 A 
ATOM     32  C   UNL     1      -2.163  12.350  23.113  0.00  0.00    +0.000 A 
ATOM     33  C   UNL     1      -3.430  12.338  23.766  0.00  0.00    +0.000 A 
ATOM     34  C   UNL     1      -3.690  13.528  24.406  0.00  0.00    +0.000 A 
ATOM     35  S   UNL     1      -2.407  14.644  24.232  0.00  0.00    +0.000 S 
ENDBRANCH  30  31
ENDBRANCH   9  30
TORSDOF 7
ENDMDL
