MODEL 1
REMARK VINA RESULT:      -7.9      0.000      0.000
REMARK  Name = 
REMARK  4 active torsions:
REMARK  status: ('A' for Active; 'I' for Inactive)
REMARK    1  A    between atoms: C_1  and  N_2
REMARK    2  A    between atoms: C_11  and  C_12
REMARK    3  A    between atoms: N_20  and  C_21
REMARK    4  A    between atoms: C_21  and  C_22
REMARK                            x       y       z     vdW  Elec       q    Type
REMARK                         _______ _______ _______ _____ _____    ______ ____
ROOT
ATOM      1  C   UNL     1      -3.454  16.758  23.839  0.00  0.00    +0.000 C 
ATOM      2  N   UNL     1      -3.460  15.324  23.561  0.00  0.00    +0.000 NA
ATOM      3  C   UNL     1      -2.522  14.615  24.463  0.00  0.00    +0.000 C 
ATOM      4  C   UNL     1      -2.470  13.094  24.182  0.00  0.00    +0.000 C 
ATOM      5  N   UNL     1      -2.142  12.874  22.772  0.00  0.00    +0.000 N 
ATOM      6  C   UNL     1      -1.467  11.738  22.401  0.00  0.00    +0.000 A 
ATOM      7  N   UNL     1      -0.991  10.940  23.368  0.00  0.00    +0.000 NA
ATOM      8  C   UNL     1      -0.232   9.888  23.004  0.00  0.00    +0.000 A 
ATOM      9  C   UNL     1       0.116   9.599  21.709  0.00  0.00    +0.000 A 
ATOM     10  N   UNL     1       0.919   8.490  21.412  0.00  0.00    +0.000 NA
ATOM     11  C   UNL     1       1.322   8.346  20.182  0.00  0.00    +0.000 A 
ATOM     12  C   UNL     1       0.998   9.399  19.107  0.00  0.00    +0.000 A 
ATOM     13  O   UNL     1       1.617   9.400  18.050  0.00  0.00    +0.000 OA
ATOM     14  N   UNL     1       0.011  10.316  19.427  0.00  0.00    +0.000 N 
ATOM     15  C   UNL     1      -0.403  10.479  20.771  0.00  0.00    +0.000 A 
ATOM     16  N   UNL     1      -1.216  11.511  21.099  0.00  0.00    +0.000 NA
ATOM     17  C   UNL     1      -3.019  13.552  21.820  0.00  0.00    +0.000 C 
ATOM     18  C   UNL     1      -3.068  15.064  22.154  0.00  0.00    +0.000 C 
ENDROOT
BRANCH  11  19
ATOM     19  C   UNL     1       2.104   7.128  19.806  0.00  0.00    +0.000 A 
ATOM     20  C   UNL     1       2.930   7.109  18.676  0.00  0.00    +0.000 A 
ATOM     21  C   UNL     1       3.638   5.957  18.332  0.00  0.00    +0.000 A 
ATOM     22  C   UNL     1       3.516   4.808  19.100  0.00  0.00    +0.000 A 
ATOM     23  C   UNL     1       2.682   4.804  20.219  0.00  0.00    +0.000 A 
ATOM     24  C   UNL     1       1.976   5.960  20.572  0.00  0.00    +0.000 A 
ENDBRANCH  11  19
BRANCH  14  25
ATOM     25  C   UNL     1      -0.414  11.277  18.417  0.00  0.00    +0.000 C 
BRANCH  25  26
ATOM     26  C   UNL     1      -1.682  10.839  17.740  0.00  0.00    +0.000 A 
ATOM     27  C   UNL     1      -1.869   9.902  16.739  0.00  0.00    +0.000 A 
ATOM     28  C   UNL     1      -3.204   9.897  16.247  0.00  0.00    +0.000 A 
ATOM     29  C   UNL     1      -4.016  10.757  16.950  0.00  0.00    +0.000 A 
ATOM     30  S   UNL     1      -3.173  11.553  18.205  0.00  0.00    +0.000 S 
ENDBRANCH  25  26
ENDBRANCH  14  25
TORSDOF 3
ENDMDL
MODEL 2
REMARK VINA RESULT:      -7.5      2.447      8.059
REMARK  Name = 
REMARK  4 active torsions:
REMARK  status: ('A' for Active; 'I' for Inactive)
REMARK    1  A    between atoms: C_1  and  N_2
REMARK    2  A    between atoms: C_11  and  C_12
REMARK    3  A    between atoms: N_20  and  C_21
REMARK    4  A    between atoms: C_21  and  C_22
REMARK                            x       y       z     vdW  Elec       q    Type
REMARK                         _______ _______ _______ _____ _____    ______ ____
ROOT
ATOM      1  C   UNL     1       2.680   4.232  17.503  0.00  0.00    +0.000 C 
ATOM      2  N   UNL     1       2.847   5.339  18.442  0.00  0.00    +0.000 NA
ATOM      3  C   UNL     1       2.094   5.081  19.691  0.00  0.00    +0.000 C 
ATOM      4  C   UNL     1       2.215   6.245  20.704  0.00  0.00    +0.000 C 
ATOM      5  N   UNL     1       1.794   7.491  20.060  0.00  0.00    +0.000 N 
ATOM      6  C   UNL     1       1.243   8.494  20.818  0.00  0.00    +0.000 A 
ATOM      7  N   UNL     1       0.963   8.235  22.104  0.00  0.00    +0.000 NA
ATOM      8  C   UNL     1       0.318   9.181  22.814  0.00  0.00    +0.000 A 
ATOM      9  C   UNL     1      -0.103  10.380  22.298  0.00  0.00    +0.000 A 
ATOM     10  N   UNL     1      -0.778  11.310  23.100  0.00  0.00    +0.000 NA
ATOM     11  C   UNL     1      -1.267  12.369  22.521  0.00  0.00    +0.000 A 
ATOM     12  C   UNL     1      -1.179  12.556  20.995  0.00  0.00    +0.000 A 
ATOM     13  O   UNL     1      -1.885  13.391  20.443  0.00  0.00    +0.000 OA
ATOM     14  N   UNL     1      -0.296  11.725  20.326  0.00  0.00    +0.000 N 
ATOM     15  C   UNL     1       0.211  10.565  20.960  0.00  0.00    +0.000 A 
ATOM     16  N   UNL     1       0.909   9.660  20.234  0.00  0.00    +0.000 NA
ATOM     17  C   UNL     1       2.488   7.808  18.814  0.00  0.00    +0.000 C 
ATOM     18  C   UNL     1       2.369   6.609  17.841  0.00  0.00    +0.000 C 
ENDROOT
BRANCH  11  19
ATOM     19  C   UNL     1      -1.913  13.428  23.356  0.00  0.00    +0.000 A 
ATOM     20  C   UNL     1      -1.183  14.513  23.855  0.00  0.00    +0.000 A 
ATOM     21  C   UNL     1      -1.801  15.482  24.646  0.00  0.00    +0.000 A 
ATOM     22  C   UNL     1      -3.148  15.369  24.963  0.00  0.00    +0.000 A 
ATOM     23  C   UNL     1      -3.885  14.283  24.489  0.00  0.00    +0.000 A 
ATOM     24  C   UNL     1      -3.271  13.313  23.688  0.00  0.00    +0.000 A 
ENDBRANCH  11  19
BRANCH  14  25
ATOM     25  C   UNL     1      -0.091  11.917  18.896  0.00  0.00    +0.000 C 
BRANCH  25  26
ATOM     26  C   UNL     1       1.081  12.818  18.624  0.00  0.00    +0.000 A 
ATOM     27  C   UNL     1       2.388  12.493  18.308  0.00  0.00    +0.000 A 
ATOM     28  C   UNL     1       3.240  13.633  18.294  0.00  0.00    +0.000 A 
ATOM     29  C   UNL     1       2.542  14.800  18.502  0.00  0.00    +0.000 A 
ATOM     30  S   UNL     1       0.868  14.520  18.698  0.00  0.00    +0.000 S 
ENDBRANCH  25  26
ENDBRANCH  14  25
TORSDOF 3
ENDMDL
MODEL 3
REMARK VINA RESULT:      -7.5      0.663      1.093
REMARK  Name = 
REMARK  4 active torsions:
REMARK  status: ('A' for Active; 'I' for Inactive)
REMARK    1  A    between atoms: C_1  and  N_2
REMARK    2  A    between atoms: C_11  and  C_12
REMARK    3  A    between atoms: N_20  and  C_21
REMARK    4  A    between atoms: C_21  and  C_22
REMARK                            x       y       z     vdW  Elec       q    Type
REMARK                         _______ _______ _______ _____ _____    ______ ____
ROOT
ATOM      1  C   UNL     1      -2.544  17.478  22.976  0.00  0.00    +0.000 C 
ATOM      2  N   UNL     1      -2.705  16.030  22.873  0.00  0.00    +0.000 NA
ATOM      3  C   UNL     1      -1.843  15.338  23.859  0.00  0.00    +0.000 C 
ATOM      4  C   UNL     1      -1.956  13.798  23.764  0.00  0.00    +0.000 C 
ATOM      5  N   UNL     1      -1.664  13.376  22.393  0.00  0.00    +0.000 N 
ATOM      6  C   UNL     1      -1.117  12.137  22.166  0.00  0.00    +0.000 A 
ATOM      7  N   UNL     1      -0.723  11.415  23.225  0.00  0.00    +0.000 NA
ATOM      8  C   UNL     1      -0.084  10.252  22.995  0.00  0.00    +0.000 A 
ATOM      9  C   UNL     1       0.222   9.773  21.747  0.00  0.00    +0.000 A 
ATOM     10  N   UNL     1       0.899   8.556  21.590  0.00  0.00    +0.000 NA
ATOM     11  C   UNL     1       1.276   8.222  20.389  0.00  0.00    +0.000 A 
ATOM     12  C   UNL     1       1.059   9.167  19.193  0.00  0.00    +0.000 A 
ATOM     13  O   UNL     1       1.667   8.974  18.148  0.00  0.00    +0.000 OA
ATOM     14  N   UNL     1       0.179  10.217  19.394  0.00  0.00    +0.000 N 
ATOM     15  C   UNL     1      -0.206  10.584  20.706  0.00  0.00    +0.000 A 
ATOM     16  N   UNL     1      -0.901  11.729  20.902  0.00  0.00    +0.000 NA
ATOM     17  C   UNL     1      -2.470  14.024  21.361  0.00  0.00    +0.000 C 
ATOM     18  C   UNL     1      -2.353  15.562  21.510  0.00  0.00    +0.000 C 
ENDROOT
BRANCH  11  19
ATOM     19  C   UNL     1       1.919   6.891  20.168  0.00  0.00    +0.000 A 
ATOM     20  C   UNL     1       1.505   5.752  20.869  0.00  0.00    +0.000 A 
ATOM     21  C   UNL     1       2.130   4.522  20.661  0.00  0.00    +0.000 A 
ATOM     22  C   UNL     1       3.185   4.419  19.765  0.00  0.00    +0.000 A 
ATOM     23  C   UNL     1       3.623   5.548  19.072  0.00  0.00    +0.000 A 
ATOM     24  C   UNL     1       2.993   6.782  19.272  0.00  0.00    +0.000 A 
ENDBRANCH  11  19
BRANCH  14  25
ATOM     25  C   UNL     1      -0.148  11.089  18.273  0.00  0.00    +0.000 C 
BRANCH  25  26
ATOM     26  C   UNL     1      -1.490  10.753  17.687  0.00  0.00    +0.000 A 
ATOM     27  C   UNL     1      -1.830   9.777  16.767  0.00  0.00    +0.000 A 
ATOM     28  C   UNL     1      -3.182   9.889  16.336  0.00  0.00    +0.000 A 
ATOM     29  C   UNL     1      -3.857  10.882  17.008  0.00  0.00    +0.000 A 
ATOM     30  S   UNL     1      -2.867  11.661  18.162  0.00  0.00    +0.000 S 
ENDBRANCH  25  26
ENDBRANCH  14  25
TORSDOF 3
ENDMDL
MODEL 4
REMARK VINA RESULT:      -7.3      1.828      7.666
REMARK  Name = 
REMARK  4 active torsions:
REMARK  status: ('A' for Active; 'I' for Inactive)
REMARK    1  A    between atoms: C_1  and  N_2
REMARK    2  A    between atoms: C_11  and  C_12
REMARK    3  A    between atoms: N_20  and  C_21
REMARK    4  A    between atoms: C_21  and  C_22
REMARK                            x       y       z     vdW  Elec       q    Type
REMARK                         _______ _______ _______ _____ _____    ______ ____
ROOT
ATOM      1  C   UNL     1       2.506   4.262  17.526  0.00  0.00    +0.000 C 
ATOM      2  N   UNL     1       2.718   5.397  18.420  0.00  0.00    +0.000 NA
ATOM      3  C   UNL     1       2.055   5.164  19.725  0.00  0.00    +0.000 C 
ATOM      4  C   UNL     1       2.225   6.358  20.695  0.00  0.00    +0.000 C 
ATOM      5  N   UNL     1       1.741   7.579  20.047  0.00  0.00    +0.000 N 
ATOM      6  C   UNL     1       1.225   8.595  20.812  0.00  0.00    +0.000 A 
ATOM      7  N   UNL     1       1.037   8.369  22.121  0.00  0.00    +0.000 NA
ATOM      8  C   UNL     1       0.426   9.325  22.846  0.00  0.00    +0.000 A 
ATOM      9  C   UNL     1      -0.049  10.502  22.328  0.00  0.00    +0.000 A 
ATOM     10  N   UNL     1      -0.684  11.445  23.148  0.00  0.00    +0.000 NA
ATOM     11  C   UNL     1      -1.228  12.479  22.574  0.00  0.00    +0.000 A 
ATOM     12  C   UNL     1      -1.247  12.624  21.042  0.00  0.00    +0.000 A 
ATOM     13  O   UNL     1      -2.002  13.432  20.516  0.00  0.00    +0.000 OA
ATOM     14  N   UNL     1      -0.397  11.788  20.337  0.00  0.00    +0.000 N 
ATOM     15  C   UNL     1       0.171  10.654  20.967  0.00  0.00    +0.000 A 
ATOM     16  N   UNL     1       0.833   9.738  20.221  0.00  0.00    +0.000 NA
ATOM     17  C   UNL     1       2.344   7.871  18.748  0.00  0.00    +0.000 C 
ATOM     18  C   UNL     1       2.179   6.642  17.819  0.00  0.00    +0.000 C 
ENDROOT
BRANCH  11  19
ATOM     19  C   UNL     1      -1.835  13.551  23.421  0.00  0.00    +0.000 A 
ATOM     20  C   UNL     1      -1.086  14.652  23.855  0.00  0.00    +0.000 A 
ATOM     21  C   UNL     1      -1.666  15.634  24.659  0.00  0.00    +0.000 A 
ATOM     22  C   UNL     1      -2.992  15.519  25.054  0.00  0.00    +0.000 A 
ATOM     23  C   UNL     1      -3.746  14.418  24.646  0.00  0.00    +0.000 A 
ATOM     24  C   UNL     1      -3.171  13.435  23.833  0.00  0.00    +0.000 A 
ENDBRANCH  11  19
BRANCH  14  25
ATOM     25  C   UNL     1      -0.292  11.942  18.892  0.00  0.00    +0.000 C 
BRANCH  25  26
ATOM     26  C   UNL     1      -1.324  11.117  18.174  0.00  0.00    +0.000 A 
ATOM     27  C   UNL     1      -1.168   9.951  17.445  0.00  0.00    +0.000 A 
ATOM     28  C   UNL     1      -2.366   9.569  16.777  0.00  0.00    +0.000 A 
ATOM     29  C   UNL     1      -3.419  10.395  17.093  0.00  0.00    +0.000 A 
ATOM     30  S   UNL     1      -2.967  11.615  18.200  0.00  0.00    +0.000 S 
ENDBRANCH  25  26
ENDBRANCH  14  25
TORSDOF 3
ENDMDL
MODEL 5
REMARK VINA RESULT:      -7.3      2.512      8.126
REMARK  Name = 
REMARK  4 active torsions:
REMARK  status: ('A' for Active; 'I' for Inactive)
REMARK    1  A    between atoms: C_1  and  N_2
REMARK    2  A    between atoms: C_11  and  C_12
REMARK    3  A    between atoms: N_20  and  C_21
REMARK    4  A    between atoms: C_21  and  C_22
REMARK                            x       y       z     vdW  Elec       q    Type
REMARK                         _______ _______ _______ _____ _____    ______ ____
ROOT
ATOM      1  C   UNL     1       2.603   4.479  17.623  0.00  0.00    +0.000 C 
ATOM      2  N   UNL     1       2.740   5.573  18.581  0.00  0.00    +0.000 NA
ATOM      3  C   UNL     1       1.941   5.302  19.799  0.00  0.00    +0.000 C 
ATOM      4  C   UNL     1       2.029   6.452  20.831  0.00  0.00    +0.000 C 
ATOM      5  N   UNL     1       1.636   7.708  20.188  0.00  0.00    +0.000 N 
ATOM      6  C   UNL     1       1.061   8.703  20.939  0.00  0.00    +0.000 A 
ATOM      7  N   UNL     1       0.734   8.429  22.210  0.00  0.00    +0.000 NA
ATOM      8  C   UNL     1       0.067   9.368  22.908  0.00  0.00    +0.000 A 
ATOM      9  C   UNL     1      -0.331  10.576  22.393  0.00  0.00    +0.000 A 
ATOM     10  N   UNL     1      -1.032  11.498  23.182  0.00  0.00    +0.000 NA
ATOM     11  C   UNL     1      -1.496  12.566  22.599  0.00  0.00    +0.000 A 
ATOM     12  C   UNL     1      -1.352  12.772  21.080  0.00  0.00    +0.000 A 
ATOM     13  O   UNL     1      -2.034  13.617  20.514  0.00  0.00    +0.000 OA
ATOM     14  N   UNL     1      -0.448  11.947  20.433  0.00  0.00    +0.000 N 
ATOM     15  C   UNL     1       0.032  10.777  21.070  0.00  0.00    +0.000 A 
ATOM     16  N   UNL     1       0.752   9.878  20.358  0.00  0.00    +0.000 NA
ATOM     17  C   UNL     1       2.376   8.039  18.972  0.00  0.00    +0.000 C 
ATOM     18  C   UNL     1       2.288   6.852  17.981  0.00  0.00    +0.000 C 
ENDROOT
BRANCH  11  19
ATOM     19  C   UNL     1      -2.169  13.616  23.423  0.00  0.00    +0.000 A 
ATOM     20  C   UNL     1      -3.563  13.672  23.539  0.00  0.00    +0.000 A 
ATOM     21  C   UNL     1      -4.173  14.671  24.300  0.00  0.00    +0.000 A 
ATOM     22  C   UNL     1      -3.401  15.633  24.936  0.00  0.00    +0.000 A 
ATOM     23  C   UNL     1      -2.011  15.602  24.814  0.00  0.00    +0.000 A 
ATOM     24  C   UNL     1      -1.395  14.597  24.059  0.00  0.00    +0.000 A 
ENDBRANCH  11  19
BRANCH  14  25
ATOM     25  C   UNL     1      -0.191  12.156  19.013  0.00  0.00    +0.000 C 
BRANCH  25  26
ATOM     26  C   UNL     1       0.928  13.136  18.796  0.00  0.00    +0.000 A 
ATOM     27  C   UNL     1       0.950  14.505  18.990  0.00  0.00    +0.000 A 
ATOM     28  C   UNL     1       2.149  15.100  18.506  0.00  0.00    +0.000 A 
ATOM     29  C   UNL     1       3.043  14.159  18.049  0.00  0.00    +0.000 A 
ATOM     30  S   UNL     1       2.442  12.569  18.217  0.00  0.00    +0.000 S 
ENDBRANCH  25  26
ENDBRANCH  14  25
TORSDOF 3
ENDMDL
MODEL 6
REMARK VINA RESULT:      -7.1      1.207      1.445
REMARK  Name = 
REMARK  4 active torsions:
REMARK  status: ('A' for Active; 'I' for Inactive)
REMARK    1  A    between atoms: C_1  and  N_2
REMARK    2  A    between atoms: C_11  and  C_12
REMARK    3  A    between atoms: N_20  and  C_21
REMARK    4  A    between atoms: C_21  and  C_22
REMARK                            x       y       z     vdW  Elec       q    Type
REMARK                         _______ _______ _______ _____ _____    ______ ____
ROOT
ATOM      1  C   UNL     1      -2.553  15.865  23.354  0.00  0.00    +0.000 C 
ATOM      2  N   UNL     1      -2.596  14.445  23.012  0.00  0.00    +0.000 NA
ATOM      3  C   UNL     1      -1.712  13.666  23.909  0.00  0.00    +0.000 C 
ATOM      4  C   UNL     1      -1.700  12.158  23.563  0.00  0.00    +0.000 C 
ATOM      5  N   UNL     1      -1.335  11.989  22.155  0.00  0.00    +0.000 N 
ATOM      6  C   UNL     1      -0.686  10.848  21.754  0.00  0.00    +0.000 A 
ATOM      7  N   UNL     1      -0.267   9.993  22.699  0.00  0.00    +0.000 NA
ATOM      8  C   UNL     1       0.468   8.933  22.311  0.00  0.00    +0.000 A 
ATOM      9  C   UNL     1       0.847   8.689  21.015  0.00  0.00    +0.000 A 
ATOM     10  N   UNL     1       1.623   7.567  20.693  0.00  0.00    +0.000 NA
ATOM     11  C   UNL     1       2.059   7.463  19.471  0.00  0.00    +0.000 A 
ATOM     12  C   UNL     1       1.804   8.572  18.435  0.00  0.00    +0.000 A 
ATOM     13  O   UNL     1       2.456   8.598  17.398  0.00  0.00    +0.000 OA
ATOM     14  N   UNL     1       0.838   9.508  18.765  0.00  0.00    +0.000 N 
ATOM     15  C   UNL     1       0.387   9.625  20.102  0.00  0.00    +0.000 A 
ATOM     16  N   UNL     1      -0.402  10.669  20.451  0.00  0.00    +0.000 NA
ATOM     17  C   UNL     1      -2.160  12.737  21.208  0.00  0.00    +0.000 C 
ATOM     18  C   UNL     1      -2.169  14.233  21.607  0.00  0.00    +0.000 C 
ENDROOT
BRANCH  11  19
ATOM     19  C   UNL     1       2.812   6.236  19.064  0.00  0.00    +0.000 A 
ATOM     20  C   UNL     1       2.192   5.196  18.362  0.00  0.00    +0.000 A 
ATOM     21  C   UNL     1       2.908   4.052  18.007  0.00  0.00    +0.000 A 
ATOM     22  C   UNL     1       4.243   3.926  18.364  0.00  0.00    +0.000 A 
ATOM     23  C   UNL     1       4.871   4.945  19.081  0.00  0.00    +0.000 A 
ATOM     24  C   UNL     1       4.159   6.098  19.432  0.00  0.00    +0.000 A 
ENDBRANCH  11  19
BRANCH  14  25
ATOM     25  C   UNL     1       0.477  10.526  17.787  0.00  0.00    +0.000 C 
BRANCH  25  26
ATOM     26  C   UNL     1      -0.998  10.508  17.494  0.00  0.00    +0.000 A 
ATOM     27  C   UNL     1      -1.782   9.489  16.983  0.00  0.00    +0.000 A 
ATOM     28  C   UNL     1      -3.106   9.923  16.691  0.00  0.00    +0.000 A 
ATOM     29  C   UNL     1      -3.319  11.226  17.076  0.00  0.00    +0.000 A 
ATOM     30  S   UNL     1      -1.932  11.916  17.798  0.00  0.00    +0.000 S 
ENDBRANCH  25  26
ENDBRANCH  14  25
TORSDOF 3
ENDMDL
MODEL 7
REMARK VINA RESULT:      -7.1      1.454      2.475
REMARK  Name = 
REMARK  4 active torsions:
REMARK  status: ('A' for Active; 'I' for Inactive)
REMARK    1  A    between atoms: C_1  and  N_2
REMARK    2  A    between atoms: C_11  and  C_12
REMARK    3  A    between atoms: N_20  and  C_21
REMARK    4  A    between atoms: C_21  and  C_22
REMARK                            x       y       z     vdW  Elec       q    Type
REMARK                         _______ _______ _______ _____ _____    ______ ____
ROOT
ATOM      1  C   UNL     1      -3.299  16.644  23.585  0.00  0.00    +0.000 C 
ATOM      2  N   UNL     1      -3.338  15.216  23.279  0.00  0.00    +0.000 NA
ATOM      3  C   UNL     1      -2.518  14.453  24.248  0.00  0.00    +0.000 C 
ATOM      4  C   UNL     1      -2.502  12.936  23.943  0.00  0.00    +0.000 C 
ATOM      5  N   UNL     1      -2.055  12.725  22.565  0.00  0.00    +0.000 N 
ATOM      6  C   UNL     1      -1.395  11.567  22.234  0.00  0.00    +0.000 A 
ATOM      7  N   UNL     1      -1.044  10.734  23.225  0.00  0.00    +0.000 NA
ATOM      8  C   UNL     1      -0.299   9.657  22.911  0.00  0.00    +0.000 A 
ATOM      9  C   UNL     1       0.155   9.374  21.648  0.00  0.00    +0.000 A 
ATOM     10  N   UNL     1       0.936   8.236  21.403  0.00  0.00    +0.000 NA
ATOM     11  C   UNL     1       1.444   8.095  20.213  0.00  0.00    +0.000 A 
ATOM     12  C   UNL     1       1.264   9.178  19.134  0.00  0.00    +0.000 A 
ATOM     13  O   UNL     1       1.978   9.170  18.138  0.00  0.00    +0.000 OA
ATOM     14  N   UNL     1       0.291  10.132  19.380  0.00  0.00    +0.000 N 
ATOM     15  C   UNL     1      -0.238  10.290  20.684  0.00  0.00    +0.000 A 
ATOM     16  N   UNL     1      -1.035  11.351  20.956  0.00  0.00    +0.000 NA
ATOM     17  C   UNL     1      -2.812  13.455  21.550  0.00  0.00    +0.000 C 
ATOM     18  C   UNL     1      -2.828  14.962  21.909  0.00  0.00    +0.000 C 
ENDROOT
BRANCH  11  19
ATOM     19  C   UNL     1       2.207   6.851  19.885  0.00  0.00    +0.000 A 
ATOM     20  C   UNL     1       2.082   5.691  20.660  0.00  0.00    +0.000 A 
ATOM     21  C   UNL     1       2.815   4.546  20.349  0.00  0.00    +0.000 A 
ATOM     22  C   UNL     1       3.692   4.550  19.273  0.00  0.00    +0.000 A 
ATOM     23  C   UNL     1       3.842   5.703  18.503  0.00  0.00    +0.000 A 
ATOM     24  C   UNL     1       3.103   6.852  18.807  0.00  0.00    +0.000 A 
ENDBRANCH  11  19
BRANCH  14  25
ATOM     25  C   UNL     1       0.001  11.126  18.355  0.00  0.00    +0.000 C 
BRANCH  25  26
ATOM     26  C   UNL     1       0.792  12.386  18.571  0.00  0.00    +0.000 A 
ATOM     27  C   UNL     1       2.162  12.562  18.659  0.00  0.00    +0.000 A 
ATOM     28  C   UNL     1       2.513  13.888  19.039  0.00  0.00    +0.000 A 
ATOM     29  C   UNL     1       1.410  14.705  19.133  0.00  0.00    +0.000 A 
ATOM     30  S   UNL     1      -0.036  13.879  18.752  0.00  0.00    +0.000 S 
ENDBRANCH  25  26
ENDBRANCH  14  25
TORSDOF 3
ENDMDL
MODEL 8
REMARK VINA RESULT:      -7.0      2.447      8.095
REMARK  Name = 
REMARK  4 active torsions:
REMARK  status: ('A' for Active; 'I' for Inactive)
REMARK    1  A    between atoms: C_1  and  N_2
REMARK    2  A    between atoms: C_11  and  C_12
REMARK    3  A    between atoms: N_20  and  C_21
REMARK    4  A    between atoms: C_21  and  C_22
REMARK                            x       y       z     vdW  Elec       q    Type
REMARK                         _______ _______ _______ _____ _____    ______ ____
ROOT
ATOM      1  C   UNL     1       3.691   4.419  16.779  0.00  0.00    +0.000 C 
ATOM      2  N   UNL     1       3.697   5.450  17.814  0.00  0.00    +0.000 NA
ATOM      3  C   UNL     1       2.909   5.013  18.989  0.00  0.00    +0.000 C 
ATOM      4  C   UNL     1       2.860   6.089  20.100  0.00  0.00    +0.000 C 
ATOM      5  N   UNL     1       2.351   7.342  19.537  0.00  0.00    +0.000 N 
ATOM      6  C   UNL     1       1.662   8.217  20.340  0.00  0.00    +0.000 A 
ATOM      7  N   UNL     1       1.343   7.820  21.580  0.00  0.00    +0.000 NA
ATOM      8  C   UNL     1       0.570   8.634  22.325  0.00  0.00    +0.000 A 
ATOM      9  C   UNL     1       0.059   9.829  21.885  0.00  0.00    +0.000 A 
ATOM     10  N   UNL     1      -0.748  10.616  22.718  0.00  0.00    +0.000 NA
ATOM     11  C   UNL     1      -1.308  11.670  22.199  0.00  0.00    +0.000 A 
ATOM     12  C   UNL     1      -1.159  11.998  20.702  0.00  0.00    +0.000 A 
ATOM     13  O   UNL     1      -1.915  12.808  20.179  0.00  0.00    +0.000 OA
ATOM     14  N   UNL     1      -0.164  11.318  20.022  0.00  0.00    +0.000 N 
ATOM     15  C   UNL     1       0.423  10.160  20.588  0.00  0.00    +0.000 A 
ATOM     16  N   UNL     1       1.245   9.392  19.834  0.00  0.00    +0.000 NA
ATOM     17  C   UNL     1       3.075   7.832  18.366  0.00  0.00    +0.000 C 
ATOM     18  C   UNL     1       3.127   6.716  17.292  0.00  0.00    +0.000 C 
ENDROOT
BRANCH  11  19
ATOM     19  C   UNL     1      -2.101  12.585  23.077  0.00  0.00    +0.000 A 
ATOM     20  C   UNL     1      -3.426  12.297  23.426  0.00  0.00    +0.000 A 
ATOM     21  C   UNL     1      -4.154  13.172  24.233  0.00  0.00    +0.000 A 
ATOM     22  C   UNL     1      -3.576  14.350  24.684  0.00  0.00    +0.000 A 
ATOM     23  C   UNL     1      -2.263  14.661  24.328  0.00  0.00    +0.000 A 
ATOM     24  C   UNL     1      -1.526  13.783  23.526  0.00  0.00    +0.000 A 
ENDBRANCH  11  19
BRANCH  14  25
ATOM     25  C   UNL     1       0.097  11.653  18.628  0.00  0.00    +0.000 C 
BRANCH  25  26
ATOM     26  C   UNL     1       1.166  12.702  18.505  0.00  0.00    +0.000 A 
ATOM     27  C   UNL     1       2.511  12.560  18.212  0.00  0.00    +0.000 A 
ATOM     28  C   UNL     1       3.227  13.781  18.356  0.00  0.00    +0.000 A 
ATOM     29  C   UNL     1       2.395  14.834  18.659  0.00  0.00    +0.000 A 
ATOM     30  S   UNL     1       0.758  14.352  18.753  0.00  0.00    +0.000 S 
ENDBRANCH  25  26
ENDBRANCH  14  25
TORSDOF 3
ENDMDL
MODEL 9
REMARK VINA RESULT:      -7.0      1.669      2.515
REMARK  Name = 
REMARK  4 active torsions:
REMARK  status: ('A' for Active; 'I' for Inactive)
REMARK    1  A    between atoms: C_1  and  N_2
REMARK    2  A    between atoms: C_11  and  C_12
REMARK    3  A    between atoms: N_20  and  C_21
REMARK    4  A    between atoms: C_21  and  C_22
REMARK                            x       y       z     vdW  Elec       q    Type
REMARK                         _______ _______ _______ _____ _____    ______ ____
ROOT
ATOM      1  C   UNL     1      -3.157  17.306  23.964  0.00  0.00    +0.000 C 
ATOM      2  N   UNL     1      -3.253  15.897  23.590  0.00  0.00    +0.000 NA
ATOM      3  C   UNL     1      -2.446  15.058  24.507  0.00  0.00    +0.000 C 
ATOM      4  C   UNL     1      -2.491  13.558  24.129  0.00  0.00    +0.000 C 
ATOM      5  N   UNL     1      -2.076  13.399  22.734  0.00  0.00    +0.000 N 
ATOM      6  C   UNL     1      -1.466  12.235  22.336  0.00  0.00    +0.000 A 
ATOM      7  N   UNL     1      -1.129  11.343  23.279  0.00  0.00    +0.000 NA
ATOM      8  C   UNL     1      -0.429  10.256  22.899  0.00  0.00    +0.000 A 
ATOM      9  C   UNL     1      -0.008  10.018  21.616  0.00  0.00    +0.000 A 
ATOM     10  N   UNL     1       0.726   8.867  21.302  0.00  0.00    +0.000 NA
ATOM     11  C   UNL     1       1.208   8.765  20.097  0.00  0.00    +0.000 A 
ATOM     12  C   UNL     1       1.049   9.905  19.075  0.00  0.00    +0.000 A 
ATOM     13  O   UNL     1       1.744   9.919  18.066  0.00  0.00    +0.000 OA
ATOM     14  N   UNL     1       0.116  10.880  19.385  0.00  0.00    +0.000 N 
ATOM     15  C   UNL     1      -0.384  10.994  20.704  0.00  0.00    +0.000 A 
ATOM     16  N   UNL     1      -1.136  12.068  21.042  0.00  0.00    +0.000 NA
ATOM     17  C   UNL     1      -2.823  14.204  21.770  0.00  0.00    +0.000 C 
ATOM     18  C   UNL     1      -2.778  15.691  22.200  0.00  0.00    +0.000 C 
ENDROOT
BRANCH  11  19
ATOM     19  C   UNL     1       1.918   7.511  19.696  0.00  0.00    +0.000 A 
ATOM     20  C   UNL     1       2.606   7.417  18.480  0.00  0.00    +0.000 A 
ATOM     21  C   UNL     1       3.248   6.233  18.116  0.00  0.00    +0.000 A 
ATOM     22  C   UNL     1       3.195   5.126  18.952  0.00  0.00    +0.000 A 
ATOM     23  C   UNL     1       2.497   5.197  20.158  0.00  0.00    +0.000 A 
ATOM     24  C   UNL     1       1.859   6.386  20.530  0.00  0.00    +0.000 A 
ENDBRANCH  11  19
BRANCH  14  25
ATOM     25  C   UNL     1      -0.155  11.933  18.414  0.00  0.00    +0.000 C 
BRANCH  25  26
ATOM     26  C   UNL     1       0.763  13.108  18.606  0.00  0.00    +0.000 A 
ATOM     27  C   UNL     1       2.141  13.174  18.508  0.00  0.00    +0.000 A 
ATOM     28  C   UNL     1       2.652  14.433  18.931  0.00  0.00    +0.000 A 
ATOM     29  C   UNL     1       1.647  15.318  19.244  0.00  0.00    +0.000 A 
ATOM     30  S   UNL     1       0.097  14.636  19.016  0.00  0.00    +0.000 S 
ENDBRANCH  25  26
ENDBRANCH  14  25
TORSDOF 3
ENDMDL
