MODEL 1
REMARK VINA RESULT:      -5.8      0.000      0.000
REMARK  Name = 
REMARK  8 active torsions:
REMARK  status: ('A' for Active; 'I' for Inactive)
REMARK    1  A    between atoms: O_1  and  C_2
REMARK    2  A    between atoms: C_2  and  C_3
REMARK    3  A    between atoms: C_3  and  O_4
REMARK    4  A    between atoms: C_3  and  C_5
REMARK    5  A    between atoms: C_5  and  S_6
REMARK    6  A    between atoms: S_6  and  C_7
REMARK    7  A    between atoms: C_7  and  C_8
REMARK    8  A    between atoms: N_10  and  C_11
REMARK                            x       y       z     vdW  Elec       q    Type
REMARK                         _______ _______ _______ _____ _____    ______ ____
ROOT
ATOM      1  C   UNL     1       4.191   4.889  18.826  0.00  0.00    +0.000 A 
ATOM      2  C   UNL     1       3.484   5.675  19.705  0.00  0.00    +0.000 A 
ATOM      3  N   UNL     1       2.879   6.625  18.926  0.00  0.00    +0.000 N 
ATOM      4  N   UNL     1       3.156   6.380  17.621  0.00  0.00    +0.000 NA
ATOM      5  N   UNL     1       3.968   5.333  17.551  0.00  0.00    +0.000 NA
ENDROOT
BRANCH   3   6
ATOM      6  C   UNL     1       2.076   7.706  19.345  0.00  0.00    +0.000 A 
ATOM      7  C   UNL     1       1.776   8.744  18.442  0.00  0.00    +0.000 A 
ATOM      8  C   UNL     1       1.037   9.850  18.878  0.00  0.00    +0.000 A 
ATOM      9  C   UNL     1       0.615   9.914  20.196  0.00  0.00    +0.000 A 
ATOM     10 CL   UNL     1      -0.243  11.304  20.739  0.00  0.00    +0.000 Cl
ATOM     11  C   UNL     1       0.879   8.870  21.087  0.00  0.00    +0.000 A 
ATOM     12  C   UNL     1       1.598   7.759  20.658  0.00  0.00    +0.000 A 
ENDBRANCH   3   6
BRANCH   1  13
ATOM     13  C   UNL     1       5.006   3.686  19.085  0.00  0.00    +0.000 C 
BRANCH  13  14
ATOM     14  S   UNL     1       3.984   2.346  19.758  0.00  0.00    +0.000 S 
BRANCH  14  15
ATOM     15  C   UNL     1       2.939   1.994  18.275  0.00  0.00    +0.000 C 
BRANCH  15  16
ATOM     16  C   UNL     1       1.501   2.486  18.514  0.00  0.00    +0.000 C 
BRANCH  16  17
ATOM     17  O   UNL     1       1.247   3.687  17.775  0.00  0.00    +0.000 OA
ATOM     18  H   UNL     1       0.569   3.466  17.106  0.00  0.00    +0.000 HD
ENDBRANCH  16  17
BRANCH  16  19
ATOM     19  C   UNL     1       1.224   2.710  20.006  0.00  0.00    +0.000 C 
BRANCH  19  20
ATOM     20  O   UNL     1       0.509   3.923  20.205  0.00  0.00    +0.000 OA
ATOM     21  H   UNL     1      -0.327   3.842  19.717  0.00  0.00    +0.000 HD
ENDBRANCH  19  20
ENDBRANCH  16  19
ENDBRANCH  15  16
ENDBRANCH  14  15
ENDBRANCH  13  14
ENDBRANCH   1  13
TORSDOF 8
ENDMDL
MODEL 2
REMARK VINA RESULT:      -5.8      4.419      6.132
REMARK  Name = 
REMARK  8 active torsions:
REMARK  status: ('A' for Active; 'I' for Inactive)
REMARK    1  A    between atoms: O_1  and  C_2
REMARK    2  A    between atoms: C_2  and  C_3
REMARK    3  A    between atoms: C_3  and  O_4
REMARK    4  A    between atoms: C_3  and  C_5
REMARK    5  A    between atoms: C_5  and  S_6
REMARK    6  A    between atoms: S_6  and  C_7
REMARK    7  A    between atoms: C_7  and  C_8
REMARK    8  A    between atoms: N_10  and  C_11
REMARK                            x       y       z     vdW  Elec       q    Type
REMARK                         _______ _______ _______ _____ _____    ______ ____
ROOT
ATOM      1  C   UNL     1       3.726   5.538  18.951  0.00  0.00    +0.000 A 
ATOM      2  C   UNL     1       3.800   5.627  17.581  0.00  0.00    +0.000 A 
ATOM      3  N   UNL     1       4.952   4.969  17.243  0.00  0.00    +0.000 N 
ATOM      4  N   UNL     1       5.516   4.446  18.360  0.00  0.00    +0.000 NA
ATOM      5  N   UNL     1       4.785   4.801  19.409  0.00  0.00    +0.000 NA
ENDROOT
BRANCH   3   6
ATOM      6  C   UNL     1       5.517   4.814  15.960  0.00  0.00    +0.000 A 
ATOM      7  C   UNL     1       4.776   4.182  14.943  0.00  0.00    +0.000 A 
ATOM      8  C   UNL     1       5.363   3.966  13.690  0.00  0.00    +0.000 A 
ATOM      9  C   UNL     1       6.669   4.370  13.467  0.00  0.00    +0.000 A 
ATOM     10 CL   UNL     1       7.403   4.050  11.944  0.00  0.00    +0.000 Cl
ATOM     11  C   UNL     1       7.396   5.031  14.462  0.00  0.00    +0.000 A 
ATOM     12  C   UNL     1       6.816   5.266  15.704  0.00  0.00    +0.000 A 
ENDBRANCH   3   6
BRANCH   1  13
ATOM     13  C   UNL     1       2.682   6.029  19.871  0.00  0.00    +0.000 C 
BRANCH  13  14
ATOM     14  S   UNL     1       2.051   4.681  20.909  0.00  0.00    +0.000 S 
BRANCH  14  15
ATOM     15  C   UNL     1       1.336   3.599  19.593  0.00  0.00    +0.000 C 
BRANCH  15  16
ATOM     16  C   UNL     1       2.163   2.309  19.463  0.00  0.00    +0.000 C 
BRANCH  16  17
ATOM     17  O   UNL     1       3.275   2.325  20.366  0.00  0.00    +0.000 OA
ATOM     18  H   UNL     1       2.978   2.805  21.166  0.00  0.00    +0.000 HD
ENDBRANCH  16  17
BRANCH  16  19
ATOM     19  C   UNL     1       2.650   2.096  18.024  0.00  0.00    +0.000 C 
BRANCH  19  20
ATOM     20  O   UNL     1       4.053   1.866  17.999  0.00  0.00    +0.000 OA
ATOM     21  H   UNL     1       4.316   1.629  18.904  0.00  0.00    +0.000 HD
ENDBRANCH  19  20
ENDBRANCH  16  19
ENDBRANCH  15  16
ENDBRANCH  14  15
ENDBRANCH  13  14
ENDBRANCH   1  13
TORSDOF 8
ENDMDL
MODEL 3
REMARK VINA RESULT:      -5.6      3.073      3.889
REMARK  Name = 
REMARK  8 active torsions:
REMARK  status: ('A' for Active; 'I' for Inactive)
REMARK    1  A    between atoms: O_1  and  C_2
REMARK    2  A    between atoms: C_2  and  C_3
REMARK    3  A    between atoms: C_3  and  O_4
REMARK    4  A    between atoms: C_3  and  C_5
REMARK    5  A    between atoms: C_5  and  S_6
REMARK    6  A    between atoms: S_6  and  C_7
REMARK    7  A    between atoms: C_7  and  C_8
REMARK    8  A    between atoms: N_10  and  C_11
REMARK                            x       y       z     vdW  Elec       q    Type
REMARK                         _______ _______ _______ _____ _____    ______ ____
ROOT
ATOM      1  C   UNL     1       3.744   4.490  18.142  0.00  0.00    +0.000 A 
ATOM      2  C   UNL     1       3.240   5.719  17.786  0.00  0.00    +0.000 A 
ATOM      3  N   UNL     1       2.786   6.269  18.955  0.00  0.00    +0.000 N 
ATOM      4  N   UNL     1       3.068   5.433  19.985  0.00  0.00    +0.000 NA
ATOM      5  N   UNL     1       3.637   4.338  19.498  0.00  0.00    +0.000 NA
ENDROOT
BRANCH   3   6
ATOM      6  C   UNL     1       2.132   7.506  19.134  0.00  0.00    +0.000 A 
ATOM      7  C   UNL     1       2.006   8.393  18.048  0.00  0.00    +0.000 A 
ATOM      8  C   UNL     1       1.418   9.648  18.243  0.00  0.00    +0.000 A 
ATOM      9  C   UNL     1       0.973  10.006  19.504  0.00  0.00    +0.000 A 
ATOM     10 CL   UNL     1       0.304  11.573  19.749  0.00  0.00    +0.000 Cl
ATOM     11  C   UNL     1       1.062   9.115  20.578  0.00  0.00    +0.000 A 
ATOM     12  C   UNL     1       1.629   7.859  20.390  0.00  0.00    +0.000 A 
ENDBRANCH   3   6
BRANCH   1  13
ATOM     13  C   UNL     1       4.402   3.465  17.307  0.00  0.00    +0.000 C 
BRANCH  13  14
ATOM     14  S   UNL     1       5.721   4.201  16.302  0.00  0.00    +0.000 S 
BRANCH  14  15
ATOM     15  C   UNL     1       6.904   4.656  17.647  0.00  0.00    +0.000 C 
BRANCH  15  16
ATOM     16  C   UNL     1       7.130   6.177  17.658  0.00  0.00    +0.000 C 
BRANCH  16  17
ATOM     17  O   UNL     1       7.629   6.625  16.392  0.00  0.00    +0.000 OA
ATOM     18  H   UNL     1       7.435   7.583  16.339  0.00  0.00    +0.000 HD
ENDBRANCH  16  17
BRANCH  16  19
ATOM     19  C   UNL     1       8.085   6.594  18.785  0.00  0.00    +0.000 C 
BRANCH  19  20
ATOM     20  O   UNL     1       8.181   5.568  19.764  0.00  0.00    +0.000 OA
ATOM     21  H   UNL     1       7.422   4.976  19.629  0.00  0.00    +0.000 HD
ENDBRANCH  19  20
ENDBRANCH  16  19
ENDBRANCH  15  16
ENDBRANCH  14  15
ENDBRANCH  13  14
ENDBRANCH   1  13
TORSDOF 8
ENDMDL
MODEL 4
REMARK VINA RESULT:      -5.6      0.848      1.394
REMARK  Name = 
REMARK  8 active torsions:
REMARK  status: ('A' for Active; 'I' for Inactive)
REMARK    1  A    between atoms: O_1  and  C_2
REMARK    2  A    between atoms: C_2  and  C_3
REMARK    3  A    between atoms: C_3  and  O_4
REMARK    4  A    between atoms: C_3  and  C_5
REMARK    5  A    between atoms: C_5  and  S_6
REMARK    6  A    between atoms: S_6  and  C_7
REMARK    7  A    between atoms: C_7  and  C_8
REMARK    8  A    between atoms: N_10  and  C_11
REMARK                            x       y       z     vdW  Elec       q    Type
REMARK                         _______ _______ _______ _____ _____    ______ ____
ROOT
ATOM      1  C   UNL     1       4.024   5.271  17.833  0.00  0.00    +0.000 A 
ATOM      2  C   UNL     1       2.962   5.778  18.545  0.00  0.00    +0.000 A 
ATOM      3  N   UNL     1       2.955   7.119  18.268  0.00  0.00    +0.000 N 
ATOM      4  N   UNL     1       3.933   7.398  17.370  0.00  0.00    +0.000 NA
ATOM      5  N   UNL     1       4.600   6.281  17.111  0.00  0.00    +0.000 NA
ENDROOT
BRANCH   3   6
ATOM      6  C   UNL     1       2.093   8.106  18.789  0.00  0.00    +0.000 A 
ATOM      7  C   UNL     1       1.757   8.090  20.156  0.00  0.00    +0.000 A 
ATOM      8  C   UNL     1       0.847   9.029  20.657  0.00  0.00    +0.000 A 
ATOM      9  C   UNL     1       0.283   9.960  19.801  0.00  0.00    +0.000 A 
ATOM     10 CL   UNL     1      -0.878  11.074  20.412  0.00  0.00    +0.000 Cl
ATOM     11  C   UNL     1       0.641  10.004  18.450  0.00  0.00    +0.000 A 
ATOM     12  C   UNL     1       1.558   9.086  17.946  0.00  0.00    +0.000 A 
ENDBRANCH   3   6
BRANCH   1  13
ATOM     13  C   UNL     1       4.497   3.878  17.712  0.00  0.00    +0.000 C 
BRANCH  13  14
ATOM     14  S   UNL     1       4.211   2.964  19.253  0.00  0.00    +0.000 S 
BRANCH  14  15
ATOM     15  C   UNL     1       3.017   1.697  18.632  0.00  0.00    +0.000 C 
BRANCH  15  16
ATOM     16  C   UNL     1       1.579   2.109  18.989  0.00  0.00    +0.000 C 
BRANCH  16  17
ATOM     17  O   UNL     1       1.041   2.989  17.994  0.00  0.00    +0.000 OA
ATOM     18  H   UNL     1       0.326   3.497  18.428  0.00  0.00    +0.000 HD
ENDBRANCH  16  17
BRANCH  16  19
ATOM     19  C   UNL     1       1.509   2.765  20.374  0.00  0.00    +0.000 C 
BRANCH  19  20
ATOM     20  O   UNL     1       0.505   3.771  20.401  0.00  0.00    +0.000 OA
ATOM     21  H   UNL     1      -0.193   3.491  19.785  0.00  0.00    +0.000 HD
ENDBRANCH  19  20
ENDBRANCH  16  19
ENDBRANCH  15  16
ENDBRANCH  14  15
ENDBRANCH  13  14
ENDBRANCH   1  13
TORSDOF 8
ENDMDL
MODEL 5
REMARK VINA RESULT:      -5.5      3.010      3.931
REMARK  Name = 
REMARK  8 active torsions:
REMARK  status: ('A' for Active; 'I' for Inactive)
REMARK    1  A    between atoms: O_1  and  C_2
REMARK    2  A    between atoms: C_2  and  C_3
REMARK    3  A    between atoms: C_3  and  O_4
REMARK    4  A    between atoms: C_3  and  C_5
REMARK    5  A    between atoms: C_5  and  S_6
REMARK    6  A    between atoms: S_6  and  C_7
REMARK    7  A    between atoms: C_7  and  C_8
REMARK    8  A    between atoms: N_10  and  C_11
REMARK                            x       y       z     vdW  Elec       q    Type
REMARK                         _______ _______ _______ _____ _____    ______ ____
ROOT
ATOM      1  C   UNL     1       3.634   4.513  17.637  0.00  0.00    +0.000 A 
ATOM      2  C   UNL     1       3.666   5.884  17.742  0.00  0.00    +0.000 A 
ATOM      3  N   UNL     1       2.559   6.210  18.478  0.00  0.00    +0.000 N 
ATOM      4  N   UNL     1       1.921   5.075  18.859  0.00  0.00    +0.000 NA
ATOM      5  N   UNL     1       2.559   4.036  18.338  0.00  0.00    +0.000 NA
ENDROOT
BRANCH   3   6
ATOM      6  C   UNL     1       2.101   7.497  18.830  0.00  0.00    +0.000 A 
ATOM      7  C   UNL     1       1.723   7.764  20.159  0.00  0.00    +0.000 A 
ATOM      8  C   UNL     1       1.203   9.021  20.493  0.00  0.00    +0.000 A 
ATOM      9  C   UNL     1       1.060   9.985  19.509  0.00  0.00    +0.000 A 
ATOM     10 CL   UNL     1       0.367  11.508  19.914  0.00  0.00    +0.000 Cl
ATOM     11  C   UNL     1       1.468   9.737  18.195  0.00  0.00    +0.000 A 
ATOM     12  C   UNL     1       2.002   8.497  17.857  0.00  0.00    +0.000 A 
ENDBRANCH   3   6
BRANCH   1  13
ATOM     13  C   UNL     1       4.591   3.596  16.988  0.00  0.00    +0.000 C 
BRANCH  13  14
ATOM     14  S   UNL     1       5.575   4.469  15.738  0.00  0.00    +0.000 S 
BRANCH  14  15
ATOM     15  C   UNL     1       7.150   4.671  16.684  0.00  0.00    +0.000 C 
BRANCH  15  16
ATOM     16  C   UNL     1       7.121   5.986  17.481  0.00  0.00    +0.000 C 
BRANCH  16  17
ATOM     17  O   UNL     1       7.758   7.038  16.746  0.00  0.00    +0.000 OA
ATOM     18  H   UNL     1       7.130   7.789  16.733  0.00  0.00    +0.000 HD
ENDBRANCH  16  17
BRANCH  16  19
ATOM     19  C   UNL     1       7.779   5.824  18.857  0.00  0.00    +0.000 C 
BRANCH  19  20
ATOM     20  O   UNL     1       6.813   5.454  19.833  0.00  0.00    +0.000 OA
ATOM     21  H   UNL     1       7.163   5.730  20.697  0.00  0.00    +0.000 HD
ENDBRANCH  19  20
ENDBRANCH  16  19
ENDBRANCH  15  16
ENDBRANCH  14  15
ENDBRANCH  13  14
ENDBRANCH   1  13
TORSDOF 8
ENDMDL
MODEL 6
REMARK VINA RESULT:      -5.5      2.070      2.927
REMARK  Name = 
REMARK  8 active torsions:
REMARK  status: ('A' for Active; 'I' for Inactive)
REMARK    1  A    between atoms: O_1  and  C_2
REMARK    2  A    between atoms: C_2  and  C_3
REMARK    3  A    between atoms: C_3  and  O_4
REMARK    4  A    between atoms: C_3  and  C_5
REMARK    5  A    between atoms: C_5  and  S_6
REMARK    6  A    between atoms: S_6  and  C_7
REMARK    7  A    between atoms: C_7  and  C_8
REMARK    8  A    between atoms: N_10  and  C_11
REMARK                            x       y       z     vdW  Elec       q    Type
REMARK                         _______ _______ _______ _____ _____    ______ ____
ROOT
ATOM      1  C   UNL     1       2.943   6.950  18.366  0.00  0.00    +0.000 A 
ATOM      2  C   UNL     1       2.234   7.170  19.524  0.00  0.00    +0.000 A 
ATOM      3  N   UNL     1       1.745   8.443  19.405  0.00  0.00    +0.000 N 
ATOM      4  N   UNL     1       2.089   8.946  18.193  0.00  0.00    +0.000 NA
ATOM      5  N   UNL     1       2.833   8.049  17.559  0.00  0.00    +0.000 NA
ENDROOT
BRANCH   3   6
ATOM      6  C   UNL     1       0.990   9.173  20.346  0.00  0.00    +0.000 A 
ATOM      7  C   UNL     1       1.040   8.818  21.708  0.00  0.00    +0.000 A 
ATOM      8  C   UNL     1       0.237   9.499  22.631  0.00  0.00    +0.000 A 
ATOM      9  C   UNL     1      -0.603  10.509  22.194  0.00  0.00    +0.000 A 
ATOM     10 CL   UNL     1      -1.629  11.302  23.325  0.00  0.00    +0.000 Cl
ATOM     11  C   UNL     1      -0.629  10.890  20.849  0.00  0.00    +0.000 A 
ATOM     12  C   UNL     1       0.178  10.232  19.926  0.00  0.00    +0.000 A 
ENDBRANCH   3   6
BRANCH   1  13
ATOM     13  C   UNL     1       3.659   5.740  17.918  0.00  0.00    +0.000 C 
BRANCH  13  14
ATOM     14  S   UNL     1       4.572   4.983  19.291  0.00  0.00    +0.000 S 
BRANCH  14  15
ATOM     15  C   UNL     1       3.307   3.757  19.851  0.00  0.00    +0.000 C 
BRANCH  15  16
ATOM     16  C   UNL     1       3.793   2.328  19.558  0.00  0.00    +0.000 C 
BRANCH  16  17
ATOM     17  O   UNL     1       5.193   2.200  19.834  0.00  0.00    +0.000 OA
ATOM     18  H   UNL     1       5.268   1.783  20.715  0.00  0.00    +0.000 HD
ENDBRANCH  16  17
BRANCH  16  19
ATOM     19  C   UNL     1       3.495   1.918  18.110  0.00  0.00    +0.000 C 
BRANCH  19  20
ATOM     20  O   UNL     1       2.122   1.586  17.957  0.00  0.00    +0.000 OA
ATOM     21  H   UNL     1       1.816   2.012  17.138  0.00  0.00    +0.000 HD
ENDBRANCH  19  20
ENDBRANCH  16  19
ENDBRANCH  15  16
ENDBRANCH  14  15
ENDBRANCH  13  14
ENDBRANCH   1  13
TORSDOF 8
ENDMDL
MODEL 7
REMARK VINA RESULT:      -5.4      1.647      1.901
REMARK  Name = 
REMARK  8 active torsions:
REMARK  status: ('A' for Active; 'I' for Inactive)
REMARK    1  A    between atoms: O_1  and  C_2
REMARK    2  A    between atoms: C_2  and  C_3
REMARK    3  A    between atoms: C_3  and  O_4
REMARK    4  A    between atoms: C_3  and  C_5
REMARK    5  A    between atoms: C_5  and  S_6
REMARK    6  A    between atoms: S_6  and  C_7
REMARK    7  A    between atoms: C_7  and  C_8
REMARK    8  A    between atoms: N_10  and  C_11
REMARK                            x       y       z     vdW  Elec       q    Type
REMARK                         _______ _______ _______ _____ _____    ______ ____
ROOT
ATOM      1  C   UNL     1       3.295   6.395  18.342  0.00  0.00    +0.000 A 
ATOM      2  C   UNL     1       2.480   6.624  19.427  0.00  0.00    +0.000 A 
ATOM      3  N   UNL     1       2.070   7.924  19.295  0.00  0.00    +0.000 N 
ATOM      4  N   UNL     1       2.563   8.437  18.141  0.00  0.00    +0.000 NA
ATOM      5  N   UNL     1       3.324   7.518  17.561  0.00  0.00    +0.000 NA
ENDROOT
BRANCH   3   6
ATOM      6  C   UNL     1       1.257   8.669  20.175  0.00  0.00    +0.000 A 
ATOM      7  C   UNL     1       0.511   9.757  19.683  0.00  0.00    +0.000 A 
ATOM      8  C   UNL     1      -0.241  10.539  20.569  0.00  0.00    +0.000 A 
ATOM      9  C   UNL     1      -0.237  10.237  21.920  0.00  0.00    +0.000 A 
ATOM     10 CL   UNL     1      -1.117  11.237  23.010  0.00  0.00    +0.000 Cl
ATOM     11  C   UNL     1       0.473   9.136  22.408  0.00  0.00    +0.000 A 
ATOM     12  C   UNL     1       1.209   8.343  21.534  0.00  0.00    +0.000 A 
ENDBRANCH   3   6
BRANCH   1  13
ATOM     13  C   UNL     1       3.992   5.161  17.934  0.00  0.00    +0.000 C 
BRANCH  13  14
ATOM     14  S   UNL     1       2.810   3.814  17.652  0.00  0.00    +0.000 S 
BRANCH  14  15
ATOM     15  C   UNL     1       3.176   2.778  19.139  0.00  0.00    +0.000 C 
BRANCH  15  16
ATOM     16  C   UNL     1       1.875   2.180  19.698  0.00  0.00    +0.000 C 
BRANCH  16  17
ATOM     17  O   UNL     1       0.939   1.924  18.644  0.00  0.00    +0.000 OA
ATOM     18  H   UNL     1       0.068   2.234  18.963  0.00  0.00    +0.000 HD
ENDBRANCH  16  17
BRANCH  16  19
ATOM     19  C   UNL     1       1.246   3.093  20.759  0.00  0.00    +0.000 C 
BRANCH  19  20
ATOM     20  O   UNL     1       1.519   2.603  22.065  0.00  0.00    +0.000 OA
ATOM     21  H   UNL     1       2.138   1.861  21.966  0.00  0.00    +0.000 HD
ENDBRANCH  19  20
ENDBRANCH  16  19
ENDBRANCH  15  16
ENDBRANCH  14  15
ENDBRANCH  13  14
ENDBRANCH   1  13
TORSDOF 8
ENDMDL
MODEL 8
REMARK VINA RESULT:      -5.4      2.811      3.713
REMARK  Name = 
REMARK  8 active torsions:
REMARK  status: ('A' for Active; 'I' for Inactive)
REMARK    1  A    between atoms: O_1  and  C_2
REMARK    2  A    between atoms: C_2  and  C_3
REMARK    3  A    between atoms: C_3  and  O_4
REMARK    4  A    between atoms: C_3  and  C_5
REMARK    5  A    between atoms: C_5  and  S_6
REMARK    6  A    between atoms: S_6  and  C_7
REMARK    7  A    between atoms: C_7  and  C_8
REMARK    8  A    between atoms: N_10  and  C_11
REMARK                            x       y       z     vdW  Elec       q    Type
REMARK                         _______ _______ _______ _____ _____    ______ ____
ROOT
ATOM      1  C   UNL     1       3.123   6.429  18.778  0.00  0.00    +0.000 A 
ATOM      2  C   UNL     1       2.381   6.780  19.882  0.00  0.00    +0.000 A 
ATOM      3  N   UNL     1       1.918   8.040  19.613  0.00  0.00    +0.000 N 
ATOM      4  N   UNL     1       2.310   8.407  18.367  0.00  0.00    +0.000 NA
ATOM      5  N   UNL     1       3.058   7.439  17.856  0.00  0.00    +0.000 NA
ENDROOT
BRANCH   3   6
ATOM      6  C   UNL     1       1.146   8.875  20.447  0.00  0.00    +0.000 A 
ATOM      7  C   UNL     1       0.994   8.554  21.809  0.00  0.00    +0.000 A 
ATOM      8  C   UNL     1       0.171   9.345  22.621  0.00  0.00    +0.000 A 
ATOM      9  C   UNL     1      -0.490  10.431  22.071  0.00  0.00    +0.000 A 
ATOM     10 CL   UNL     1      -1.546  11.364  23.060  0.00  0.00    +0.000 Cl
ATOM     11  C   UNL     1      -0.315  10.775  20.728  0.00  0.00    +0.000 A 
ATOM     12  C   UNL     1       0.515  10.006  19.918  0.00  0.00    +0.000 A 
ENDBRANCH   3   6
BRANCH   1  13
ATOM     13  C   UNL     1       3.832   5.169  18.482  0.00  0.00    +0.000 C 
BRANCH  13  14
ATOM     14  S   UNL     1       5.514   5.200  19.161  0.00  0.00    +0.000 S 
BRANCH  14  15
ATOM     15  C   UNL     1       6.473   5.009  17.593  0.00  0.00    +0.000 C 
BRANCH  15  16
ATOM     16  C   UNL     1       5.543   4.540  16.460  0.00  0.00    +0.000 C 
BRANCH  16  17
ATOM     17  O   UNL     1       5.841   3.191  16.084  0.00  0.00    +0.000 OA
ATOM     18  H   UNL     1       5.002   2.795  15.775  0.00  0.00    +0.000 HD
ENDBRANCH  16  17
BRANCH  16  19
ATOM     19  C   UNL     1       5.634   5.466  15.240  0.00  0.00    +0.000 C 
BRANCH  19  20
ATOM     20  O   UNL     1       5.211   6.781  15.578  0.00  0.00    +0.000 OA
ATOM     21  H   UNL     1       4.239   6.772  15.590  0.00  0.00    +0.000 HD
ENDBRANCH  19  20
ENDBRANCH  16  19
ENDBRANCH  15  16
ENDBRANCH  14  15
ENDBRANCH  13  14
ENDBRANCH   1  13
TORSDOF 8
ENDMDL
MODEL 9
REMARK VINA RESULT:      -5.3      3.338      4.065
REMARK  Name = 
REMARK  8 active torsions:
REMARK  status: ('A' for Active; 'I' for Inactive)
REMARK    1  A    between atoms: O_1  and  C_2
REMARK    2  A    between atoms: C_2  and  C_3
REMARK    3  A    between atoms: C_3  and  O_4
REMARK    4  A    between atoms: C_3  and  C_5
REMARK    5  A    between atoms: C_5  and  S_6
REMARK    6  A    between atoms: S_6  and  C_7
REMARK    7  A    between atoms: C_7  and  C_8
REMARK    8  A    between atoms: N_10  and  C_11
REMARK                            x       y       z     vdW  Elec       q    Type
REMARK                         _______ _______ _______ _____ _____    ______ ____
ROOT
ATOM      1  C   UNL     1       3.025   6.961  18.335  0.00  0.00    +0.000 A 
ATOM      2  C   UNL     1       2.264   7.154  19.464  0.00  0.00    +0.000 A 
ATOM      3  N   UNL     1       1.758   8.420  19.339  0.00  0.00    +0.000 N 
ATOM      4  N   UNL     1       2.144   8.944  18.149  0.00  0.00    +0.000 NA
ATOM      5  N   UNL     1       2.930   8.068  17.537  0.00  0.00    +0.000 NA
ENDROOT
BRANCH   3   6
ATOM      6  C   UNL     1       0.951   9.125  20.256  0.00  0.00    +0.000 A 
ATOM      7  C   UNL     1       0.414  10.377  19.896  0.00  0.00    +0.000 A 
ATOM      8  C   UNL     1      -0.329  11.107  20.831  0.00  0.00    +0.000 A 
ATOM      9  C   UNL     1      -0.523  10.593  22.103  0.00  0.00    +0.000 A 
ATOM     10 CL   UNL     1      -1.388  11.523  23.265  0.00  0.00    +0.000 Cl
ATOM     11  C   UNL     1      -0.024   9.336  22.454  0.00  0.00    +0.000 A 
ATOM     12  C   UNL     1       0.702   8.594  21.526  0.00  0.00    +0.000 A 
ENDBRANCH   3   6
BRANCH   1  13
ATOM     13  C   UNL     1       3.780   5.769  17.903  0.00  0.00    +0.000 C 
BRANCH  13  14
ATOM     14  S   UNL     1       4.997   5.285  19.159  0.00  0.00    +0.000 S 
BRANCH  14  15
ATOM     15  C   UNL     1       6.550   5.669  18.234  0.00  0.00    +0.000 C 
BRANCH  15  16
ATOM     16  C   UNL     1       6.988   4.448  17.408  0.00  0.00    +0.000 C 
BRANCH  16  17
ATOM     17  O   UNL     1       8.322   4.055  17.752  0.00  0.00    +0.000 OA
ATOM     18  H   UNL     1       8.802   3.927  16.909  0.00  0.00    +0.000 HD
ENDBRANCH  16  17
BRANCH  16  19
ATOM     19  C   UNL     1       6.885   4.722  15.902  0.00  0.00    +0.000 C 
BRANCH  19  20
ATOM     20  O   UNL     1       6.779   6.118  15.654  0.00  0.00    +0.000 OA
ATOM     21  H   UNL     1       7.617   6.521  15.937  0.00  0.00    +0.000 HD
ENDBRANCH  19  20
ENDBRANCH  16  19
ENDBRANCH  15  16
ENDBRANCH  14  15
ENDBRANCH  13  14
ENDBRANCH   1  13
TORSDOF 8
ENDMDL
