MODEL 1
REMARK VINA RESULT:      -7.7      0.000      0.000
REMARK  Name = 
REMARK  5 active torsions:
REMARK  status: ('A' for Active; 'I' for Inactive)
REMARK    1  A    between atoms: C_2  and  C_20
REMARK    2  A    between atoms: N_3  and  C_4
REMARK    3  A    between atoms: N_8  and  C_9
REMARK    4  A    between atoms: C_12  and  O_13
REMARK    5  A    between atoms: O_13  and  C_14
REMARK                            x       y       z     vdW  Elec       q    Type
REMARK                         _______ _______ _______ _____ _____    ______ ____
ROOT
ATOM      1  C   UNL     1       3.935   2.824  19.678  0.00  0.00    +0.000 C 
ATOM      2  C   UNL     1       2.816   1.789  19.498  0.00  0.00    +0.000 C 
ATOM      3  C   UNL     1       1.558   2.368  18.838  0.00  0.00    +0.000 C 
ATOM      4  C   UNL     1       1.123   3.739  19.374  0.00  0.00    +0.000 C 
ATOM      5  N   UNL     1       2.287   4.615  19.505  0.00  0.00    +0.000 N 
ATOM      6  C   UNL     1       3.353   4.073  20.358  0.00  0.00    +0.000 C 
ENDROOT
BRANCH   5   7
ATOM      7  C   UNL     1       2.246   5.970  19.233  0.00  0.00    +0.000 A 
ATOM      8  C   UNL     1       1.789   6.919  20.157  0.00  0.00    +0.000 A 
ATOM      9  C   UNL     1       1.702   8.279  19.832  0.00  0.00    +0.000 A 
ATOM     10  C   UNL     1       2.080   8.735  18.572  0.00  0.00    +0.000 A 
ATOM     11  C   UNL     1       2.522   7.816  17.629  0.00  0.00    +0.000 A 
ATOM     12  C   UNL     1       2.607   6.458  17.965  0.00  0.00    +0.000 A 
BRANCH  10  13
ATOM     13  O   UNL     1       1.944  10.078  18.368  0.00  0.00    +0.000 OA
BRANCH  13  14
ATOM     14  C   UNL     1       0.686  10.624  18.729  0.00  0.00    +0.000 C 
ATOM     15  F   UNL     1       0.709  11.964  18.518  0.00  0.00    +0.000 F 
ATOM     16  F   UNL     1      -0.236  10.112  17.873  0.00  0.00    +0.000 F 
ENDBRANCH  13  14
ENDBRANCH  10  13
ENDBRANCH   5   7
BRANCH   1  19
ATOM     17  O   UNL     1       6.171   4.540  19.304  0.00  0.00    +0.000 OA
ATOM     18  C   UNL     1       5.639   4.035  18.322  0.00  0.00    +0.000 C 
ATOM     19  N   UNL     1       4.571   3.169  18.406  0.00  0.00    +0.000 N 
ATOM     20  H   UNL     1       4.226   2.728  17.554  0.00  0.00    +0.000 HD
BRANCH  18  21
ATOM     21  C   UNL     1       6.113   4.373  16.948  0.00  0.00    +0.000 A 
ATOM     22  C   UNL     1       7.014   5.420  16.786  0.00  0.00    +0.000 A 
ATOM     23  N   UNL     1       7.454   5.824  15.566  0.00  0.00    +0.000 NA
ATOM     24  C   UNL     1       6.945   5.140  14.518  0.00  0.00    +0.000 A 
ATOM     25  C   UNL     1       6.043   4.095  14.677  0.00  0.00    +0.000 A 
ATOM     26  N   UNL     1       5.600   3.679  15.890  0.00  0.00    +0.000 NA
ENDBRANCH  18  21
ENDBRANCH   1  19
TORSDOF 5
ENDMDL
MODEL 2
REMARK VINA RESULT:      -7.6      0.426      1.176
REMARK  Name = 
REMARK  5 active torsions:
REMARK  status: ('A' for Active; 'I' for Inactive)
REMARK    1  A    between atoms: C_2  and  C_20
REMARK    2  A    between atoms: N_3  and  C_4
REMARK    3  A    between atoms: N_8  and  C_9
REMARK    4  A    between atoms: C_12  and  O_13
REMARK    5  A    between atoms: O_13  and  C_14
REMARK                            x       y       z     vdW  Elec       q    Type
REMARK                         _______ _______ _______ _____ _____    ______ ____
ROOT
ATOM      1  C   UNL     1       3.909   2.815  19.799  0.00  0.00    +0.000 C 
ATOM      2  C   UNL     1       2.828   1.734  19.665  0.00  0.00    +0.000 C 
ATOM      3  C   UNL     1       1.527   2.254  19.040  0.00  0.00    +0.000 C 
ATOM      4  C   UNL     1       1.054   3.613  19.577  0.00  0.00    +0.000 C 
ATOM      5  N   UNL     1       2.186   4.537  19.662  0.00  0.00    +0.000 N 
ATOM      6  C   UNL     1       3.299   4.047  20.485  0.00  0.00    +0.000 C 
ENDROOT
BRANCH   5   7
ATOM      7  C   UNL     1       2.081   5.886  19.377  0.00  0.00    +0.000 A 
ATOM      8  C   UNL     1       2.424   6.430  18.134  0.00  0.00    +0.000 A 
ATOM      9  C   UNL     1       2.366   7.810  17.893  0.00  0.00    +0.000 A 
ATOM     10  C   UNL     1       1.950   8.689  18.890  0.00  0.00    +0.000 A 
ATOM     11  C   UNL     1       1.619   8.181  20.139  0.00  0.00    +0.000 A 
ATOM     12  C   UNL     1       1.680   6.799  20.369  0.00  0.00    +0.000 A 
BRANCH  10  13
ATOM     13  O   UNL     1       1.941  10.009  18.542  0.00  0.00    +0.000 OA
BRANCH  13  14
ATOM     14  C   UNL     1       0.657  10.594  18.410  0.00  0.00    +0.000 C 
ATOM     15  F   UNL     1      -0.184   9.693  17.843  0.00  0.00    +0.000 F 
ATOM     16  F   UNL     1       0.189  10.826  19.664  0.00  0.00    +0.000 F 
ENDBRANCH  13  14
ENDBRANCH  10  13
ENDBRANCH   5   7
BRANCH   1  19
ATOM     17  O   UNL     1       6.154   4.500  19.346  0.00  0.00    +0.000 OA
ATOM     18  C   UNL     1       5.567   4.021  18.382  0.00  0.00    +0.000 C 
ATOM     19  N   UNL     1       4.489   3.172  18.503  0.00  0.00    +0.000 N 
ATOM     20  H   UNL     1       4.097   2.751  17.662  0.00  0.00    +0.000 HD
BRANCH  18  21
ATOM     21  C   UNL     1       5.981   4.374  16.992  0.00  0.00    +0.000 A 
ATOM     22  C   UNL     1       7.080   5.207  16.809  0.00  0.00    +0.000 A 
ATOM     23  N   UNL     1       7.490   5.617  15.582  0.00  0.00    +0.000 NA
ATOM     24  C   UNL     1       6.746   5.165  14.548  0.00  0.00    +0.000 A 
ATOM     25  C   UNL     1       5.646   4.335  14.729  0.00  0.00    +0.000 A 
ATOM     26  N   UNL     1       5.230   3.914  15.950  0.00  0.00    +0.000 NA
ENDBRANCH  18  21
ENDBRANCH   1  19
TORSDOF 5
ENDMDL
MODEL 3
REMARK VINA RESULT:      -7.4      0.762      1.148
REMARK  Name = 
REMARK  5 active torsions:
REMARK  status: ('A' for Active; 'I' for Inactive)
REMARK    1  A    between atoms: C_2  and  C_20
REMARK    2  A    between atoms: N_3  and  C_4
REMARK    3  A    between atoms: N_8  and  C_9
REMARK    4  A    between atoms: C_12  and  O_13
REMARK    5  A    between atoms: O_13  and  C_14
REMARK                            x       y       z     vdW  Elec       q    Type
REMARK                         _______ _______ _______ _____ _____    ______ ____
ROOT
ATOM      1  C   UNL     1       3.903   2.744  19.689  0.00  0.00    +0.000 C 
ATOM      2  C   UNL     1       2.789   1.702  19.526  0.00  0.00    +0.000 C 
ATOM      3  C   UNL     1       1.494   2.286  18.946  0.00  0.00    +0.000 C 
ATOM      4  C   UNL     1       1.070   3.632  19.550  0.00  0.00    +0.000 C 
ATOM      5  N   UNL     1       2.228   4.519  19.657  0.00  0.00    +0.000 N 
ATOM      6  C   UNL     1       3.339   3.962  20.439  0.00  0.00    +0.000 C 
ENDROOT
BRANCH   5   7
ATOM      7  C   UNL     1       2.158   5.882  19.434  0.00  0.00    +0.000 A 
ATOM      8  C   UNL     1       1.729   6.791  20.409  0.00  0.00    +0.000 A 
ATOM      9  C   UNL     1       1.611   8.161  20.136  0.00  0.00    +0.000 A 
ATOM     10  C   UNL     1       1.929   8.665  18.878  0.00  0.00    +0.000 A 
ATOM     11  C   UNL     1       2.342   7.786  17.886  0.00  0.00    +0.000 A 
ATOM     12  C   UNL     1       2.458   6.418  18.170  0.00  0.00    +0.000 A 
BRANCH  10  13
ATOM     13  O   UNL     1       1.767  10.012  18.728  0.00  0.00    +0.000 OA
BRANCH  13  14
ATOM     14  C   UNL     1       0.449  10.436  18.425  0.00  0.00    +0.000 C 
ATOM     15  F   UNL     1      -0.138   9.514  17.622  0.00  0.00    +0.000 F 
ATOM     16  F   UNL     1      -0.251  10.440  19.588  0.00  0.00    +0.000 F 
ENDBRANCH  13  14
ENDBRANCH  10  13
ENDBRANCH   5   7
BRANCH   1  19
ATOM     17  O   UNL     1       6.188   4.384  19.273  0.00  0.00    +0.000 OA
ATOM     18  C   UNL     1       5.573   3.965  18.299  0.00  0.00    +0.000 C 
ATOM     19  N   UNL     1       4.473   3.142  18.400  0.00  0.00    +0.000 N 
ATOM     20  H   UNL     1       4.056   2.770  17.548  0.00  0.00    +0.000 HD
BRANCH  18  21
ATOM     21  C   UNL     1       5.975   4.368  16.919  0.00  0.00    +0.000 A 
ATOM     22  C   UNL     1       5.034   4.301  15.898  0.00  0.00    +0.000 A 
ATOM     23  N   UNL     1       5.333   4.599  14.607  0.00  0.00    +0.000 NA
ATOM     24  C   UNL     1       6.617   4.959  14.385  0.00  0.00    +0.000 A 
ATOM     25  C   UNL     1       7.560   5.024  15.403  0.00  0.00    +0.000 A 
ATOM     26  N   UNL     1       7.272   4.733  16.697  0.00  0.00    +0.000 NA
ENDBRANCH  18  21
ENDBRANCH   1  19
TORSDOF 5
ENDMDL
MODEL 4
REMARK VINA RESULT:      -7.3      0.599      1.345
REMARK  Name = 
REMARK  5 active torsions:
REMARK  status: ('A' for Active; 'I' for Inactive)
REMARK    1  A    between atoms: C_2  and  C_20
REMARK    2  A    between atoms: N_3  and  C_4
REMARK    3  A    between atoms: N_8  and  C_9
REMARK    4  A    between atoms: C_12  and  O_13
REMARK    5  A    between atoms: O_13  and  C_14
REMARK                            x       y       z     vdW  Elec       q    Type
REMARK                         _______ _______ _______ _____ _____    ______ ____
ROOT
ATOM      1  C   UNL     1       3.971   2.872  19.709  0.00  0.00    +0.000 C 
ATOM      2  C   UNL     1       2.894   1.784  19.610  0.00  0.00    +0.000 C 
ATOM      3  C   UNL     1       1.571   2.294  19.023  0.00  0.00    +0.000 C 
ATOM      4  C   UNL     1       1.106   3.652  19.569  0.00  0.00    +0.000 C 
ATOM      5  N   UNL     1       2.233   4.583  19.618  0.00  0.00    +0.000 N 
ATOM      6  C   UNL     1       3.373   4.103  20.409  0.00  0.00    +0.000 C 
ENDROOT
BRANCH   5   7
ATOM      7  C   UNL     1       2.112   5.930  19.333  0.00  0.00    +0.000 A 
ATOM      8  C   UNL     1       2.436   6.476  18.085  0.00  0.00    +0.000 A 
ATOM      9  C   UNL     1       2.361   7.855  17.844  0.00  0.00    +0.000 A 
ATOM     10  C   UNL     1       1.946   8.731  18.843  0.00  0.00    +0.000 A 
ATOM     11  C   UNL     1       1.633   8.221  20.097  0.00  0.00    +0.000 A 
ATOM     12  C   UNL     1       1.711   6.840  20.327  0.00  0.00    +0.000 A 
BRANCH  10  13
ATOM     13  O   UNL     1       1.920  10.050  18.494  0.00  0.00    +0.000 OA
BRANCH  13  14
ATOM     14  C   UNL     1       0.698  10.722  18.749  0.00  0.00    +0.000 C 
ATOM     15  F   UNL     1       0.820  12.020  18.372  0.00  0.00    +0.000 F 
ATOM     16  F   UNL     1      -0.243  10.170  17.941  0.00  0.00    +0.000 F 
ENDBRANCH  13  14
ENDBRANCH  10  13
ENDBRANCH   5   7
BRANCH   1  19
ATOM     17  O   UNL     1       6.315   4.395  19.189  0.00  0.00    +0.000 OA
ATOM     18  C   UNL     1       5.644   3.997  18.244  0.00  0.00    +0.000 C 
ATOM     19  N   UNL     1       4.511   3.229  18.395  0.00  0.00    +0.000 N 
ATOM     20  H   UNL     1       4.044   2.869  17.564  0.00  0.00    +0.000 HD
BRANCH  18  21
ATOM     21  C   UNL     1       6.013   4.366  16.845  0.00  0.00    +0.000 A 
ATOM     22  C   UNL     1       5.060   4.230  15.840  0.00  0.00    +0.000 A 
ATOM     23  N   UNL     1       5.331   4.494  14.536  0.00  0.00    +0.000 NA
ATOM     24  C   UNL     1       6.598   4.890  14.282  0.00  0.00    +0.000 A 
ATOM     25  C   UNL     1       7.552   5.024  15.284  0.00  0.00    +0.000 A 
ATOM     26  N   UNL     1       7.292   4.768  16.591  0.00  0.00    +0.000 NA
ENDBRANCH  18  21
ENDBRANCH   1  19
TORSDOF 5
ENDMDL
MODEL 5
REMARK VINA RESULT:      -7.2      4.380      7.131
REMARK  Name = 
REMARK  5 active torsions:
REMARK  status: ('A' for Active; 'I' for Inactive)
REMARK    1  A    between atoms: C_2  and  C_20
REMARK    2  A    between atoms: N_3  and  C_4
REMARK    3  A    between atoms: N_8  and  C_9
REMARK    4  A    between atoms: C_12  and  O_13
REMARK    5  A    between atoms: O_13  and  C_14
REMARK                            x       y       z     vdW  Elec       q    Type
REMARK                         _______ _______ _______ _____ _____    ______ ____
ROOT
ATOM      1  C   UNL     1       6.858   4.742  18.558  0.00  0.00    +0.000 C 
ATOM      2  C   UNL     1       7.253   6.185  18.901  0.00  0.00    +0.000 C 
ATOM      3  C   UNL     1       6.990   7.172  17.756  0.00  0.00    +0.000 C 
ATOM      4  C   UNL     1       7.414   6.673  16.367  0.00  0.00    +0.000 C 
ATOM      5  N   UNL     1       6.984   5.286  16.182  0.00  0.00    +0.000 N 
ATOM      6  C   UNL     1       7.486   4.362  17.207  0.00  0.00    +0.000 C 
ENDROOT
BRANCH   5   7
ATOM      7  C   UNL     1       6.526   4.793  14.975  0.00  0.00    +0.000 A 
ATOM      8  C   UNL     1       5.266   4.202  14.823  0.00  0.00    +0.000 A 
ATOM      9  C   UNL     1       4.852   3.655  13.600  0.00  0.00    +0.000 A 
ATOM     10  C   UNL     1       5.686   3.693  12.486  0.00  0.00    +0.000 A 
ATOM     11  C   UNL     1       6.949   4.258  12.610  0.00  0.00    +0.000 A 
ATOM     12  C   UNL     1       7.352   4.802  13.836  0.00  0.00    +0.000 A 
BRANCH  10  13
ATOM     13  O   UNL     1       5.179   3.124  11.354  0.00  0.00    +0.000 OA
BRANCH  13  14
ATOM     14  C   UNL     1       3.798   3.348  11.126  0.00  0.00    +0.000 C 
ATOM     15  F   UNL     1       3.655   4.386  10.263  0.00  0.00    +0.000 F 
ATOM     16  F   UNL     1       3.309   2.249  10.496  0.00  0.00    +0.000 F 
ENDBRANCH  13  14
ENDBRANCH  10  13
ENDBRANCH   5   7
BRANCH   1  19
ATOM     17  O   UNL     1       5.356   2.769  19.948  0.00  0.00    +0.000 OA
ATOM     18  C   UNL     1       4.767   3.558  19.218  0.00  0.00    +0.000 C 
ATOM     19  N   UNL     1       5.405   4.565  18.528  0.00  0.00    +0.000 N 
ATOM     20  H   UNL     1       4.845   5.231  17.998  0.00  0.00    +0.000 HD
BRANCH  18  21
ATOM     21  C   UNL     1       3.294   3.439  19.007  0.00  0.00    +0.000 A 
ATOM     22  C   UNL     1       2.742   3.931  17.829  0.00  0.00    +0.000 A 
ATOM     23  N   UNL     1       1.407   3.909  17.583  0.00  0.00    +0.000 NA
ATOM     24  C   UNL     1       0.650   3.382  18.571  0.00  0.00    +0.000 A 
ATOM     25  C   UNL     1       1.200   2.892  19.750  0.00  0.00    +0.000 A 
ATOM     26  N   UNL     1       2.532   2.904  20.005  0.00  0.00    +0.000 NA
ENDBRANCH  18  21
ENDBRANCH   1  19
TORSDOF 5
ENDMDL
MODEL 6
REMARK VINA RESULT:      -7.0      0.939      1.103
REMARK  Name = 
REMARK  5 active torsions:
REMARK  status: ('A' for Active; 'I' for Inactive)
REMARK    1  A    between atoms: C_2  and  C_20
REMARK    2  A    between atoms: N_3  and  C_4
REMARK    3  A    between atoms: N_8  and  C_9
REMARK    4  A    between atoms: C_12  and  O_13
REMARK    5  A    between atoms: O_13  and  C_14
REMARK                            x       y       z     vdW  Elec       q    Type
REMARK                         _______ _______ _______ _____ _____    ______ ____
ROOT
ATOM      1  C   UNL     1       3.686   3.227  19.978  0.00  0.00    +0.000 C 
ATOM      2  C   UNL     1       2.557   2.191  20.036  0.00  0.00    +0.000 C 
ATOM      3  C   UNL     1       1.197   2.753  19.601  0.00  0.00    +0.000 C 
ATOM      4  C   UNL     1       0.864   4.140  20.169  0.00  0.00    +0.000 C 
ATOM      5  N   UNL     1       2.029   5.017  20.059  0.00  0.00    +0.000 N 
ATOM      6  C   UNL     1       3.235   4.497  20.717  0.00  0.00    +0.000 C 
ENDROOT
BRANCH   5   7
ATOM      7  C   UNL     1       1.935   6.364  19.760  0.00  0.00    +0.000 A 
ATOM      8  C   UNL     1       1.402   7.305  20.650  0.00  0.00    +0.000 A 
ATOM      9  C   UNL     1       1.263   8.654  20.296  0.00  0.00    +0.000 A 
ATOM     10  C   UNL     1       1.664   9.106  19.042  0.00  0.00    +0.000 A 
ATOM     11  C   UNL     1       2.181   8.193  18.132  0.00  0.00    +0.000 A 
ATOM     12  C   UNL     1       2.317   6.847  18.496  0.00  0.00    +0.000 A 
BRANCH  10  13
ATOM     13  O   UNL     1       1.473  10.438  18.808  0.00  0.00    +0.000 OA
BRANCH  13  14
ATOM     14  C   UNL     1       0.124  10.873  18.839  0.00  0.00    +0.000 C 
ATOM     15  F   UNL     1       0.070  12.173  18.456  0.00  0.00    +0.000 F 
ATOM     16  F   UNL     1      -0.551  10.162  17.899  0.00  0.00    +0.000 F 
ENDBRANCH  13  14
ENDBRANCH  10  13
ENDBRANCH   5   7
BRANCH   1  19
ATOM     17  O   UNL     1       6.109   4.448  19.129  0.00  0.00    +0.000 OA
ATOM     18  C   UNL     1       5.266   4.155  18.289  0.00  0.00    +0.000 C 
ATOM     19  N   UNL     1       4.076   3.535  18.601  0.00  0.00    +0.000 N 
ATOM     20  H   UNL     1       3.455   3.252  17.844  0.00  0.00    +0.000 HD
BRANCH  18  21
ATOM     21  C   UNL     1       5.479   4.498  16.852  0.00  0.00    +0.000 A 
ATOM     22  C   UNL     1       6.024   3.538  16.005  0.00  0.00    +0.000 A 
ATOM     23  N   UNL     1       6.297   3.787  14.698  0.00  0.00    +0.000 NA
ATOM     24  C   UNL     1       6.009   5.039  14.281  0.00  0.00    +0.000 A 
ATOM     25  C   UNL     1       5.467   6.001  15.126  0.00  0.00    +0.000 A 
ATOM     26  N   UNL     1       5.185   5.763  16.431  0.00  0.00    +0.000 NA
ENDBRANCH  18  21
ENDBRANCH   1  19
TORSDOF 5
ENDMDL
MODEL 7
REMARK VINA RESULT:      -6.9      4.287      7.152
REMARK  Name = 
REMARK  5 active torsions:
REMARK  status: ('A' for Active; 'I' for Inactive)
REMARK    1  A    between atoms: C_2  and  C_20
REMARK    2  A    between atoms: N_3  and  C_4
REMARK    3  A    between atoms: N_8  and  C_9
REMARK    4  A    between atoms: C_12  and  O_13
REMARK    5  A    between atoms: O_13  and  C_14
REMARK                            x       y       z     vdW  Elec       q    Type
REMARK                         _______ _______ _______ _____ _____    ______ ____
ROOT
ATOM      1  C   UNL     1       7.017   5.039  18.688  0.00  0.00    +0.000 C 
ATOM      2  C   UNL     1       7.471   6.488  18.905  0.00  0.00    +0.000 C 
ATOM      3  C   UNL     1       7.252   7.381  17.677  0.00  0.00    +0.000 C 
ATOM      4  C   UNL     1       7.656   6.745  16.339  0.00  0.00    +0.000 C 
ATOM      5  N   UNL     1       7.169   5.367  16.275  0.00  0.00    +0.000 N 
ATOM      6  C   UNL     1       7.630   4.516  17.379  0.00  0.00    +0.000 C 
ENDROOT
BRANCH   5   7
ATOM      7  C   UNL     1       6.693   4.789  15.113  0.00  0.00    +0.000 A 
ATOM      8  C   UNL     1       7.388   4.839  13.898  0.00  0.00    +0.000 A 
ATOM      9  C   UNL     1       6.853   4.297  12.721  0.00  0.00    +0.000 A 
ATOM     10  C   UNL     1       5.607   3.676  12.727  0.00  0.00    +0.000 A 
ATOM     11  C   UNL     1       4.886   3.625  13.914  0.00  0.00    +0.000 A 
ATOM     12  C   UNL     1       5.431   4.169  15.084  0.00  0.00    +0.000 A 
BRANCH  10  13
ATOM     13  O   UNL     1       5.186   3.192  11.522  0.00  0.00    +0.000 OA
BRANCH  13  14
ATOM     14  C   UNL     1       3.804   3.355  11.251  0.00  0.00    +0.000 C 
ATOM     15  F   UNL     1       3.639   4.405  10.408  0.00  0.00    +0.000 F 
ATOM     16  F   UNL     1       3.392   2.249  10.578  0.00  0.00    +0.000 F 
ENDBRANCH  13  14
ENDBRANCH  10  13
ENDBRANCH   5   7
BRANCH   1  19
ATOM     17  O   UNL     1       5.469   2.890  19.723  0.00  0.00    +0.000 OA
ATOM     18  C   UNL     1       4.896   3.823  19.172  0.00  0.00    +0.000 C 
ATOM     19  N   UNL     1       5.558   4.920  18.666  0.00  0.00    +0.000 N 
ATOM     20  H   UNL     1       5.013   5.694  18.288  0.00  0.00    +0.000 HD
BRANCH  18  21
ATOM     21  C   UNL     1       3.416   3.797  18.984  0.00  0.00    +0.000 A 
ATOM     22  C   UNL     1       2.623   3.218  19.970  0.00  0.00    +0.000 A 
ATOM     23  N   UNL     1       1.275   3.107  19.852  0.00  0.00    +0.000 NA
ATOM     24  C   UNL     1       0.758   3.592  18.702  0.00  0.00    +0.000 A 
ATOM     25  C   UNL     1       1.548   4.169  17.714  0.00  0.00    +0.000 A 
ATOM     26  N   UNL     1       2.895   4.290  17.823  0.00  0.00    +0.000 NA
ENDBRANCH  18  21
ENDBRANCH   1  19
TORSDOF 5
ENDMDL
MODEL 8
REMARK VINA RESULT:      -6.7      4.826      7.584
REMARK  Name = 
REMARK  5 active torsions:
REMARK  status: ('A' for Active; 'I' for Inactive)
REMARK    1  A    between atoms: C_2  and  C_20
REMARK    2  A    between atoms: N_3  and  C_4
REMARK    3  A    between atoms: N_8  and  C_9
REMARK    4  A    between atoms: C_12  and  O_13
REMARK    5  A    between atoms: O_13  and  C_14
REMARK                            x       y       z     vdW  Elec       q    Type
REMARK                         _______ _______ _______ _____ _____    ______ ____
ROOT
ATOM      1  C   UNL     1       6.901   4.872  18.584  0.00  0.00    +0.000 C 
ATOM      2  C   UNL     1       7.305   6.324  18.867  0.00  0.00    +0.000 C 
ATOM      3  C   UNL     1       7.091   7.256  17.667  0.00  0.00    +0.000 C 
ATOM      4  C   UNL     1       7.549   6.683  16.318  0.00  0.00    +0.000 C 
ATOM      5  N   UNL     1       7.106   5.295  16.190  0.00  0.00    +0.000 N 
ATOM      6  C   UNL     1       7.563   4.417  17.274  0.00  0.00    +0.000 C 
ENDROOT
BRANCH   5   7
ATOM      7  C   UNL     1       6.678   4.748  14.994  0.00  0.00    +0.000 A 
ATOM      8  C   UNL     1       5.537   3.941  14.892  0.00  0.00    +0.000 A 
ATOM      9  C   UNL     1       5.161   3.349  13.679  0.00  0.00    +0.000 A 
ATOM     10  C   UNL     1       5.911   3.557  12.524  0.00  0.00    +0.000 A 
ATOM     11  C   UNL     1       7.056   4.339  12.597  0.00  0.00    +0.000 A 
ATOM     12  C   UNL     1       7.423   4.926  13.816  0.00  0.00    +0.000 A 
BRANCH  10  13
ATOM     13  O   UNL     1       5.452   2.924  11.405  0.00  0.00    +0.000 OA
BRANCH  13  14
ATOM     14  C   UNL     1       6.217   1.809  10.980  0.00  0.00    +0.000 C 
ATOM     15  F   UNL     1       7.493   1.955  11.418  0.00  0.00    +0.000 F 
ATOM     16  F   UNL     1       5.715   0.714  11.606  0.00  0.00    +0.000 F 
ENDBRANCH  13  14
ENDBRANCH  10  13
ENDBRANCH   5   7
BRANCH   1  19
ATOM     17  O   UNL     1       5.349   2.876  19.885  0.00  0.00    +0.000 OA
ATOM     18  C   UNL     1       4.784   3.692  19.166  0.00  0.00    +0.000 C 
ATOM     19  N   UNL     1       5.447   4.711  18.518  0.00  0.00    +0.000 N 
ATOM     20  H   UNL     1       4.905   5.399  17.997  0.00  0.00    +0.000 HD
BRANCH  18  21
ATOM     21  C   UNL     1       3.315   3.595  18.920  0.00  0.00    +0.000 A 
ATOM     22  C   UNL     1       2.568   2.688  19.664  0.00  0.00    +0.000 A 
ATOM     23  N   UNL     1       1.237   2.502  19.466  0.00  0.00    +0.000 NA
ATOM     24  C   UNL     1       0.692   3.257  18.487  0.00  0.00    +0.000 A 
ATOM     25  C   UNL     1       1.437   4.162  17.741  0.00  0.00    +0.000 A 
ATOM     26  N   UNL     1       2.766   4.361  17.932  0.00  0.00    +0.000 NA
ENDBRANCH  18  21
ENDBRANCH   1  19
TORSDOF 5
ENDMDL
MODEL 9
REMARK VINA RESULT:      -6.6      4.839      7.574
REMARK  Name = 
REMARK  5 active torsions:
REMARK  status: ('A' for Active; 'I' for Inactive)
REMARK    1  A    between atoms: C_2  and  C_20
REMARK    2  A    between atoms: N_3  and  C_4
REMARK    3  A    between atoms: N_8  and  C_9
REMARK    4  A    between atoms: C_12  and  O_13
REMARK    5  A    between atoms: O_13  and  C_14
REMARK                            x       y       z     vdW  Elec       q    Type
REMARK                         _______ _______ _______ _____ _____    ______ ____
ROOT
ATOM      1  C   UNL     1       6.842   4.868  18.630  0.00  0.00    +0.000 C 
ATOM      2  C   UNL     1       7.161   6.343  18.908  0.00  0.00    +0.000 C 
ATOM      3  C   UNL     1       6.940   7.250  17.691  0.00  0.00    +0.000 C 
ATOM      4  C   UNL     1       7.473   6.688  16.365  0.00  0.00    +0.000 C 
ATOM      5  N   UNL     1       7.108   5.277  16.239  0.00  0.00    +0.000 N 
ATOM      6  C   UNL     1       7.572   4.435  17.348  0.00  0.00    +0.000 C 
ENDROOT
BRANCH   5   7
ATOM      7  C   UNL     1       6.750   4.695  15.036  0.00  0.00    +0.000 A 
ATOM      8  C   UNL     1       7.451   4.919  13.845  0.00  0.00    +0.000 A 
ATOM      9  C   UNL     1       7.029   4.365  12.628  0.00  0.00    +0.000 A 
ATOM     10  C   UNL     1       5.897   3.557  12.570  0.00  0.00    +0.000 A 
ATOM     11  C   UNL     1       5.172   3.329  13.732  0.00  0.00    +0.000 A 
ATOM     12  C   UNL     1       5.602   3.888  14.943  0.00  0.00    +0.000 A 
BRANCH  10  13
ATOM     13  O   UNL     1       5.580   3.079  11.330  0.00  0.00    +0.000 OA
BRANCH  13  14
ATOM     14  C   UNL     1       6.231   1.878  10.956  0.00  0.00    +0.000 C 
ATOM     15  F   UNL     1       7.530   1.940  11.343  0.00  0.00    +0.000 F 
ATOM     16  F   UNL     1       5.662   0.871  11.667  0.00  0.00    +0.000 F 
ENDBRANCH  13  14
ENDBRANCH  10  13
ENDBRANCH   5   7
BRANCH   1  19
ATOM     17  O   UNL     1       5.341   2.849  19.954  0.00  0.00    +0.000 OA
ATOM     18  C   UNL     1       4.766   3.606  19.181  0.00  0.00    +0.000 C 
ATOM     19  N   UNL     1       5.402   4.631  18.517  0.00  0.00    +0.000 N 
ATOM     20  H   UNL     1       4.848   5.269  17.947  0.00  0.00    +0.000 HD
BRANCH  18  21
ATOM     21  C   UNL     1       3.314   3.425  18.885  0.00  0.00    +0.000 A 
ATOM     22  C   UNL     1       2.764   4.079  17.787  0.00  0.00    +0.000 A 
ATOM     23  N   UNL     1       1.444   4.009  17.480  0.00  0.00    +0.000 NA
ATOM     24  C   UNL     1       0.697   3.263  18.326  0.00  0.00    +0.000 A 
ATOM     25  C   UNL     1       1.244   2.611  19.425  0.00  0.00    +0.000 A 
ATOM     26  N   UNL     1       2.563   2.670  19.739  0.00  0.00    +0.000 NA
ENDBRANCH  18  21
ENDBRANCH   1  19
TORSDOF 5
ENDMDL
