MODEL 1
REMARK VINA RESULT:      -8.2      0.000      0.000
REMARK  Name = 
REMARK  2 active torsions:
REMARK  status: ('A' for Active; 'I' for Inactive)
REMARK    1  A    between atoms: C_1  and  C_2
REMARK    2  A    between atoms: C_4  and  C_5
REMARK                            x       y       z     vdW  Elec       q    Type
REMARK                         _______ _______ _______ _____ _____    ______ ____
ROOT
ATOM      1  C   UNL     1       5.152   5.009  16.488  0.00  0.00    +0.000 A 
ATOM      2  N   UNL     1       4.984   4.038  17.364  0.00  0.00    +0.000 NA
ATOM      3  C   UNL     1       4.131   4.546  18.322  0.00  0.00    +0.000 A 
ATOM      4  C   UNL     1       3.636   3.956  19.493  0.00  0.00    +0.000 A 
ATOM      5  C   UNL     1       2.754   4.750  20.234  0.00  0.00    +0.000 A 
ATOM      6  N   UNL     1       2.395   6.018  19.900  0.00  0.00    +0.000 NA
ATOM      7  C   UNL     1       2.894   6.586  18.781  0.00  0.00    +0.000 A 
ATOM      8  C   UNL     1       3.757   5.844  17.997  0.00  0.00    +0.000 A 
ATOM      9  N   UNL     1       4.419   6.115  16.831  0.00  0.00    +0.000 N 
ATOM     10  C   UNL     1       2.196   4.224  21.530  0.00  0.00    +0.000 C 
ATOM     11  C   UNL     1       2.293   2.706  21.589  0.00  0.00    +0.000 C 
ATOM     12  O   UNL     1       3.629   2.299  21.293  0.00  0.00    +0.000 OA
ATOM     13  C   UNL     1       3.960   2.556  19.920  0.00  0.00    +0.000 C 
ATOM     14  H   UNL     1       4.391   6.981  16.310  0.00  0.00    +0.000 HD
ENDROOT
BRANCH   1  18
ATOM     15  C   UNL     1       7.272   4.108  12.007  0.00  0.00    +0.000 C 
ATOM     16  C   UNL     1       6.950   4.571  13.376  0.00  0.00    +0.000 A 
ATOM     17  C   UNL     1       5.804   4.285  14.151  0.00  0.00    +0.000 A 
ATOM     18  C   UNL     1       5.993   4.961  15.337  0.00  0.00    +0.000 A 
ATOM     19  O   UNL     1       7.192   5.619  15.258  0.00  0.00    +0.000 OA
ATOM     20  N   UNL     1       7.793   5.370  14.038  0.00  0.00    +0.000 NA
ENDBRANCH   1  18
TORSDOF 1
ENDMDL
MODEL 2
REMARK VINA RESULT:      -7.5      1.777      2.642
REMARK  Name = 
REMARK  2 active torsions:
REMARK  status: ('A' for Active; 'I' for Inactive)
REMARK    1  A    between atoms: C_1  and  C_2
REMARK    2  A    between atoms: C_4  and  C_5
REMARK                            x       y       z     vdW  Elec       q    Type
REMARK                         _______ _______ _______ _____ _____    ______ ____
ROOT
ATOM      1  C   UNL     1       5.267   4.838  16.312  0.00  0.00    +0.000 A 
ATOM      2  N   UNL     1       4.616   5.887  16.776  0.00  0.00    +0.000 NA
ATOM      3  C   UNL     1       3.940   5.441  17.893  0.00  0.00    +0.000 A 
ATOM      4  C   UNL     1       3.076   6.126  18.758  0.00  0.00    +0.000 A 
ATOM      5  C   UNL     1       2.578   5.371  19.825  0.00  0.00    +0.000 A 
ATOM      6  N   UNL     1       2.858   4.057  20.035  0.00  0.00    +0.000 NA
ATOM      7  C   UNL     1       3.675   3.399  19.183  0.00  0.00    +0.000 A 
ATOM      8  C   UNL     1       4.213   4.097  18.119  0.00  0.00    +0.000 A 
ATOM      9  N   UNL     1       5.056   3.738  17.102  0.00  0.00    +0.000 N 
ATOM     10  C   UNL     1       1.610   6.002  20.791  0.00  0.00    +0.000 C 
ATOM     11  C   UNL     1       1.703   7.520  20.740  0.00  0.00    +0.000 C 
ATOM     12  O   UNL     1       1.589   7.964  19.387  0.00  0.00    +0.000 OA
ATOM     13  C   UNL     1       2.735   7.579  18.614  0.00  0.00    +0.000 C 
ATOM     14  H   UNL     1       5.450   2.821  16.942  0.00  0.00    +0.000 HD
ENDROOT
BRANCH   1  18
ATOM     15  C   UNL     1       7.270   3.977  11.771  0.00  0.00    +0.000 C 
ATOM     16  C   UNL     1       6.979   4.433  13.149  0.00  0.00    +0.000 A 
ATOM     17  C   UNL     1       5.863   4.126  13.957  0.00  0.00    +0.000 A 
ATOM     18  C   UNL     1       6.074   4.806  15.137  0.00  0.00    +0.000 A 
ATOM     19  O   UNL     1       7.256   5.488  15.022  0.00  0.00    +0.000 OA
ATOM     20  N   UNL     1       7.826   5.249  13.785  0.00  0.00    +0.000 NA
ENDBRANCH   1  18
TORSDOF 1
ENDMDL
MODEL 3
REMARK VINA RESULT:      -7.3      2.237      3.260
REMARK  Name = 
REMARK  2 active torsions:
REMARK  status: ('A' for Active; 'I' for Inactive)
REMARK    1  A    between atoms: C_1  and  C_2
REMARK    2  A    between atoms: C_4  and  C_5
REMARK                            x       y       z     vdW  Elec       q    Type
REMARK                         _______ _______ _______ _____ _____    ______ ____
ROOT
ATOM      1  C   UNL     1       4.819   5.516  16.840  0.00  0.00    +0.000 A 
ATOM      2  N   UNL     1       4.147   6.636  17.029  0.00  0.00    +0.000 NA
ATOM      3  C   UNL     1       3.451   6.457  18.206  0.00  0.00    +0.000 A 
ATOM      4  C   UNL     1       2.561   7.314  18.866  0.00  0.00    +0.000 A 
ATOM      5  C   UNL     1       2.047   6.826  20.073  0.00  0.00    +0.000 A 
ATOM      6  N   UNL     1       2.337   5.604  20.594  0.00  0.00    +0.000 NA
ATOM      7  C   UNL     1       3.179   4.776  19.939  0.00  0.00    +0.000 A 
ATOM      8  C   UNL     1       3.733   5.210  18.750  0.00  0.00    +0.000 A 
ATOM      9  N   UNL     1       4.602   4.633  17.864  0.00  0.00    +0.000 N 
ATOM     10  C   UNL     1       1.051   7.654  20.842  0.00  0.00    +0.000 C 
ATOM     11  C   UNL     1       1.130   9.118  20.433  0.00  0.00    +0.000 C 
ATOM     12  O   UNL     1       1.041   9.225  19.012  0.00  0.00    +0.000 OA
ATOM     13  C   UNL     1       2.208   8.686  18.375  0.00  0.00    +0.000 C 
ATOM     14  H   UNL     1       5.010   3.709  17.935  0.00  0.00    +0.000 HD
ENDROOT
BRANCH   1  18
ATOM     15  C   UNL     1       6.841   3.776  12.567  0.00  0.00    +0.000 C 
ATOM     16  C   UNL     1       6.567   4.458  13.851  0.00  0.00    +0.000 A 
ATOM     17  C   UNL     1       5.396   4.406  14.639  0.00  0.00    +0.000 A 
ATOM     18  C   UNL     1       5.653   5.219  15.722  0.00  0.00    +0.000 A 
ATOM     19  O   UNL     1       6.915   5.730  15.572  0.00  0.00    +0.000 OA
ATOM     20  N   UNL     1       7.489   5.249  14.409  0.00  0.00    +0.000 NA
ENDBRANCH   1  18
TORSDOF 1
ENDMDL
MODEL 4
REMARK VINA RESULT:      -7.3      3.109      7.208
REMARK  Name = 
REMARK  2 active torsions:
REMARK  status: ('A' for Active; 'I' for Inactive)
REMARK    1  A    between atoms: C_1  and  C_2
REMARK    2  A    between atoms: C_4  and  C_5
REMARK                            x       y       z     vdW  Elec       q    Type
REMARK                         _______ _______ _______ _____ _____    ______ ____
ROOT
ATOM      1  C   UNL     1       2.320   7.277  19.663  0.00  0.00    +0.000 A 
ATOM      2  N   UNL     1       2.957   7.422  18.517  0.00  0.00    +0.000 NA
ATOM      3  C   UNL     1       3.647   6.243  18.325  0.00  0.00    +0.000 A 
ATOM      4  C   UNL     1       4.506   5.860  17.285  0.00  0.00    +0.000 A 
ATOM      5  C   UNL     1       5.023   4.564  17.386  0.00  0.00    +0.000 A 
ATOM      6  N   UNL     1       4.765   3.710  18.412  0.00  0.00    +0.000 NA
ATOM      7  C   UNL     1       3.953   4.096  19.420  0.00  0.00    +0.000 A 
ATOM      8  C   UNL     1       3.397   5.360  19.368  0.00  0.00    +0.000 A 
ATOM      9  N   UNL     1       2.554   6.040  20.204  0.00  0.00    +0.000 N 
ATOM     10  C   UNL     1       5.987   4.069  16.340  0.00  0.00    +0.000 C 
ATOM     11  C   UNL     1       5.869   4.885  15.061  0.00  0.00    +0.000 C 
ATOM     12  O   UNL     1       5.968   6.276  15.368  0.00  0.00    +0.000 OA
ATOM     13  C   UNL     1       4.823   6.729  16.105  0.00  0.00    +0.000 C 
ATOM     14  H   UNL     1       2.173   5.704  21.079  0.00  0.00    +0.000 HD
ENDROOT
BRANCH   1  18
ATOM     15  C   UNL     1      -0.397  10.057  22.866  0.00  0.00    +0.000 C 
ATOM     16  C   UNL     1       0.296   9.494  21.686  0.00  0.00    +0.000 A 
ATOM     17  C   UNL     1       1.097   8.333  21.612  0.00  0.00    +0.000 A 
ATOM     18  C   UNL     1       1.506   8.261  20.298  0.00  0.00    +0.000 A 
ATOM     19  O   UNL     1       0.974   9.334  19.634  0.00  0.00    +0.000 OA
ATOM     20  N   UNL     1       0.213  10.100  20.498  0.00  0.00    +0.000 NA
ENDBRANCH   1  18
TORSDOF 1
ENDMDL
MODEL 5
REMARK VINA RESULT:      -7.2      1.939      6.948
REMARK  Name = 
REMARK  2 active torsions:
REMARK  status: ('A' for Active; 'I' for Inactive)
REMARK    1  A    between atoms: C_1  and  C_2
REMARK    2  A    between atoms: C_4  and  C_5
REMARK                            x       y       z     vdW  Elec       q    Type
REMARK                         _______ _______ _______ _____ _____    ______ ____
ROOT
ATOM      1  C   UNL     1       4.114   3.975  17.614  0.00  0.00    +0.000 A 
ATOM      2  N   UNL     1       4.184   3.605  16.349  0.00  0.00    +0.000 NA
ATOM      3  C   UNL     1       5.295   4.243  15.837  0.00  0.00    +0.000 A 
ATOM      4  C   UNL     1       5.825   4.229  14.539  0.00  0.00    +0.000 A 
ATOM      5  C   UNL     1       6.997   4.974  14.366  0.00  0.00    +0.000 A 
ATOM      6  N   UNL     1       7.599   5.699  15.345  0.00  0.00    +0.000 NA
ATOM      7  C   UNL     1       7.069   5.724  16.587  0.00  0.00    +0.000 A 
ATOM      8  C   UNL     1       5.921   4.993  16.825  0.00  0.00    +0.000 A 
ATOM      9  N   UNL     1       5.152   4.807  17.942  0.00  0.00    +0.000 N 
ATOM     10  C   UNL     1       7.625   5.056  13.000  0.00  0.00    +0.000 C 
ATOM     11  C   UNL     1       7.159   3.908  12.116  0.00  0.00    +0.000 C 
ATOM     12  O   UNL     1       5.732   3.843  12.126  0.00  0.00    +0.000 OA
ATOM     13  C   UNL     1       5.238   3.436  13.410  0.00  0.00    +0.000 C 
ATOM     14  H   UNL     1       5.305   5.218  18.854  0.00  0.00    +0.000 HD
ENDROOT
BRANCH   1  18
ATOM     15  C   UNL     1       1.427   2.671  21.670  0.00  0.00    +0.000 C 
ATOM     16  C   UNL     1       1.897   3.013  20.309  0.00  0.00    +0.000 A 
ATOM     17  C   UNL     1       3.198   3.379  19.897  0.00  0.00    +0.000 A 
ATOM     18  C   UNL     1       3.098   3.599  18.540  0.00  0.00    +0.000 A 
ATOM     19  O   UNL     1       1.796   3.378  18.175  0.00  0.00    +0.000 OA
ATOM     20  N   UNL     1       1.048   3.005  19.276  0.00  0.00    +0.000 NA
ENDBRANCH   1  18
TORSDOF 1
ENDMDL
MODEL 6
REMARK VINA RESULT:      -7.1      1.859      2.242
REMARK  Name = 
REMARK  2 active torsions:
REMARK  status: ('A' for Active; 'I' for Inactive)
REMARK    1  A    between atoms: C_1  and  C_2
REMARK    2  A    between atoms: C_4  and  C_5
REMARK                            x       y       z     vdW  Elec       q    Type
REMARK                         _______ _______ _______ _____ _____    ______ ____
ROOT
ATOM      1  C   UNL     1       5.542   4.199  16.481  0.00  0.00    +0.000 A 
ATOM      2  N   UNL     1       4.232   4.057  16.549  0.00  0.00    +0.000 NA
ATOM      3  C   UNL     1       3.967   3.679  17.849  0.00  0.00    +0.000 A 
ATOM      4  C   UNL     1       2.748   3.370  18.467  0.00  0.00    +0.000 A 
ATOM      5  C   UNL     1       2.833   3.049  19.827  0.00  0.00    +0.000 A 
ATOM      6  N   UNL     1       3.993   2.999  20.534  0.00  0.00    +0.000 NA
ATOM      7  C   UNL     1       5.165   3.277  19.924  0.00  0.00    +0.000 A 
ATOM      8  C   UNL     1       5.144   3.619  18.585  0.00  0.00    +0.000 A 
ATOM      9  N   UNL     1       6.128   3.952  17.694  0.00  0.00    +0.000 N 
ATOM     10  C   UNL     1       1.585   2.663  20.575  0.00  0.00    +0.000 C 
ATOM     11  C   UNL     1       0.341   3.160  19.853  0.00  0.00    +0.000 C 
ATOM     12  O   UNL     1       0.382   2.747  18.486  0.00  0.00    +0.000 OA
ATOM     13  C   UNL     1       1.423   3.426  17.768  0.00  0.00    +0.000 C 
ATOM     14  H   UNL     1       7.121   3.998  17.884  0.00  0.00    +0.000 HD
ENDROOT
BRANCH   1  18
ATOM     15  C   UNL     1       7.419   4.649  11.828  0.00  0.00    +0.000 C 
ATOM     16  C   UNL     1       7.137   4.747  13.278  0.00  0.00    +0.000 A 
ATOM     17  C   UNL     1       6.114   4.113  14.017  0.00  0.00    +0.000 A 
ATOM     18  C   UNL     1       6.287   4.542  15.315  0.00  0.00    +0.000 A 
ATOM     19  O   UNL     1       7.359   5.395  15.334  0.00  0.00    +0.000 OA
ATOM     20  N   UNL     1       7.894   5.517  14.066  0.00  0.00    +0.000 NA
ENDBRANCH   1  18
TORSDOF 1
ENDMDL
MODEL 7
REMARK VINA RESULT:      -7.0      3.609      7.305
REMARK  Name = 
REMARK  2 active torsions:
REMARK  status: ('A' for Active; 'I' for Inactive)
REMARK    1  A    between atoms: C_1  and  C_2
REMARK    2  A    between atoms: C_4  and  C_5
REMARK                            x       y       z     vdW  Elec       q    Type
REMARK                         _______ _______ _______ _____ _____    ______ ____
ROOT
ATOM      1  C   UNL     1       1.510   7.767  20.669  0.00  0.00    +0.000 A 
ATOM      2  N   UNL     1       1.565   6.464  20.864  0.00  0.00    +0.000 NA
ATOM      3  C   UNL     1       2.238   5.954  19.773  0.00  0.00    +0.000 A 
ATOM      4  C   UNL     1       2.557   4.628  19.449  0.00  0.00    +0.000 A 
ATOM      5  C   UNL     1       3.285   4.461  18.265  0.00  0.00    +0.000 A 
ATOM      6  N   UNL     1       3.653   5.477  17.440  0.00  0.00    +0.000 NA
ATOM      7  C   UNL     1       3.322   6.749  17.749  0.00  0.00    +0.000 A 
ATOM      8  C   UNL     1       2.619   6.979  18.916  0.00  0.00    +0.000 A 
ATOM      9  N   UNL     1       2.143   8.119  19.506  0.00  0.00    +0.000 N 
ATOM     10  C   UNL     1       3.644   3.073  17.807  0.00  0.00    +0.000 C 
ATOM     11  C   UNL     1       3.586   2.085  18.964  0.00  0.00    +0.000 C 
ATOM     12  O   UNL     1       2.327   2.199  19.629  0.00  0.00    +0.000 OA
ATOM     13  C   UNL     1       2.212   3.454  20.316  0.00  0.00    +0.000 C 
ATOM     14  H   UNL     1       2.228   9.062  19.149  0.00  0.00    +0.000 HD
ENDROOT
BRANCH   1  18
ATOM     15  C   UNL     1      -1.413  11.336  22.693  0.00  0.00    +0.000 C 
ATOM     16  C   UNL     1      -0.401  10.289  22.428  0.00  0.00    +0.000 A 
ATOM     17  C   UNL     1      -0.182   9.563  21.237  0.00  0.00    +0.000 A 
ATOM     18  C   UNL     1       0.866   8.714  21.519  0.00  0.00    +0.000 A 
ATOM     19  O   UNL     1       1.240   8.928  22.819  0.00  0.00    +0.000 OA
ATOM     20  N   UNL     1       0.455   9.916  23.384  0.00  0.00    +0.000 NA
ENDBRANCH   1  18
TORSDOF 1
ENDMDL
MODEL 8
REMARK VINA RESULT:      -7.0      3.208      7.368
REMARK  Name = 
REMARK  2 active torsions:
REMARK  status: ('A' for Active; 'I' for Inactive)
REMARK    1  A    between atoms: C_1  and  C_2
REMARK    2  A    between atoms: C_4  and  C_5
REMARK                            x       y       z     vdW  Elec       q    Type
REMARK                         _______ _______ _______ _____ _____    ______ ____
ROOT
ATOM      1  C   UNL     1       1.953   7.488  20.179  0.00  0.00    +0.000 A 
ATOM      2  N   UNL     1       2.665   7.644  19.079  0.00  0.00    +0.000 NA
ATOM      3  C   UNL     1       3.181   6.397  18.791  0.00  0.00    +0.000 A 
ATOM      4  C   UNL     1       4.026   5.989  17.750  0.00  0.00    +0.000 A 
ATOM      5  C   UNL     1       4.338   4.625  17.735  0.00  0.00    +0.000 A 
ATOM      6  N   UNL     1       3.901   3.726  18.657  0.00  0.00    +0.000 NA
ATOM      7  C   UNL     1       3.104   4.133  19.668  0.00  0.00    +0.000 A 
ATOM      8  C   UNL     1       2.746   5.466  19.727  0.00  0.00    +0.000 A 
ATOM      9  N   UNL     1       1.971   6.184  20.597  0.00  0.00    +0.000 N 
ATOM     10  C   UNL     1       5.271   4.091  16.681  0.00  0.00    +0.000 C 
ATOM     11  C   UNL     1       5.345   5.036  15.490  0.00  0.00    +0.000 C 
ATOM     12  O   UNL     1       5.633   6.359  15.944  0.00  0.00    +0.000 OA
ATOM     13  C   UNL     1       4.531   6.910  16.680  0.00  0.00    +0.000 C 
ATOM     14  H   UNL     1       1.498   5.827  21.417  0.00  0.00    +0.000 HD
ENDROOT
BRANCH   1  18
ATOM     15  C   UNL     1      -0.936  11.370  21.580  0.00  0.00    +0.000 C 
ATOM     16  C   UNL     1       0.008  10.231  21.519  0.00  0.00    +0.000 A 
ATOM     17  C   UNL     1       0.359   9.442  20.402  0.00  0.00    +0.000 A 
ATOM     18  C   UNL     1       1.263   8.519  20.882  0.00  0.00    +0.000 A 
ATOM     19  O   UNL     1       1.429   8.753  22.221  0.00  0.00    +0.000 OA
ATOM     20  N   UNL     1       0.653   9.826  22.618  0.00  0.00    +0.000 NA
ENDBRANCH   1  18
TORSDOF 1
ENDMDL
MODEL 9
REMARK VINA RESULT:      -7.0      4.563      6.144
REMARK  Name = 
REMARK  2 active torsions:
REMARK  status: ('A' for Active; 'I' for Inactive)
REMARK    1  A    between atoms: C_1  and  C_2
REMARK    2  A    between atoms: C_4  and  C_5
REMARK                            x       y       z     vdW  Elec       q    Type
REMARK                         _______ _______ _______ _____ _____    ______ ____
ROOT
ATOM      1  C   UNL     1       2.226   7.990  18.657  0.00  0.00    +0.000 A 
ATOM      2  N   UNL     1       1.798   8.030  19.904  0.00  0.00    +0.000 NA
ATOM      3  C   UNL     1       1.127   9.229  20.027  0.00  0.00    +0.000 A 
ATOM      4  C   UNL     1       0.493   9.797  21.141  0.00  0.00    +0.000 A 
ATOM      5  C   UNL     1      -0.126  11.031  20.909  0.00  0.00    +0.000 A 
ATOM      6  N   UNL     1      -0.117  11.684  19.717  0.00  0.00    +0.000 NA
ATOM      7  C   UNL     1       0.515  11.139  18.656  0.00  0.00    +0.000 A 
ATOM      8  C   UNL     1       1.130   9.912  18.817  0.00  0.00    +0.000 A 
ATOM      9  N   UNL     1       1.835   9.106  17.965  0.00  0.00    +0.000 N 
ATOM     10  C   UNL     1      -0.802  11.745  22.050  0.00  0.00    +0.000 C 
ATOM     11  C   UNL     1      -1.134  10.778  23.178  0.00  0.00    +0.000 C 
ATOM     12  O   UNL     1       0.033  10.034  23.532  0.00  0.00    +0.000 OA
ATOM     13  C   UNL     1       0.415   9.132  22.482  0.00  0.00    +0.000 C 
ATOM     14  H   UNL     1       2.048   9.296  16.994  0.00  0.00    +0.000 HD
ENDROOT
BRANCH   1  18
ATOM     15  C   UNL     1       4.190   3.614  17.115  0.00  0.00    +0.000 C 
ATOM     16  C   UNL     1       3.901   5.039  17.395  0.00  0.00    +0.000 A 
ATOM     17  C   UNL     1       2.817   5.589  18.113  0.00  0.00    +0.000 A 
ATOM     18  C   UNL     1       3.013   6.952  18.075  0.00  0.00    +0.000 A 
ATOM     19  O   UNL     1       4.157   7.191  17.361  0.00  0.00    +0.000 OA
ATOM     20  N   UNL     1       4.716   5.998  16.943  0.00  0.00    +0.000 NA
ENDBRANCH   1  18
TORSDOF 1
ENDMDL
