MODEL 1
REMARK VINA RESULT:      -7.9      0.000      0.000
REMARK  Name = 
REMARK  11 active torsions:
REMARK  status: ('A' for Active; 'I' for Inactive)
REMARK    1  A    between atoms: C_1  and  C_2
REMARK    2  A    between atoms: C_2  and  N_3
REMARK    3  A    between atoms: N_3  and  C_4
REMARK    4  A    between atoms: N_3  and  C_6
REMARK    5  A    between atoms: C_4  and  C_5
REMARK    6  A    between atoms: C_6  and  C_7
REMARK    7  A    between atoms: C_7  and  N_8
REMARK    8  A    between atoms: C_13  and  N_14
REMARK    9  A    between atoms: N_14  and  C_15
REMARK   10  A    between atoms: N_14  and  C_16
REMARK   11  A    between atoms: C_22  and  N_23
REMARK                            x       y       z     vdW  Elec       q    Type
REMARK                         _______ _______ _______ _____ _____    ______ ____
ROOT
ATOM      1  N   UNL     1       4.240   6.474  17.402  0.00  0.00    +0.000 N 
ATOM      2  N   UNL     1       3.522   7.618  17.749  0.00  0.00    +0.000 N 
ATOM      3  C   UNL     1       2.696   7.293  18.813  0.00  0.00    +0.000 A 
ATOM      4  C   UNL     1       1.854   8.087  19.551  0.00  0.00    +0.000 A 
ATOM      5  C   UNL     1       1.708   9.437  19.216  0.00  0.00    +0.000 A 
ATOM      6  C   UNL     1       0.857  10.252  19.946  0.00  0.00    +0.000 A 
ATOM      7  C   UNL     1       0.156   9.631  20.995  0.00  0.00    +0.000 A 
ATOM      8  C   UNL     1       0.316   8.266  21.314  0.00  0.00    +0.000 A 
ATOM      9  C   UNL     1       1.175   7.447  20.601  0.00  0.00    +0.000 A 
ATOM     10  N   UNL     1       1.352   6.120  20.893  0.00  0.00    +0.000 NA
ATOM     11  C   UNL     1       2.204   5.356  20.127  0.00  0.00    +0.000 A 
ATOM     12  C   UNL     1       2.554   4.011  20.239  0.00  0.00    +0.000 A 
ATOM     13  C   UNL     1       3.492   3.369  19.378  0.00  0.00    +0.000 A 
ATOM     14  C   UNL     1       4.134   4.076  18.329  0.00  0.00    +0.000 A 
ATOM     15  C   UNL     1       3.796   5.418  18.226  0.00  0.00    +0.000 A 
ATOM     16  C   UNL     1       2.858   5.954  19.099  0.00  0.00    +0.000 A 
ATOM     17  H   UNL     1       4.074   8.489  17.732  0.00  0.00    +0.000 HD
ENDROOT
BRANCH   6  18
ATOM     18  N   UNL     1       0.740  11.601  19.669  0.00  0.00    +0.000 N 
ATOM     19  C   UNL     1      -0.241  12.102  18.709  0.00  0.00    +0.000 C 
ATOM     20  C   UNL     1       1.280  12.585  20.596  0.00  0.00    +0.000 C 
ENDBRANCH   6  18
BRANCH  12  21
ATOM     21  N   UNL     1       1.953   3.245  21.307  0.00  0.00    +0.000 N 
ATOM     22  O   UNL     1       0.814   2.794  21.120  0.00  0.00    +0.000 OA
ATOM     23  O   UNL     1       2.655   3.033  22.307  0.00  0.00    +0.000 OA
ENDBRANCH  12  21
BRANCH   1  24
ATOM     24  C   UNL     1       4.986   6.514  16.144  0.00  0.00    +0.000 C 
BRANCH  24  25
ATOM     25  C   UNL     1       6.558   6.394  16.363  0.00  0.00    +0.000 C 
BRANCH  25  26
ATOM     26  N   UNL     1       7.198   5.048  16.142  0.00  0.00    +0.000 NA
BRANCH  26  28
ATOM     27  C   UNL     1       7.648   5.527  18.604  0.00  0.00    +0.000 C 
ATOM     28  C   UNL     1       7.641   4.524  17.455  0.00  0.00    +0.000 C 
ENDBRANCH  26  28
BRANCH  26  29
ATOM     29  C   UNL     1       6.275   4.082  15.496  0.00  0.00    +0.000 C 
ATOM     30  C   UNL     1       6.359   3.961  13.974  0.00  0.00    +0.000 C 
ENDBRANCH  26  29
ENDBRANCH  25  26
ENDBRANCH  24  25
ENDBRANCH   1  24
TORSDOF 7
ENDMDL
MODEL 2
REMARK VINA RESULT:      -7.5      0.898      1.609
REMARK  Name = 
REMARK  11 active torsions:
REMARK  status: ('A' for Active; 'I' for Inactive)
REMARK    1  A    between atoms: C_1  and  C_2
REMARK    2  A    between atoms: C_2  and  N_3
REMARK    3  A    between atoms: N_3  and  C_4
REMARK    4  A    between atoms: N_3  and  C_6
REMARK    5  A    between atoms: C_4  and  C_5
REMARK    6  A    between atoms: C_6  and  C_7
REMARK    7  A    between atoms: C_7  and  N_8
REMARK    8  A    between atoms: C_13  and  N_14
REMARK    9  A    between atoms: N_14  and  C_15
REMARK   10  A    between atoms: N_14  and  C_16
REMARK   11  A    between atoms: C_22  and  N_23
REMARK                            x       y       z     vdW  Elec       q    Type
REMARK                         _______ _______ _______ _____ _____    ______ ____
ROOT
ATOM      1  N   UNL     1       4.355   6.128  17.155  0.00  0.00    +0.000 N 
ATOM      2  N   UNL     1       3.666   7.280  17.532  0.00  0.00    +0.000 N 
ATOM      3  C   UNL     1       2.873   6.960  18.623  0.00  0.00    +0.000 A 
ATOM      4  C   UNL     1       2.069   7.762  19.394  0.00  0.00    +0.000 A 
ATOM      5  C   UNL     1       1.930   9.116  19.071  0.00  0.00    +0.000 A 
ATOM      6  C   UNL     1       1.116   9.939  19.834  0.00  0.00    +0.000 A 
ATOM      7  C   UNL     1       0.444   9.322  20.904  0.00  0.00    +0.000 A 
ATOM      8  C   UNL     1       0.595   7.952  21.210  0.00  0.00    +0.000 A 
ATOM      9  C   UNL     1       1.417   7.126  20.463  0.00  0.00    +0.000 A 
ATOM     10  N   UNL     1       1.586   5.795  20.742  0.00  0.00    +0.000 NA
ATOM     11  C   UNL     1       2.399   5.023  19.943  0.00  0.00    +0.000 A 
ATOM     12  C   UNL     1       2.734   3.673  20.036  0.00  0.00    +0.000 A 
ATOM     13  C   UNL     1       3.633   3.023  19.140  0.00  0.00    +0.000 A 
ATOM     14  C   UNL     1       4.248   3.726  18.073  0.00  0.00    +0.000 A 
ATOM     15  C   UNL     1       3.926   5.074  17.989  0.00  0.00    +0.000 A 
ATOM     16  C   UNL     1       3.026   5.617  18.897  0.00  0.00    +0.000 A 
ATOM     17  H   UNL     1       4.230   8.143  17.500  0.00  0.00    +0.000 HD
ENDROOT
BRANCH   6  18
ATOM     18  N   UNL     1       1.009  11.291  19.568  0.00  0.00    +0.000 N 
ATOM     19  C   UNL     1       0.385  12.210  20.517  0.00  0.00    +0.000 C 
ATOM     20  C   UNL     1       1.857  11.904  18.556  0.00  0.00    +0.000 C 
ENDBRANCH   6  18
BRANCH  12  21
ATOM     21  N   UNL     1       2.160   2.910  21.121  0.00  0.00    +0.000 N 
ATOM     22  O   UNL     1       0.971   2.574  21.021  0.00  0.00    +0.000 OA
ATOM     23  O   UNL     1       2.924   2.583  22.041  0.00  0.00    +0.000 OA
ENDBRANCH  12  21
BRANCH   1  24
ATOM     24  C   UNL     1       5.057   6.164  15.872  0.00  0.00    +0.000 C 
BRANCH  24  25
ATOM     25  C   UNL     1       6.485   5.462  15.937  0.00  0.00    +0.000 C 
BRANCH  25  26
ATOM     26  N   UNL     1       7.488   5.999  16.925  0.00  0.00    +0.000 NA
BRANCH  26  28
ATOM     27  C   UNL     1       8.054   8.374  17.653  0.00  0.00    +0.000 C 
ATOM     28  C   UNL     1       6.993   7.302  17.427  0.00  0.00    +0.000 C 
ENDBRANCH  26  28
BRANCH  26  29
ATOM     29  C   UNL     1       7.715   5.071  18.061  0.00  0.00    +0.000 C 
ATOM     30  C   UNL     1       7.192   5.515  19.427  0.00  0.00    +0.000 C 
ENDBRANCH  26  29
ENDBRANCH  25  26
ENDBRANCH  24  25
ENDBRANCH   1  24
TORSDOF 7
ENDMDL
MODEL 3
REMARK VINA RESULT:      -7.4      0.415      1.514
REMARK  Name = 
REMARK  11 active torsions:
REMARK  status: ('A' for Active; 'I' for Inactive)
REMARK    1  A    between atoms: C_1  and  C_2
REMARK    2  A    between atoms: C_2  and  N_3
REMARK    3  A    between atoms: N_3  and  C_4
REMARK    4  A    between atoms: N_3  and  C_6
REMARK    5  A    between atoms: C_4  and  C_5
REMARK    6  A    between atoms: C_6  and  C_7
REMARK    7  A    between atoms: C_7  and  N_8
REMARK    8  A    between atoms: C_13  and  N_14
REMARK    9  A    between atoms: N_14  and  C_15
REMARK   10  A    between atoms: N_14  and  C_16
REMARK   11  A    between atoms: C_22  and  N_23
REMARK                            x       y       z     vdW  Elec       q    Type
REMARK                         _______ _______ _______ _____ _____    ______ ____
ROOT
ATOM      1  N   UNL     1       4.009   6.767  17.502  0.00  0.00    +0.000 N 
ATOM      2  N   UNL     1       3.267   7.885  17.880  0.00  0.00    +0.000 N 
ATOM      3  C   UNL     1       2.465   7.518  18.949  0.00  0.00    +0.000 A 
ATOM      4  C   UNL     1       1.614   8.276  19.715  0.00  0.00    +0.000 A 
ATOM      5  C   UNL     1       1.427   9.627  19.407  0.00  0.00    +0.000 A 
ATOM      6  C   UNL     1       0.565  10.405  20.164  0.00  0.00    +0.000 A 
ATOM      7  C   UNL     1      -0.102   9.747  21.211  0.00  0.00    +0.000 A 
ATOM      8  C   UNL     1       0.098   8.380  21.502  0.00  0.00    +0.000 A 
ATOM      9  C   UNL     1       0.967   7.598  20.762  0.00  0.00    +0.000 A 
ATOM     10  N   UNL     1       1.185   6.271  21.027  0.00  0.00    +0.000 NA
ATOM     11  C   UNL     1       2.045   5.545  20.234  0.00  0.00    +0.000 A 
ATOM     12  C   UNL     1       2.432   4.208  20.316  0.00  0.00    +0.000 A 
ATOM     13  C   UNL     1       3.374   3.607  19.430  0.00  0.00    +0.000 A 
ATOM     14  C   UNL     1       3.981   4.350  18.385  0.00  0.00    +0.000 A 
ATOM     15  C   UNL     1       3.606   5.684  18.312  0.00  0.00    +0.000 A 
ATOM     16  C   UNL     1       2.668   6.178  19.209  0.00  0.00    +0.000 A 
ATOM     17  H   UNL     1       3.795   8.769  17.871  0.00  0.00    +0.000 HD
ENDROOT
BRANCH   6  18
ATOM     18  N   UNL     1       0.409  11.756  19.914  0.00  0.00    +0.000 N 
ATOM     19  C   UNL     1      -0.248  12.237  18.701  0.00  0.00    +0.000 C 
ATOM     20  C   UNL     1       0.509  12.715  21.004  0.00  0.00    +0.000 C 
ENDBRANCH   6  18
BRANCH  12  21
ATOM     21  N   UNL     1       1.867   3.407  21.379  0.00  0.00    +0.000 N 
ATOM     22  O   UNL     1       0.828   2.779  21.134  0.00  0.00    +0.000 OA
ATOM     23  O   UNL     1       2.510   3.349  22.437  0.00  0.00    +0.000 OA
ENDBRANCH  12  21
BRANCH   1  24
ATOM     24  C   UNL     1       4.735   6.849  16.234  0.00  0.00    +0.000 C 
BRANCH  24  25
ATOM     25  C   UNL     1       6.263   6.427  16.377  0.00  0.00    +0.000 C 
BRANCH  25  26
ATOM     26  N   UNL     1       6.596   4.958  16.315  0.00  0.00    +0.000 NA
BRANCH  26  28
ATOM     27  C   UNL     1       6.146   3.901  14.040  0.00  0.00    +0.000 C 
ATOM     28  C   UNL     1       7.105   4.655  14.957  0.00  0.00    +0.000 C 
ENDBRANCH  26  28
BRANCH  26  29
ATOM     29  C   UNL     1       7.601   4.563  17.333  0.00  0.00    +0.000 C 
ATOM     30  C   UNL     1       7.652   5.399  18.612  0.00  0.00    +0.000 C 
ENDBRANCH  26  29
ENDBRANCH  25  26
ENDBRANCH  24  25
ENDBRANCH   1  24
TORSDOF 7
ENDMDL
MODEL 4
REMARK VINA RESULT:      -7.3      1.165      1.914
REMARK  Name = 
REMARK  11 active torsions:
REMARK  status: ('A' for Active; 'I' for Inactive)
REMARK    1  A    between atoms: C_1  and  C_2
REMARK    2  A    between atoms: C_2  and  N_3
REMARK    3  A    between atoms: N_3  and  C_4
REMARK    4  A    between atoms: N_3  and  C_6
REMARK    5  A    between atoms: C_4  and  C_5
REMARK    6  A    between atoms: C_6  and  C_7
REMARK    7  A    between atoms: C_7  and  N_8
REMARK    8  A    between atoms: C_13  and  N_14
REMARK    9  A    between atoms: N_14  and  C_15
REMARK   10  A    between atoms: N_14  and  C_16
REMARK   11  A    between atoms: C_22  and  N_23
REMARK                            x       y       z     vdW  Elec       q    Type
REMARK                         _______ _______ _______ _____ _____    ______ ____
ROOT
ATOM      1  N   UNL     1       4.481   6.163  17.394  0.00  0.00    +0.000 N 
ATOM      2  N   UNL     1       3.775   7.340  17.636  0.00  0.00    +0.000 N 
ATOM      3  C   UNL     1       2.890   7.097  18.674  0.00  0.00    +0.000 A 
ATOM      4  C   UNL     1       2.033   7.951  19.322  0.00  0.00    +0.000 A 
ATOM      5  C   UNL     1       1.935   9.281  18.902  0.00  0.00    +0.000 A 
ATOM      6  C   UNL     1       1.069  10.156  19.538  0.00  0.00    +0.000 A 
ATOM      7  C   UNL     1       0.304   9.614  20.586  0.00  0.00    +0.000 A 
ATOM      8  C   UNL     1       0.416   8.267  20.992  0.00  0.00    +0.000 A 
ATOM      9  C   UNL     1       1.288   7.389  20.372  0.00  0.00    +0.000 A 
ATOM     10  N   UNL     1       1.420   6.079  20.750  0.00  0.00    +0.000 NA
ATOM     11  C   UNL     1       2.289   5.253  20.074  0.00  0.00    +0.000 A 
ATOM     12  C   UNL     1       2.601   3.910  20.282  0.00  0.00    +0.000 A 
ATOM     13  C   UNL     1       3.564   3.198  19.509  0.00  0.00    +0.000 A 
ATOM     14  C   UNL     1       4.273   3.827  18.453  0.00  0.00    +0.000 A 
ATOM     15  C   UNL     1       3.973   5.167  18.255  0.00  0.00    +0.000 A 
ATOM     16  C   UNL     1       3.007   5.774  19.047  0.00  0.00    +0.000 A 
ATOM     17  H   UNL     1       4.348   8.196  17.595  0.00  0.00    +0.000 HD
ENDROOT
BRANCH   6  18
ATOM     18  N   UNL     1       0.998  11.488  19.177  0.00  0.00    +0.000 N 
ATOM     19  C   UNL     1       2.083  12.141  18.447  0.00  0.00    +0.000 C 
ATOM     20  C   UNL     1      -0.290  12.166  19.139  0.00  0.00    +0.000 C 
ENDBRANCH   6  18
BRANCH  12  21
ATOM     21  N   UNL     1       1.930   3.222  21.362  0.00  0.00    +0.000 N 
ATOM     22  O   UNL     1       0.803   2.759  21.137  0.00  0.00    +0.000 OA
ATOM     23  O   UNL     1       2.568   3.081  22.416  0.00  0.00    +0.000 OA
ENDBRANCH  12  21
BRANCH   1  24
ATOM     24  C   UNL     1       5.288   6.111  16.174  0.00  0.00    +0.000 C 
BRANCH  24  25
ATOM     25  C   UNL     1       6.782   6.609  16.409  0.00  0.00    +0.000 C 
BRANCH  25  26
ATOM     26  N   UNL     1       7.094   7.309  17.706  0.00  0.00    +0.000 NA
BRANCH  26  28
ATOM     27  C   UNL     1       7.377   5.600  19.575  0.00  0.00    +0.000 C 
ATOM     28  C   UNL     1       8.019   6.451  18.484  0.00  0.00    +0.000 C 
ENDBRANCH  26  28
BRANCH  26  29
ATOM     29  C   UNL     1       7.701   8.646  17.494  0.00  0.00    +0.000 C 
ATOM     30  C   UNL     1       8.661   9.146  18.574  0.00  0.00    +0.000 C 
ENDBRANCH  26  29
ENDBRANCH  25  26
ENDBRANCH  24  25
ENDBRANCH   1  24
TORSDOF 7
ENDMDL
MODEL 5
REMARK VINA RESULT:      -7.3      0.745      1.822
REMARK  Name = 
REMARK  11 active torsions:
REMARK  status: ('A' for Active; 'I' for Inactive)
REMARK    1  A    between atoms: C_1  and  C_2
REMARK    2  A    between atoms: C_2  and  N_3
REMARK    3  A    between atoms: N_3  and  C_4
REMARK    4  A    between atoms: N_3  and  C_6
REMARK    5  A    between atoms: C_4  and  C_5
REMARK    6  A    between atoms: C_6  and  C_7
REMARK    7  A    between atoms: C_7  and  N_8
REMARK    8  A    between atoms: C_13  and  N_14
REMARK    9  A    between atoms: N_14  and  C_15
REMARK   10  A    between atoms: N_14  and  C_16
REMARK   11  A    between atoms: C_22  and  N_23
REMARK                            x       y       z     vdW  Elec       q    Type
REMARK                         _______ _______ _______ _____ _____    ______ ____
ROOT
ATOM      1  N   UNL     1       4.265   6.311  17.285  0.00  0.00    +0.000 N 
ATOM      2  N   UNL     1       3.556   7.450  17.666  0.00  0.00    +0.000 N 
ATOM      3  C   UNL     1       2.759   7.109  18.747  0.00  0.00    +0.000 A 
ATOM      4  C   UNL     1       1.938   7.893  19.520  0.00  0.00    +0.000 A 
ATOM      5  C   UNL     1       1.782   9.247  19.207  0.00  0.00    +0.000 A 
ATOM      6  C   UNL     1       0.950  10.051  19.971  0.00  0.00    +0.000 A 
ATOM      7  C   UNL     1       0.279   9.415  21.030  0.00  0.00    +0.000 A 
ATOM      8  C   UNL     1       0.449   8.046  21.326  0.00  0.00    +0.000 A 
ATOM      9  C   UNL     1       1.288   7.238  20.579  0.00  0.00    +0.000 A 
ATOM     10  N   UNL     1       1.474   5.907  20.848  0.00  0.00    +0.000 NA
ATOM     11  C   UNL     1       2.304   5.154  20.048  0.00  0.00    +0.000 A 
ATOM     12  C   UNL     1       2.658   3.808  20.132  0.00  0.00    +0.000 A 
ATOM     13  C   UNL     1       3.573   3.179  19.238  0.00  0.00    +0.000 A 
ATOM     14  C   UNL     1       4.185   3.900  18.181  0.00  0.00    +0.000 A 
ATOM     15  C   UNL     1       3.844   5.244  18.106  0.00  0.00    +0.000 A 
ATOM     16  C   UNL     1       2.931   5.766  19.011  0.00  0.00    +0.000 A 
ATOM     17  H   UNL     1       4.107   8.321  17.646  0.00  0.00    +0.000 HD
ENDROOT
BRANCH   6  18
ATOM     18  N   UNL     1       0.826  11.404  19.715  0.00  0.00    +0.000 N 
ATOM     19  C   UNL     1       1.674  12.078  18.736  0.00  0.00    +0.000 C 
ATOM     20  C   UNL     1      -0.394  12.107  20.089  0.00  0.00    +0.000 C 
ENDBRANCH   6  18
BRANCH  12  21
ATOM     21  N   UNL     1       2.087   3.027  21.206  0.00  0.00    +0.000 N 
ATOM     22  O   UNL     1       2.831   2.711  22.145  0.00  0.00    +0.000 OA
ATOM     23  O   UNL     1       0.870   2.796  21.142  0.00  0.00    +0.000 OA
ENDBRANCH  12  21
BRANCH   1  24
ATOM     24  C   UNL     1       4.976   6.368  16.007  0.00  0.00    +0.000 C 
BRANCH  24  25
ATOM     25  C   UNL     1       5.092   4.943  15.309  0.00  0.00    +0.000 C 
BRANCH  25  26
ATOM     26  N   UNL     1       6.464   4.337  15.169  0.00  0.00    +0.000 NA
BRANCH  26  28
ATOM     27  C   UNL     1       6.091   3.532  12.780  0.00  0.00    +0.000 C 
ATOM     28  C   UNL     1       6.866   4.423  13.746  0.00  0.00    +0.000 C 
ENDBRANCH  26  28
BRANCH  26  29
ATOM     29  C   UNL     1       7.471   5.016  16.022  0.00  0.00    +0.000 C 
ATOM     30  C   UNL     1       7.620   4.502  17.454  0.00  0.00    +0.000 C 
ENDBRANCH  26  29
ENDBRANCH  25  26
ENDBRANCH  24  25
ENDBRANCH   1  24
TORSDOF 7
ENDMDL
MODEL 6
REMARK VINA RESULT:      -7.2      0.835      1.628
REMARK  Name = 
REMARK  11 active torsions:
REMARK  status: ('A' for Active; 'I' for Inactive)
REMARK    1  A    between atoms: C_1  and  C_2
REMARK    2  A    between atoms: C_2  and  N_3
REMARK    3  A    between atoms: N_3  and  C_4
REMARK    4  A    between atoms: N_3  and  C_6
REMARK    5  A    between atoms: C_4  and  C_5
REMARK    6  A    between atoms: C_6  and  C_7
REMARK    7  A    between atoms: C_7  and  N_8
REMARK    8  A    between atoms: C_13  and  N_14
REMARK    9  A    between atoms: N_14  and  C_15
REMARK   10  A    between atoms: N_14  and  C_16
REMARK   11  A    between atoms: C_22  and  N_23
REMARK                            x       y       z     vdW  Elec       q    Type
REMARK                         _______ _______ _______ _____ _____    ______ ____
ROOT
ATOM      1  N   UNL     1       4.064   6.629  17.423  0.00  0.00    +0.000 N 
ATOM      2  N   UNL     1       3.366   7.774  17.806  0.00  0.00    +0.000 N 
ATOM      3  C   UNL     1       2.566   7.439  18.887  0.00  0.00    +0.000 A 
ATOM      4  C   UNL     1       1.752   8.230  19.661  0.00  0.00    +0.000 A 
ATOM      5  C   UNL     1       1.608   9.585  19.350  0.00  0.00    +0.000 A 
ATOM      6  C   UNL     1       0.784  10.396  20.114  0.00  0.00    +0.000 A 
ATOM      7  C   UNL     1       0.107   9.765  21.173  0.00  0.00    +0.000 A 
ATOM      8  C   UNL     1       0.264   8.394  21.467  0.00  0.00    +0.000 A 
ATOM      9  C   UNL     1       1.095   7.579  20.719  0.00  0.00    +0.000 A 
ATOM     10  N   UNL     1       1.269   6.246  20.986  0.00  0.00    +0.000 NA
ATOM     11  C   UNL     1       2.093   5.487  20.185  0.00  0.00    +0.000 A 
ATOM     12  C   UNL     1       2.435   4.138  20.268  0.00  0.00    +0.000 A 
ATOM     13  C   UNL     1       3.343   3.501  19.372  0.00  0.00    +0.000 A 
ATOM     14  C   UNL     1       3.963   4.218  18.317  0.00  0.00    +0.000 A 
ATOM     15  C   UNL     1       3.634   5.565  18.243  0.00  0.00    +0.000 A 
ATOM     16  C   UNL     1       2.725   6.095  19.150  0.00  0.00    +0.000 A 
ATOM     17  H   UNL     1       3.925   8.640  17.787  0.00  0.00    +0.000 HD
ENDROOT
BRANCH   6  18
ATOM     18  N   UNL     1       0.671  11.750  19.860  0.00  0.00    +0.000 N 
ATOM     19  C   UNL     1       0.099  12.667  20.844  0.00  0.00    +0.000 C 
ATOM     20  C   UNL     1       1.473  12.364  18.811  0.00  0.00    +0.000 C 
ENDBRANCH   6  18
BRANCH  12  21
ATOM     21  N   UNL     1       1.856   3.361  21.341  0.00  0.00    +0.000 N 
ATOM     22  O   UNL     1       0.800   2.757  21.108  0.00  0.00    +0.000 OA
ATOM     23  O   UNL     1       2.503   3.297  22.396  0.00  0.00    +0.000 OA
ENDBRANCH  12  21
BRANCH   1  24
ATOM     24  C   UNL     1       4.775   6.682  16.146  0.00  0.00    +0.000 C 
BRANCH  24  25
ATOM     25  C   UNL     1       6.356   6.639  16.326  0.00  0.00    +0.000 C 
BRANCH  25  26
ATOM     26  N   UNL     1       6.903   6.092  17.619  0.00  0.00    +0.000 NA
BRANCH  26  28
ATOM     27  C   UNL     1       7.061   4.081  16.063  0.00  0.00    +0.000 C 
ATOM     28  C   UNL     1       7.521   4.774  17.341  0.00  0.00    +0.000 C 
ENDBRANCH  26  28
BRANCH  26  29
ATOM     29  C   UNL     1       7.901   6.999  18.239  0.00  0.00    +0.000 C 
ATOM     30  C   UNL     1       7.950   8.433  17.712  0.00  0.00    +0.000 C 
ENDBRANCH  26  29
ENDBRANCH  25  26
ENDBRANCH  24  25
ENDBRANCH   1  24
TORSDOF 7
ENDMDL
MODEL 7
REMARK VINA RESULT:      -7.0      1.334      2.126
REMARK  Name = 
REMARK  11 active torsions:
REMARK  status: ('A' for Active; 'I' for Inactive)
REMARK    1  A    between atoms: C_1  and  C_2
REMARK    2  A    between atoms: C_2  and  N_3
REMARK    3  A    between atoms: N_3  and  C_4
REMARK    4  A    between atoms: N_3  and  C_6
REMARK    5  A    between atoms: C_4  and  C_5
REMARK    6  A    between atoms: C_6  and  C_7
REMARK    7  A    between atoms: C_7  and  N_8
REMARK    8  A    between atoms: C_13  and  N_14
REMARK    9  A    between atoms: N_14  and  C_15
REMARK   10  A    between atoms: N_14  and  C_16
REMARK   11  A    between atoms: C_22  and  N_23
REMARK                            x       y       z     vdW  Elec       q    Type
REMARK                         _______ _______ _______ _____ _____    ______ ____
ROOT
ATOM      1  N   UNL     1       4.524   5.751  16.994  0.00  0.00    +0.000 N 
ATOM      2  N   UNL     1       3.858   6.943  17.277  0.00  0.00    +0.000 N 
ATOM      3  C   UNL     1       3.061   6.728  18.390  0.00  0.00    +0.000 A 
ATOM      4  C   UNL     1       2.274   7.605  19.095  0.00  0.00    +0.000 A 
ATOM      5  C   UNL     1       2.161   8.930  18.664  0.00  0.00    +0.000 A 
ATOM      6  C   UNL     1       1.365   9.827  19.358  0.00  0.00    +0.000 A 
ATOM      7  C   UNL     1       0.683   9.312  20.474  0.00  0.00    +0.000 A 
ATOM      8  C   UNL     1       0.809   7.969  20.890  0.00  0.00    +0.000 A 
ATOM      9  C   UNL     1       1.612   7.069  20.213  0.00  0.00    +0.000 A 
ATOM     10  N   UNL     1       1.756   5.762  20.598  0.00  0.00    +0.000 NA
ATOM     11  C   UNL     1       2.553   4.913  19.863  0.00  0.00    +0.000 A 
ATOM     12  C   UNL     1       2.862   3.569  20.065  0.00  0.00    +0.000 A 
ATOM     13  C   UNL     1       3.746   2.830  19.224  0.00  0.00    +0.000 A 
ATOM     14  C   UNL     1       4.372   3.433  18.103  0.00  0.00    +0.000 A 
ATOM     15  C   UNL     1       4.076   4.776  17.910  0.00  0.00    +0.000 A 
ATOM     16  C   UNL     1       3.189   5.408  18.772  0.00  0.00    +0.000 A 
ATOM     17  H   UNL     1       4.438   7.789  17.175  0.00  0.00    +0.000 HD
ENDROOT
BRANCH   6  18
ATOM     18  N   UNL     1       1.283  11.155  18.984  0.00  0.00    +0.000 N 
ATOM     19  C   UNL     1       2.309  11.780  18.152  0.00  0.00    +0.000 C 
ATOM     20  C   UNL     1       0.007  11.853  19.047  0.00  0.00    +0.000 C 
ENDBRANCH   6  18
BRANCH  12  21
ATOM     21  N   UNL     1       2.275   2.907  21.208  0.00  0.00    +0.000 N 
ATOM     22  O   UNL     1       1.042   2.790  21.234  0.00  0.00    +0.000 OA
ATOM     23  O   UNL     1       3.060   2.436  22.045  0.00  0.00    +0.000 OA
ENDBRANCH  12  21
BRANCH   1  24
ATOM     24  C   UNL     1       5.224   5.669  15.712  0.00  0.00    +0.000 C 
BRANCH  24  25
ATOM     25  C   UNL     1       5.370   4.173  15.190  0.00  0.00    +0.000 C 
BRANCH  25  26
ATOM     26  N   UNL     1       6.324   3.914  14.052  0.00  0.00    +0.000 NA
BRANCH  26  28
ATOM     27  C   UNL     1       5.726   2.622  11.939  0.00  0.00    +0.000 C 
ATOM     28  C   UNL     1       5.543   3.873  12.793  0.00  0.00    +0.000 C 
ENDBRANCH  26  28
BRANCH  26  29
ATOM     29  C   UNL     1       7.383   4.949  13.957  0.00  0.00    +0.000 C 
ATOM     30  C   UNL     1       7.855   5.325  12.552  0.00  0.00    +0.000 C 
ENDBRANCH  26  29
ENDBRANCH  25  26
ENDBRANCH  24  25
ENDBRANCH   1  24
TORSDOF 7
ENDMDL
MODEL 8
REMARK VINA RESULT:      -6.9      3.914      8.293
REMARK  Name = 
REMARK  11 active torsions:
REMARK  status: ('A' for Active; 'I' for Inactive)
REMARK    1  A    between atoms: C_1  and  C_2
REMARK    2  A    between atoms: C_2  and  N_3
REMARK    3  A    between atoms: N_3  and  C_4
REMARK    4  A    between atoms: N_3  and  C_6
REMARK    5  A    between atoms: C_4  and  C_5
REMARK    6  A    between atoms: C_6  and  C_7
REMARK    7  A    between atoms: C_7  and  N_8
REMARK    8  A    between atoms: C_13  and  N_14
REMARK    9  A    between atoms: N_14  and  C_15
REMARK   10  A    between atoms: N_14  and  C_16
REMARK   11  A    between atoms: C_22  and  N_23
REMARK                            x       y       z     vdW  Elec       q    Type
REMARK                         _______ _______ _______ _____ _____    ______ ____
ROOT
ATOM      1  N   UNL     1       4.230   3.198  17.788  0.00  0.00    +0.000 N 
ATOM      2  N   UNL     1       4.413   2.981  16.423  0.00  0.00    +0.000 N 
ATOM      3  C   UNL     1       5.367   3.880  15.975  0.00  0.00    +0.000 A 
ATOM      4  C   UNL     1       5.939   4.015  14.735  0.00  0.00    +0.000 A 
ATOM      5  C   UNL     1       5.517   3.192  13.686  0.00  0.00    +0.000 A 
ATOM      6  C   UNL     1       6.077   3.321  12.425  0.00  0.00    +0.000 A 
ATOM      7  C   UNL     1       7.050   4.325  12.281  0.00  0.00    +0.000 A 
ATOM      8  C   UNL     1       7.459   5.147  13.352  0.00  0.00    +0.000 A 
ATOM      9  C   UNL     1       6.917   5.018  14.619  0.00  0.00    +0.000 A 
ATOM     10  N   UNL     1       7.300   5.799  15.677  0.00  0.00    +0.000 NA
ATOM     11  C   UNL     1       6.701   5.634  16.905  0.00  0.00    +0.000 A 
ATOM     12  C   UNL     1       6.932   6.288  18.115  0.00  0.00    +0.000 A 
ATOM     13  C   UNL     1       6.244   5.971  19.323  0.00  0.00    +0.000 A 
ATOM     14  C   UNL     1       5.258   4.952  19.365  0.00  0.00    +0.000 A 
ATOM     15  C   UNL     1       5.039   4.291  18.165  0.00  0.00    +0.000 A 
ATOM     16  C   UNL     1       5.744   4.681  17.034  0.00  0.00    +0.000 A 
ATOM     17  H   UNL     1       4.426   1.987  16.148  0.00  0.00    +0.000 HD
ENDROOT
BRANCH   6  18
ATOM     18  N   UNL     1       5.715   2.480  11.389  0.00  0.00    +0.000 N 
ATOM     19  C   UNL     1       6.501   1.293  11.057  0.00  0.00    +0.000 C 
ATOM     20  C   UNL     1       4.355   2.506  10.871  0.00  0.00    +0.000 C 
ENDBRANCH   6  18
BRANCH  12  21
ATOM     21  N   UNL     1       7.945   7.319  18.141  0.00  0.00    +0.000 N 
ATOM     22  O   UNL     1       8.756   7.303  19.077  0.00  0.00    +0.000 OA
ATOM     23  O   UNL     1       7.972   8.100  17.179  0.00  0.00    +0.000 OA
ENDBRANCH  12  21
BRANCH   1  24
ATOM     24  C   UNL     1       3.087   2.538  18.419  0.00  0.00    +0.000 C 
BRANCH  24  25
ATOM     25  C   UNL     1       1.801   3.473  18.485  0.00  0.00    +0.000 C 
BRANCH  25  26
ATOM     26  N   UNL     1       1.070   3.571  19.799  0.00  0.00    +0.000 NA
BRANCH  26  28
ATOM     27  C   UNL     1       2.152   2.843  21.988  0.00  0.00    +0.000 C 
ATOM     28  C   UNL     1       1.512   2.450  20.660  0.00  0.00    +0.000 C 
ENDBRANCH  26  28
BRANCH  26  29
ATOM     29  C   UNL     1       1.311   4.864  20.486  0.00  0.00    +0.000 C 
ATOM     30  C   UNL     1       2.048   5.940  19.688  0.00  0.00    +0.000 C 
ENDBRANCH  26  29
ENDBRANCH  25  26
ENDBRANCH  24  25
ENDBRANCH   1  24
TORSDOF 7
ENDMDL
MODEL 9
REMARK VINA RESULT:      -6.9      4.117      8.190
REMARK  Name = 
REMARK  11 active torsions:
REMARK  status: ('A' for Active; 'I' for Inactive)
REMARK    1  A    between atoms: C_1  and  C_2
REMARK    2  A    between atoms: C_2  and  N_3
REMARK    3  A    between atoms: N_3  and  C_4
REMARK    4  A    between atoms: N_3  and  C_6
REMARK    5  A    between atoms: C_4  and  C_5
REMARK    6  A    between atoms: C_6  and  C_7
REMARK    7  A    between atoms: C_7  and  N_8
REMARK    8  A    between atoms: C_13  and  N_14
REMARK    9  A    between atoms: N_14  and  C_15
REMARK   10  A    between atoms: N_14  and  C_16
REMARK   11  A    between atoms: C_22  and  N_23
REMARK                            x       y       z     vdW  Elec       q    Type
REMARK                         _______ _______ _______ _____ _____    ______ ____
ROOT
ATOM      1  N   UNL     1       4.715   2.990  18.058  0.00  0.00    +0.000 N 
ATOM      2  N   UNL     1       4.802   2.772  16.684  0.00  0.00    +0.000 N 
ATOM      3  C   UNL     1       5.613   3.760  16.150  0.00  0.00    +0.000 A 
ATOM      4  C   UNL     1       6.059   3.936  14.863  0.00  0.00    +0.000 A 
ATOM      5  C   UNL     1       5.638   3.057  13.860  0.00  0.00    +0.000 A 
ATOM      6  C   UNL     1       6.071   3.224  12.554  0.00  0.00    +0.000 A 
ATOM      7  C   UNL     1       6.916   4.323  12.320  0.00  0.00    +0.000 A 
ATOM      8  C   UNL     1       7.326   5.201  13.347  0.00  0.00    +0.000 A 
ATOM      9  C   UNL     1       6.911   5.034  14.656  0.00  0.00    +0.000 A 
ATOM     10  N   UNL     1       7.298   5.868  15.672  0.00  0.00    +0.000 NA
ATOM     11  C   UNL     1       6.827   5.659  16.949  0.00  0.00    +0.000 A 
ATOM     12  C   UNL     1       7.090   6.353  18.130  0.00  0.00    +0.000 A 
ATOM     13  C   UNL     1       6.547   5.984  19.396  0.00  0.00    +0.000 A 
ATOM     14  C   UNL     1       5.682   4.867  19.530  0.00  0.00    +0.000 A 
ATOM     15  C   UNL     1       5.432   4.168  18.357  0.00  0.00    +0.000 A 
ATOM     16  C   UNL     1       5.992   4.612  17.166  0.00  0.00    +0.000 A 
ATOM     17  H   UNL     1       4.897   1.782  16.415  0.00  0.00    +0.000 HD
ENDROOT
BRANCH   6  18
ATOM     18  N   UNL     1       5.713   2.335  11.559  0.00  0.00    +0.000 N 
ATOM     19  C   UNL     1       4.453   2.467  10.832  0.00  0.00    +0.000 C 
ATOM     20  C   UNL     1       6.728   1.505  10.924  0.00  0.00    +0.000 C 
ENDBRANCH   6  18
BRANCH  12  21
ATOM     21  N   UNL     1       7.987   7.485  18.062  0.00  0.00    +0.000 N 
ATOM     22  O   UNL     1       7.869   8.253  17.097  0.00  0.00    +0.000 OA
ATOM     23  O   UNL     1       8.760   7.643  19.017  0.00  0.00    +0.000 OA
ENDBRANCH  12  21
BRANCH   1  24
ATOM     24  C   UNL     1       3.707   2.223  18.790  0.00  0.00    +0.000 C 
BRANCH  24  25
ATOM     25  C   UNL     1       2.248   2.385  18.173  0.00  0.00    +0.000 C 
BRANCH  25  26
ATOM     26  N   UNL     1       1.442   3.591  18.582  0.00  0.00    +0.000 NA
BRANCH  26  28
ATOM     27  C   UNL     1       1.201   3.075  21.066  0.00  0.00    +0.000 C 
ATOM     28  C   UNL     1       1.812   3.946  19.972  0.00  0.00    +0.000 C 
ENDBRANCH  26  28
BRANCH  26  29
ATOM     29  C   UNL     1       1.668   4.752  17.686  0.00  0.00    +0.000 C 
ATOM     30  C   UNL     1       2.346   5.976  18.301  0.00  0.00    +0.000 C 
ENDBRANCH  26  29
ENDBRANCH  25  26
ENDBRANCH  24  25
ENDBRANCH   1  24
TORSDOF 7
ENDMDL
