MODEL 1
REMARK VINA RESULT:      -7.8      0.000      0.000
REMARK  Name = 
REMARK  5 active torsions:
REMARK  status: ('A' for Active; 'I' for Inactive)
REMARK    1  A    between atoms: C_2  and  C_3
REMARK    2  A    between atoms: C_3  and  C_4
REMARK    3  A    between atoms: C_4  and  N_5
REMARK    4  A    between atoms: C_7  and  C_8
REMARK    5  A    between atoms: N_16  and  C_17
REMARK                            x       y       z     vdW  Elec       q    Type
REMARK                         _______ _______ _______ _____ _____    ______ ____
ROOT
ATOM      1  C   UNL     1       2.273   3.389  21.525  0.00  0.00    +0.000 C 
ENDROOT
BRANCH   1   3
ATOM      2  O   UNL     1       0.674   4.379  20.041  0.00  0.00    +0.000 OA
ATOM      3  C   UNL     1       1.666   4.538  20.744  0.00  0.00    +0.000 C 
ATOM      4  N   UNL     1       2.364   5.729  20.900  0.00  0.00    +0.000 N 
ATOM      5  H   UNL     1       3.269   5.680  21.351  0.00  0.00    +0.000 HD
BRANCH   4   6
ATOM      6  C   UNL     1       2.007   6.977  20.334  0.00  0.00    +0.000 A 
ATOM      7  C   UNL     1       1.260   7.943  21.019  0.00  0.00    +0.000 A 
ATOM      8  C   UNL     1       0.886   9.138  20.396  0.00  0.00    +0.000 A 
ATOM      9  C   UNL     1       1.261   9.383  19.081  0.00  0.00    +0.000 A 
ATOM     10  C   UNL     1       2.035   8.442  18.413  0.00  0.00    +0.000 A 
ATOM     11  F   UNL     1       2.406   8.677  17.147  0.00  0.00    +0.000 F 
ATOM     12  C   UNL     1       2.422   7.251  19.028  0.00  0.00    +0.000 A 
ENDBRANCH   4   6
ENDBRANCH   1   3
BRANCH   1  13
ATOM     13  C   UNL     1       3.053   2.476  20.584  0.00  0.00    +0.000 C 
BRANCH  13  14
ATOM     14  N   UNL     1       3.802   3.208  19.591  0.00  0.00    +0.000 N 
ATOM     15  N   UNL     1       4.760   4.130  19.908  0.00  0.00    +0.000 NA
ATOM     16  C   UNL     1       5.124   4.564  18.739  0.00  0.00    +0.000 A 
ATOM     17  O   UNL     1       4.499   3.997  17.671  0.00  0.00    +0.000 OA
ATOM     18  C   UNL     1       3.642   3.104  18.231  0.00  0.00    +0.000 A 
ATOM     19  O   UNL     1       2.901   2.365  17.608  0.00  0.00    +0.000 OA
BRANCH  16  20
ATOM     20  C   UNL     1       6.110   5.548  18.392  0.00  0.00    +0.000 A 
ATOM     21  C   UNL     1       7.331   5.793  18.996  0.00  0.00    +0.000 A 
ATOM     22  C   UNL     1       8.024   6.890  18.410  0.00  0.00    +0.000 A 
ATOM     23  C   UNL     1       7.320   7.439  17.362  0.00  0.00    +0.000 A 
ATOM     24  S   UNL     1       5.842   6.621  17.086  0.00  0.00    +0.000 S 
ENDBRANCH  16  20
ENDBRANCH  13  14
ENDBRANCH   1  13
TORSDOF 5
ENDMDL
MODEL 2
REMARK VINA RESULT:      -7.5      1.354      1.654
REMARK  Name = 
REMARK  5 active torsions:
REMARK  status: ('A' for Active; 'I' for Inactive)
REMARK    1  A    between atoms: C_2  and  C_3
REMARK    2  A    between atoms: C_3  and  C_4
REMARK    3  A    between atoms: C_4  and  N_5
REMARK    4  A    between atoms: C_7  and  C_8
REMARK    5  A    between atoms: N_16  and  C_17
REMARK                            x       y       z     vdW  Elec       q    Type
REMARK                         _______ _______ _______ _____ _____    ______ ____
ROOT
ATOM      1  C   UNL     1       2.373   3.598  21.617  0.00  0.00    +0.000 C 
ENDROOT
BRANCH   1   3
ATOM      2  O   UNL     1       0.541   4.606  20.448  0.00  0.00    +0.000 OA
ATOM      3  C   UNL     1       1.672   4.738  20.904  0.00  0.00    +0.000 C 
ATOM      4  N   UNL     1       2.452   5.883  20.815  0.00  0.00    +0.000 N 
ATOM      5  H   UNL     1       3.430   5.799  21.060  0.00  0.00    +0.000 HD
BRANCH   4   6
ATOM      6  C   UNL     1       2.048   7.117  20.249  0.00  0.00    +0.000 A 
ATOM      7  C   UNL     1       1.292   8.069  20.946  0.00  0.00    +0.000 A 
ATOM      8  C   UNL     1       0.870   9.248  20.324  0.00  0.00    +0.000 A 
ATOM      9  C   UNL     1       1.206   9.492  18.997  0.00  0.00    +0.000 A 
ATOM     10  C   UNL     1       1.987   8.567  18.317  0.00  0.00    +0.000 A 
ATOM     11  F   UNL     1       2.320   8.801  17.041  0.00  0.00    +0.000 F 
ATOM     12  C   UNL     1       2.422   7.392  18.931  0.00  0.00    +0.000 A 
ENDBRANCH   4   6
ENDBRANCH   1   3
BRANCH   1  13
ATOM     13  C   UNL     1       2.536   2.413  20.670  0.00  0.00    +0.000 C 
BRANCH  13  14
ATOM     14  N   UNL     1       3.002   2.807  19.361  0.00  0.00    +0.000 N 
ATOM     15  N   UNL     1       4.219   3.392  19.147  0.00  0.00    +0.000 NA
ATOM     16  C   UNL     1       4.197   3.616  17.868  0.00  0.00    +0.000 A 
ATOM     17  O   UNL     1       3.074   3.213  17.211  0.00  0.00    +0.000 OA
ATOM     18  C   UNL     1       2.299   2.677  18.189  0.00  0.00    +0.000 A 
ATOM     19  O   UNL     1       1.202   2.176  18.013  0.00  0.00    +0.000 OA
BRANCH  16  20
ATOM     20  C   UNL     1       5.194   4.210  17.023  0.00  0.00    +0.000 A 
ATOM     21  C   UNL     1       5.236   4.252  15.640  0.00  0.00    +0.000 A 
ATOM     22  C   UNL     1       6.413   4.882  15.145  0.00  0.00    +0.000 A 
ATOM     23  C   UNL     1       7.227   5.321  16.165  0.00  0.00    +0.000 A 
ATOM     24  S   UNL     1       6.560   4.982  17.706  0.00  0.00    +0.000 S 
ENDBRANCH  16  20
ENDBRANCH  13  14
ENDBRANCH   1  13
TORSDOF 5
ENDMDL
MODEL 3
REMARK VINA RESULT:      -7.5      1.182      1.642
REMARK  Name = 
REMARK  5 active torsions:
REMARK  status: ('A' for Active; 'I' for Inactive)
REMARK    1  A    between atoms: C_2  and  C_3
REMARK    2  A    between atoms: C_3  and  C_4
REMARK    3  A    between atoms: C_4  and  N_5
REMARK    4  A    between atoms: C_7  and  C_8
REMARK    5  A    between atoms: N_16  and  C_17
REMARK                            x       y       z     vdW  Elec       q    Type
REMARK                         _______ _______ _______ _____ _____    ______ ____
ROOT
ATOM      1  C   UNL     1       2.233   3.542  21.600  0.00  0.00    +0.000 C 
ENDROOT
BRANCH   1   3
ATOM      2  O   UNL     1       0.684   4.400  19.986  0.00  0.00    +0.000 OA
ATOM      3  C   UNL     1       1.648   4.622  20.711  0.00  0.00    +0.000 C 
ATOM      4  N   UNL     1       2.331   5.828  20.801  0.00  0.00    +0.000 N 
ATOM      5  H   UNL     1       3.218   5.823  21.288  0.00  0.00    +0.000 HD
BRANCH   4   6
ATOM      6  C   UNL     1       1.987   7.026  20.128  0.00  0.00    +0.000 A 
ATOM      7  C   UNL     1       2.354   7.293  18.803  0.00  0.00    +0.000 A 
ATOM      8  C   UNL     1       2.037   8.516  18.202  0.00  0.00    +0.000 A 
ATOM      9  C   UNL     1       1.342   9.483  18.919  0.00  0.00    +0.000 A 
ATOM     10  C   UNL     1       0.945   9.204  20.221  0.00  0.00    +0.000 A 
ATOM     11  F   UNL     1       0.268  10.130  20.913  0.00  0.00    +0.000 F 
ATOM     12  C   UNL     1       1.246   7.984  20.826  0.00  0.00    +0.000 A 
ENDBRANCH   4   6
ENDBRANCH   1   3
BRANCH   1  13
ATOM     13  C   UNL     1       3.039   2.557  20.758  0.00  0.00    +0.000 C 
BRANCH  13  14
ATOM     14  N   UNL     1       3.818   3.209  19.732  0.00  0.00    +0.000 N 
ATOM     15  N   UNL     1       4.638   4.274  19.980  0.00  0.00    +0.000 NA
ATOM     16  C   UNL     1       5.085   4.560  18.795  0.00  0.00    +0.000 A 
ATOM     17  O   UNL     1       4.643   3.765  17.782  0.00  0.00    +0.000 OA
ATOM     18  C   UNL     1       3.822   2.877  18.399  0.00  0.00    +0.000 A 
ATOM     19  O   UNL     1       3.232   1.968  17.841  0.00  0.00    +0.000 OA
BRANCH  16  20
ATOM     20  C   UNL     1       6.001   5.586  18.383  0.00  0.00    +0.000 A 
ATOM     21  C   UNL     1       5.848   6.524  17.377  0.00  0.00    +0.000 A 
ATOM     22  C   UNL     1       6.996   7.352  17.217  0.00  0.00    +0.000 A 
ATOM     23  C   UNL     1       7.986   7.034  18.120  0.00  0.00    +0.000 A 
ATOM     24  S   UNL     1       7.519   5.754  19.157  0.00  0.00    +0.000 S 
ENDBRANCH  16  20
ENDBRANCH  13  14
ENDBRANCH   1  13
TORSDOF 5
ENDMDL
MODEL 4
REMARK VINA RESULT:      -7.3      3.768      6.662
REMARK  Name = 
REMARK  5 active torsions:
REMARK  status: ('A' for Active; 'I' for Inactive)
REMARK    1  A    between atoms: C_2  and  C_3
REMARK    2  A    between atoms: C_3  and  C_4
REMARK    3  A    between atoms: C_4  and  N_5
REMARK    4  A    between atoms: C_7  and  C_8
REMARK    5  A    between atoms: N_16  and  C_17
REMARK                            x       y       z     vdW  Elec       q    Type
REMARK                         _______ _______ _______ _____ _____    ______ ____
ROOT
ATOM      1  C   UNL     1       6.552   4.993  18.414  0.00  0.00    +0.000 C 
ENDROOT
BRANCH   1   3
ATOM      2  O   UNL     1       8.281   4.125  17.001  0.00  0.00    +0.000 OA
ATOM      3  C   UNL     1       7.168   4.638  17.076  0.00  0.00    +0.000 C 
ATOM      4  N   UNL     1       6.361   4.978  15.999  0.00  0.00    +0.000 N 
ATOM      5  H   UNL     1       5.558   5.565  16.188  0.00  0.00    +0.000 HD
BRANCH   4   6
ATOM      6  C   UNL     1       6.650   4.724  14.636  0.00  0.00    +0.000 A 
ATOM      7  C   UNL     1       7.651   5.399  13.926  0.00  0.00    +0.000 A 
ATOM      8  C   UNL     1       7.860   5.151  12.565  0.00  0.00    +0.000 A 
ATOM      9  C   UNL     1       7.072   4.219  11.900  0.00  0.00    +0.000 A 
ATOM     10  C   UNL     1       6.104   3.521  12.613  0.00  0.00    +0.000 A 
ATOM     11  F   UNL     1       5.348   2.616  11.978  0.00  0.00    +0.000 F 
ATOM     12  C   UNL     1       5.895   3.753  13.972  0.00  0.00    +0.000 A 
ENDBRANCH   4   6
ENDBRANCH   1   3
BRANCH   1  13
ATOM     13  C   UNL     1       5.270   4.192  18.626  0.00  0.00    +0.000 C 
BRANCH  13  14
ATOM     14  N   UNL     1       4.081   5.001  18.496  0.00  0.00    +0.000 N 
ATOM     15  N   UNL     1       4.036   6.323  18.839  0.00  0.00    +0.000 NA
ATOM     16  C   UNL     1       2.793   6.625  18.613  0.00  0.00    +0.000 A 
ATOM     17  O   UNL     1       2.012   5.619  18.134  0.00  0.00    +0.000 OA
ATOM     18  C   UNL     1       2.860   4.561  18.049  0.00  0.00    +0.000 A 
ATOM     19  O   UNL     1       2.555   3.455  17.638  0.00  0.00    +0.000 OA
BRANCH  16  20
ATOM     20  C   UNL     1       2.110   7.878  18.773  0.00  0.00    +0.000 A 
ATOM     21  C   UNL     1       1.902   8.871  17.831  0.00  0.00    +0.000 A 
ATOM     22  C   UNL     1       1.226  10.004  18.368  0.00  0.00    +0.000 A 
ATOM     23  C   UNL     1       0.920   9.835  19.699  0.00  0.00    +0.000 A 
ATOM     24  S   UNL     1       1.436   8.311  20.286  0.00  0.00    +0.000 S 
ENDBRANCH  16  20
ENDBRANCH  13  14
ENDBRANCH   1  13
TORSDOF 5
ENDMDL
MODEL 5
REMARK VINA RESULT:      -7.3      4.018      6.842
REMARK  Name = 
REMARK  5 active torsions:
REMARK  status: ('A' for Active; 'I' for Inactive)
REMARK    1  A    between atoms: C_2  and  C_3
REMARK    2  A    between atoms: C_3  and  C_4
REMARK    3  A    between atoms: C_4  and  N_5
REMARK    4  A    between atoms: C_7  and  C_8
REMARK    5  A    between atoms: N_16  and  C_17
REMARK                            x       y       z     vdW  Elec       q    Type
REMARK                         _______ _______ _______ _____ _____    ______ ____
ROOT
ATOM      1  C   UNL     1       7.878   6.368  18.579  0.00  0.00    +0.000 C 
ENDROOT
BRANCH   1   3
ATOM      2  O   UNL     1       7.601   8.256  17.130  0.00  0.00    +0.000 OA
ATOM      3  C   UNL     1       8.055   7.821  18.184  0.00  0.00    +0.000 C 
ATOM      4  N   UNL     1       8.787   8.551  19.111  0.00  0.00    +0.000 N 
ATOM      5  H   UNL     1       9.263   8.032  19.838  0.00  0.00    +0.000 HD
BRANCH   4   6
ATOM      6  C   UNL     1       9.069   9.936  19.037  0.00  0.00    +0.000 A 
ATOM      7  C   UNL     1       8.872  10.698  17.878  0.00  0.00    +0.000 A 
ATOM      8  C   UNL     1       9.220  12.052  17.839  0.00  0.00    +0.000 A 
ATOM      9  C   UNL     1       9.763  12.662  18.963  0.00  0.00    +0.000 A 
ATOM     10  C   UNL     1       9.924  11.917  20.125  0.00  0.00    +0.000 A 
ATOM     11  F   UNL     1      10.440  12.503  21.213  0.00  0.00    +0.000 F 
ATOM     12  C   UNL     1       9.571  10.569  20.178  0.00  0.00    +0.000 A 
ENDBRANCH   4   6
ENDBRANCH   1   3
BRANCH   1  13
ATOM     13  C   UNL     1       7.265   5.586  17.421  0.00  0.00    +0.000 C 
BRANCH  13  14
ATOM     14  N   UNL     1       5.851   5.350  17.596  0.00  0.00    +0.000 N 
ATOM     15  N   UNL     1       5.346   4.516  18.554  0.00  0.00    +0.000 NA
ATOM     16  C   UNL     1       4.070   4.565  18.319  0.00  0.00    +0.000 A 
ATOM     17  O   UNL     1       3.683   5.375  17.295  0.00  0.00    +0.000 OA
ATOM     18  C   UNL     1       4.849   5.893  16.831  0.00  0.00    +0.000 A 
ATOM     19  O   UNL     1       4.941   6.693  15.916  0.00  0.00    +0.000 OA
BRANCH  16  20
ATOM     20  C   UNL     1       2.986   3.907  18.992  0.00  0.00    +0.000 A 
ATOM     21  C   UNL     1       1.635   3.950  18.695  0.00  0.00    +0.000 A 
ATOM     22  C   UNL     1       0.845   3.210  19.621  0.00  0.00    +0.000 A 
ATOM     23  C   UNL     1       1.618   2.608  20.588  0.00  0.00    +0.000 A 
ATOM     24  S   UNL     1       3.286   2.927  20.364  0.00  0.00    +0.000 S 
ENDBRANCH  16  20
ENDBRANCH  13  14
ENDBRANCH   1  13
TORSDOF 5
ENDMDL
MODEL 6
REMARK VINA RESULT:      -7.2      4.651      7.352
REMARK  Name = 
REMARK  5 active torsions:
REMARK  status: ('A' for Active; 'I' for Inactive)
REMARK    1  A    between atoms: C_2  and  C_3
REMARK    2  A    between atoms: C_3  and  C_4
REMARK    3  A    between atoms: C_4  and  N_5
REMARK    4  A    between atoms: C_7  and  C_8
REMARK    5  A    between atoms: N_16  and  C_17
REMARK                            x       y       z     vdW  Elec       q    Type
REMARK                         _______ _______ _______ _____ _____    ______ ____
ROOT
ATOM      1  C   UNL     1       8.218   7.683  18.406  0.00  0.00    +0.000 C 
ENDROOT
BRANCH   1   3
ATOM      2  O   UNL     1       7.964   9.932  17.623  0.00  0.00    +0.000 OA
ATOM      3  C   UNL     1       8.486   9.175  18.434  0.00  0.00    +0.000 C 
ATOM      4  N   UNL     1       9.379   9.547  19.430  0.00  0.00    +0.000 N 
ATOM      5  H   UNL     1       9.881   8.807  19.903  0.00  0.00    +0.000 HD
BRANCH   4   6
ATOM      6  C   UNL     1       9.781  10.872  19.728  0.00  0.00    +0.000 A 
ATOM      7  C   UNL     1      10.596  11.635  18.881  0.00  0.00    +0.000 A 
ATOM      8  C   UNL     1      11.010  12.919  19.247  0.00  0.00    +0.000 A 
ATOM      9  C   UNL     1      10.608  13.459  20.463  0.00  0.00    +0.000 A 
ATOM     10  C   UNL     1       9.769  12.718  21.286  0.00  0.00    +0.000 A 
ATOM     11  F   UNL     1       9.372  13.237  22.456  0.00  0.00    +0.000 F 
ATOM     12  C   UNL     1       9.341  11.440  20.927  0.00  0.00    +0.000 A 
ENDBRANCH   4   6
ENDBRANCH   1   3
BRANCH   1  13
ATOM     13  C   UNL     1       7.370   7.330  17.188  0.00  0.00    +0.000 C 
BRANCH  13  14
ATOM     14  N   UNL     1       6.496   6.205  17.426  0.00  0.00    +0.000 N 
ATOM     15  N   UNL     1       5.179   6.341  17.768  0.00  0.00    +0.000 NA
ATOM     16  C   UNL     1       4.807   5.108  17.930  0.00  0.00    +0.000 A 
ATOM     17  O   UNL     1       5.761   4.162  17.709  0.00  0.00    +0.000 OA
ATOM     18  C   UNL     1       6.861   4.882  17.370  0.00  0.00    +0.000 A 
ATOM     19  O   UNL     1       7.942   4.405  17.071  0.00  0.00    +0.000 OA
BRANCH  16  20
ATOM     20  C   UNL     1       3.522   4.577  18.290  0.00  0.00    +0.000 A 
ATOM     21  C   UNL     1       2.609   3.915  17.488  0.00  0.00    +0.000 A 
ATOM     22  C   UNL     1       1.410   3.580  18.181  0.00  0.00    +0.000 A 
ATOM     23  C   UNL     1       1.451   3.980  19.497  0.00  0.00    +0.000 A 
ATOM     24  S   UNL     1       2.934   4.741  19.889  0.00  0.00    +0.000 S 
ENDBRANCH  16  20
ENDBRANCH  13  14
ENDBRANCH   1  13
TORSDOF 5
ENDMDL
MODEL 7
REMARK VINA RESULT:      -7.2      2.623      5.254
REMARK  Name = 
REMARK  5 active torsions:
REMARK  status: ('A' for Active; 'I' for Inactive)
REMARK    1  A    between atoms: C_2  and  C_3
REMARK    2  A    between atoms: C_3  and  C_4
REMARK    3  A    between atoms: C_4  and  N_5
REMARK    4  A    between atoms: C_7  and  C_8
REMARK    5  A    between atoms: N_16  and  C_17
REMARK                            x       y       z     vdW  Elec       q    Type
REMARK                         _______ _______ _______ _____ _____    ______ ____
ROOT
ATOM      1  C   UNL     1       3.488   1.639  19.060  0.00  0.00    +0.000 C 
ENDROOT
BRANCH   1   3
ATOM      2  O   UNL     1       2.600   2.613  17.060  0.00  0.00    +0.000 OA
ATOM      3  C   UNL     1       3.561   2.499  17.814  0.00  0.00    +0.000 C 
ATOM      4  N   UNL     1       4.805   3.087  17.633  0.00  0.00    +0.000 N 
ATOM      5  H   UNL     1       5.562   2.761  18.221  0.00  0.00    +0.000 HD
BRANCH   4   6
ATOM      6  C   UNL     1       5.156   3.978  16.590  0.00  0.00    +0.000 A 
ATOM      7  C   UNL     1       4.901   5.355  16.640  0.00  0.00    +0.000 A 
ATOM      8  C   UNL     1       5.217   6.185  15.559  0.00  0.00    +0.000 A 
ATOM      9  C   UNL     1       5.797   5.646  14.416  0.00  0.00    +0.000 A 
ATOM     10  C   UNL     1       6.084   4.287  14.381  0.00  0.00    +0.000 A 
ATOM     11  F   UNL     1       6.650   3.766  13.284  0.00  0.00    +0.000 F 
ATOM     12  C   UNL     1       5.783   3.453  15.457  0.00  0.00    +0.000 A 
ENDBRANCH   4   6
ENDBRANCH   1   3
BRANCH   1  13
ATOM     13  C   UNL     1       3.770   2.488  20.296  0.00  0.00    +0.000 C 
BRANCH  13  14
ATOM     14  N   UNL     1       2.901   3.636  20.393  0.00  0.00    +0.000 N 
ATOM     15  N   UNL     1       3.217   4.859  19.870  0.00  0.00    +0.000 NA
ATOM     16  C   UNL     1       2.200   5.584  20.227  0.00  0.00    +0.000 A 
ATOM     17  O   UNL     1       1.226   4.941  20.928  0.00  0.00    +0.000 OA
ATOM     18  C   UNL     1       1.683   3.666  21.027  0.00  0.00    +0.000 A 
ATOM     19  O   UNL     1       1.088   2.753  21.571  0.00  0.00    +0.000 OA
BRANCH  16  20
ATOM     20  C   UNL     1       1.929   6.971  19.975  0.00  0.00    +0.000 A 
ATOM     21  C   UNL     1       1.323   7.895  20.809  0.00  0.00    +0.000 A 
ATOM     22  C   UNL     1       1.172   9.172  20.197  0.00  0.00    +0.000 A 
ATOM     23  C   UNL     1       1.683   9.191  18.919  0.00  0.00    +0.000 A 
ATOM     24  S   UNL     1       2.353   7.679  18.475  0.00  0.00    +0.000 S 
ENDBRANCH  16  20
ENDBRANCH  13  14
ENDBRANCH   1  13
TORSDOF 5
ENDMDL
MODEL 8
REMARK VINA RESULT:      -7.1      4.219      7.253
REMARK  Name = 
REMARK  5 active torsions:
REMARK  status: ('A' for Active; 'I' for Inactive)
REMARK    1  A    between atoms: C_2  and  C_3
REMARK    2  A    between atoms: C_3  and  C_4
REMARK    3  A    between atoms: C_4  and  N_5
REMARK    4  A    between atoms: C_7  and  C_8
REMARK    5  A    between atoms: N_16  and  C_17
REMARK                            x       y       z     vdW  Elec       q    Type
REMARK                         _______ _______ _______ _____ _____    ______ ____
ROOT
ATOM      1  C   UNL     1       6.797   6.257  17.669  0.00  0.00    +0.000 C 
ENDROOT
BRANCH   1   3
ATOM      2  O   UNL     1       7.972   4.416  16.684  0.00  0.00    +0.000 OA
ATOM      3  C   UNL     1       7.192   5.349  16.521  0.00  0.00    +0.000 C 
ATOM      4  N   UNL     1       6.607   5.712  15.316  0.00  0.00    +0.000 N 
ATOM      5  H   UNL     1       6.138   6.608  15.279  0.00  0.00    +0.000 HD
BRANCH   4   6
ATOM      6  C   UNL     1       6.750   5.024  14.086  0.00  0.00    +0.000 A 
ATOM      7  C   UNL     1       7.751   5.322  13.153  0.00  0.00    +0.000 A 
ATOM      8  C   UNL     1       7.816   4.650  11.928  0.00  0.00    +0.000 A 
ATOM      9  C   UNL     1       6.882   3.666  11.625  0.00  0.00    +0.000 A 
ATOM     10  C   UNL     1       5.911   3.344  12.566  0.00  0.00    +0.000 A 
ATOM     11  F   UNL     1       5.014   2.391  12.281  0.00  0.00    +0.000 F 
ATOM     12  C   UNL     1       5.844   4.000  13.794  0.00  0.00    +0.000 A 
ENDBRANCH   4   6
ENDBRANCH   1   3
BRANCH   1  13
ATOM     13  C   UNL     1       5.616   7.131  17.258  0.00  0.00    +0.000 C 
BRANCH  13  14
ATOM     14  N   UNL     1       4.360   6.654  17.787  0.00  0.00    +0.000 N 
ATOM     15  N   UNL     1       4.209   5.417  18.351  0.00  0.00    +0.000 NA
ATOM     16  C   UNL     1       2.941   5.395  18.632  0.00  0.00    +0.000 A 
ATOM     17  O   UNL     1       2.240   6.519  18.317  0.00  0.00    +0.000 OA
ATOM     18  C   UNL     1       3.173   7.343  17.773  0.00  0.00    +0.000 A 
ATOM     19  O   UNL     1       2.956   8.474  17.374  0.00  0.00    +0.000 OA
BRANCH  16  20
ATOM     20  C   UNL     1       2.157   4.364  19.251  0.00  0.00    +0.000 A 
ATOM     21  C   UNL     1       1.333   3.430  18.648  0.00  0.00    +0.000 A 
ATOM     22  C   UNL     1       0.667   2.595  19.590  0.00  0.00    +0.000 A 
ATOM     23  C   UNL     1       1.017   2.903  20.885  0.00  0.00    +0.000 A 
ATOM     24  S   UNL     1       2.152   4.183  20.954  0.00  0.00    +0.000 S 
ENDBRANCH  16  20
ENDBRANCH  13  14
ENDBRANCH   1  13
TORSDOF 5
ENDMDL
MODEL 9
REMARK VINA RESULT:      -7.1      3.693      6.586
REMARK  Name = 
REMARK  5 active torsions:
REMARK  status: ('A' for Active; 'I' for Inactive)
REMARK    1  A    between atoms: C_2  and  C_3
REMARK    2  A    between atoms: C_3  and  C_4
REMARK    3  A    between atoms: C_4  and  N_5
REMARK    4  A    between atoms: C_7  and  C_8
REMARK    5  A    between atoms: N_16  and  C_17
REMARK                            x       y       z     vdW  Elec       q    Type
REMARK                         _______ _______ _______ _____ _____    ______ ____
ROOT
ATOM      1  C   UNL     1       6.171   4.506  18.371  0.00  0.00    +0.000 C 
ENDROOT
BRANCH   1   3
ATOM      2  O   UNL     1       8.089   4.190  16.972  0.00  0.00    +0.000 OA
ATOM      3  C   UNL     1       6.882   4.401  17.037  0.00  0.00    +0.000 C 
ATOM      4  N   UNL     1       6.036   4.595  15.954  0.00  0.00    +0.000 N 
ATOM      5  H   UNL     1       5.108   4.949  16.148  0.00  0.00    +0.000 HD
BRANCH   4   6
ATOM      6  C   UNL     1       6.405   4.508  14.589  0.00  0.00    +0.000 A 
ATOM      7  C   UNL     1       5.844   3.581  13.701  0.00  0.00    +0.000 A 
ATOM      8  C   UNL     1       6.283   3.498  12.376  0.00  0.00    +0.000 A 
ATOM      9  C   UNL     1       7.286   4.347  11.922  0.00  0.00    +0.000 A 
ATOM     10  C   UNL     1       7.816   5.292  12.791  0.00  0.00    +0.000 A 
ATOM     11  F   UNL     1       8.776   6.118  12.355  0.00  0.00    +0.000 F 
ATOM     12  C   UNL     1       7.378   5.391  14.112  0.00  0.00    +0.000 A 
ENDBRANCH   4   6
ENDBRANCH   1   3
BRANCH   1  13
ATOM     13  C   UNL     1       4.815   3.810  18.293  0.00  0.00    +0.000 C 
BRANCH  13  14
ATOM     14  N   UNL     1       3.710   4.739  18.336  0.00  0.00    +0.000 N 
ATOM     15  N   UNL     1       3.784   5.960  18.945  0.00  0.00    +0.000 NA
ATOM     16  C   UNL     1       2.580   6.421  18.788  0.00  0.00    +0.000 A 
ATOM     17  O   UNL     1       1.716   5.615  18.112  0.00  0.00    +0.000 OA
ATOM     18  C   UNL     1       2.461   4.520  17.809  0.00  0.00    +0.000 A 
ATOM     19  O   UNL     1       2.060   3.557  17.179  0.00  0.00    +0.000 OA
BRANCH  16  20
ATOM     20  C   UNL     1       2.015   7.673  19.204  0.00  0.00    +0.000 A 
ATOM     21  C   UNL     1       1.529   8.027  20.451  0.00  0.00    +0.000 A 
ATOM     22  C   UNL     1       0.991   9.345  20.478  0.00  0.00    +0.000 A 
ATOM     23  C   UNL     1       1.100   9.968  19.255  0.00  0.00    +0.000 A 
ATOM     24  S   UNL     1       1.860   8.966  18.092  0.00  0.00    +0.000 S 
ENDBRANCH  16  20
ENDBRANCH  13  14
ENDBRANCH   1  13
TORSDOF 5
ENDMDL
