MODEL 1
REMARK VINA RESULT:      -6.8      0.000      0.000
REMARK  Name = 
REMARK  5 active torsions:
REMARK  status: ('A' for Active; 'I' for Inactive)
REMARK    1  A    between atoms: C_7  and  C_8
REMARK    2  A    between atoms: C_8  and  S_9
REMARK    3  A    between atoms: S_9  and  C_10
REMARK    4  A    between atoms: C_13  and  C_14
REMARK    5  A    between atoms: N_20  and  C_21
REMARK                            x       y       z     vdW  Elec       q    Type
REMARK                         _______ _______ _______ _____ _____    ______ ____
ROOT
ATOM      1  C   UNL     1       4.571   4.020  16.842  0.00  0.00    +0.000 A 
ATOM      2  N   UNL     1       5.642   3.499  16.293  0.00  0.00    +0.000 NA
ATOM      3  N   UNL     1       6.687   4.385  16.488  0.00  0.00    +0.000 NA
ATOM      4  C   UNL     1       6.252   5.427  17.179  0.00  0.00    +0.000 A 
ATOM      5  N   UNL     1       4.885   5.243  17.418  0.00  0.00    +0.000 N 
ENDROOT
BRANCH   4   6
ATOM      6  C   UNL     1       7.101   6.543  17.655  0.00  0.00    +0.000 A 
ATOM      7  C   UNL     1       7.073   7.782  17.005  0.00  0.00    +0.000 A 
ATOM      8  C   UNL     1       7.817   8.834  17.529  0.00  0.00    +0.000 A 
ATOM      9  N   UNL     1       8.572   8.740  18.645  0.00  0.00    +0.000 NA
ATOM     10  C   UNL     1       8.623   7.533  19.236  0.00  0.00    +0.000 A 
ATOM     11  C   UNL     1       7.947   6.417  18.765  0.00  0.00    +0.000 A 
ENDBRANCH   4   6
BRANCH   5  12
ATOM     12  C   UNL     1       4.007   6.113  18.126  0.00  0.00    +0.000 A 
ATOM     13  C   UNL     1       3.567   5.784  19.418  0.00  0.00    +0.000 A 
ATOM     14  C   UNL     1       2.588   6.560  20.037  0.00  0.00    +0.000 A 
ATOM     15  C   UNL     1       2.084   7.688  19.396  0.00  0.00    +0.000 A 
ATOM     16  C   UNL     1       2.556   8.049  18.135  0.00  0.00    +0.000 A 
ATOM     17  C   UNL     1       3.508   7.259  17.493  0.00  0.00    +0.000 A 
ENDBRANCH   5  12
BRANCH   1  18
ATOM     18  S   UNL     1       2.932   3.482  16.593  0.00  0.00    +0.000 S 
BRANCH  18  19
ATOM     19  C   UNL     1       2.729   1.996  17.622  0.00  0.00    +0.000 C 
BRANCH  19  26
ATOM     20 BR   UNL     1       4.867   1.610  20.117  0.00  0.00    +0.000 Br
ATOM     21  C   UNL     1       3.103   2.312  20.170  0.00  0.00    +0.000 A 
ATOM     22  C   UNL     1       2.644   2.765  21.418  0.00  0.00    +0.000 A 
ATOM     23  C   UNL     1       1.370   3.321  21.544  0.00  0.00    +0.000 A 
ATOM     24  C   UNL     1       0.553   3.421  20.424  0.00  0.00    +0.000 A 
ATOM     25  C   UNL     1       1.004   2.961  19.182  0.00  0.00    +0.000 A 
ATOM     26  C   UNL     1       2.288   2.398  19.025  0.00  0.00    +0.000 A 
ENDBRANCH  19  26
ENDBRANCH  18  19
ENDBRANCH   1  18
TORSDOF 5
ENDMDL
MODEL 2
REMARK VINA RESULT:      -6.5      6.295      8.694
REMARK  Name = 
REMARK  5 active torsions:
REMARK  status: ('A' for Active; 'I' for Inactive)
REMARK    1  A    between atoms: C_7  and  C_8
REMARK    2  A    between atoms: C_8  and  S_9
REMARK    3  A    between atoms: S_9  and  C_10
REMARK    4  A    between atoms: C_13  and  C_14
REMARK    5  A    between atoms: N_20  and  C_21
REMARK                            x       y       z     vdW  Elec       q    Type
REMARK                         _______ _______ _______ _____ _____    ______ ____
ROOT
ATOM      1  C   UNL     1       0.341   9.440  21.569  0.00  0.00    +0.000 A 
ATOM      2  N   UNL     1       0.206   9.027  22.807  0.00  0.00    +0.000 NA
ATOM      3  N   UNL     1      -0.461  10.017  23.509  0.00  0.00    +0.000 NA
ATOM      4  C   UNL     1      -0.752  11.014  22.687  0.00  0.00    +0.000 A 
ATOM      5  N   UNL     1      -0.240  10.692  21.424  0.00  0.00    +0.000 N 
ENDROOT
BRANCH   4   6
ATOM      6  C   UNL     1      -1.537  12.213  23.054  0.00  0.00    +0.000 A 
ATOM      7  C   UNL     1      -2.907  12.110  23.320  0.00  0.00    +0.000 A 
ATOM      8  C   UNL     1      -3.598  13.240  23.744  0.00  0.00    +0.000 A 
ATOM      9  N   UNL     1      -3.024  14.449  23.927  0.00  0.00    +0.000 NA
ATOM     10  C   UNL     1      -1.716  14.545  23.630  0.00  0.00    +0.000 A 
ATOM     11  C   UNL     1      -0.954  13.483  23.162  0.00  0.00    +0.000 A 
ENDBRANCH   4   6
BRANCH   5  12
ATOM     12  C   UNL     1      -0.321  11.471  20.235  0.00  0.00    +0.000 A 
ATOM     13  C   UNL     1       0.636  12.462  19.965  0.00  0.00    +0.000 A 
ATOM     14  C   UNL     1       0.460  13.322  18.882  0.00  0.00    +0.000 A 
ATOM     15  C   UNL     1      -0.638  13.166  18.040  0.00  0.00    +0.000 A 
ATOM     16  C   UNL     1      -1.564  12.150  18.273  0.00  0.00    +0.000 A 
ATOM     17  C   UNL     1      -1.414  11.309  19.373  0.00  0.00    +0.000 A 
ENDBRANCH   5  12
BRANCH   1  18
ATOM     18  S   UNL     1       1.388   8.735  20.367  0.00  0.00    +0.000 S 
BRANCH  18  19
ATOM     19  C   UNL     1       1.540   6.975  20.803  0.00  0.00    +0.000 C 
BRANCH  19  26
ATOM     20 BR   UNL     1       1.252   3.684  20.648  0.00  0.00    +0.000 Br
ATOM     21  C   UNL     1       2.223   4.841  19.496  0.00  0.00    +0.000 A 
ATOM     22  C   UNL     1       2.880   4.239  18.410  0.00  0.00    +0.000 A 
ATOM     23  C   UNL     1       3.594   5.017  17.497  0.00  0.00    +0.000 A 
ATOM     24  C   UNL     1       3.655   6.394  17.671  0.00  0.00    +0.000 A 
ATOM     25  C   UNL     1       3.010   6.995  18.758  0.00  0.00    +0.000 A 
ATOM     26  C   UNL     1       2.278   6.233  19.694  0.00  0.00    +0.000 A 
ENDBRANCH  19  26
ENDBRANCH  18  19
ENDBRANCH   1  18
TORSDOF 5
ENDMDL
MODEL 3
REMARK VINA RESULT:      -6.4      6.126      8.536
REMARK  Name = 
REMARK  5 active torsions:
REMARK  status: ('A' for Active; 'I' for Inactive)
REMARK    1  A    between atoms: C_7  and  C_8
REMARK    2  A    between atoms: C_8  and  S_9
REMARK    3  A    between atoms: S_9  and  C_10
REMARK    4  A    between atoms: C_13  and  C_14
REMARK    5  A    between atoms: N_20  and  C_21
REMARK                            x       y       z     vdW  Elec       q    Type
REMARK                         _______ _______ _______ _____ _____    ______ ____
ROOT
ATOM      1  C   UNL     1       0.610   9.415  21.552  0.00  0.00    +0.000 A 
ATOM      2  N   UNL     1       0.738   9.240  22.845  0.00  0.00    +0.000 NA
ATOM      3  N   UNL     1       0.038  10.253  23.477  0.00  0.00    +0.000 NA
ATOM      4  C   UNL     1      -0.534  11.023  22.565  0.00  0.00    +0.000 A 
ATOM      5  N   UNL     1      -0.180  10.529  21.304  0.00  0.00    +0.000 N 
ENDROOT
BRANCH   4   6
ATOM      6  C   UNL     1      -1.436  12.159  22.859  0.00  0.00    +0.000 A 
ATOM      7  C   UNL     1      -0.919  13.447  23.038  0.00  0.00    +0.000 A 
ATOM      8  C   UNL     1      -1.800  14.506  23.228  0.00  0.00    +0.000 A 
ATOM      9  N   UNL     1      -3.144  14.374  23.245  0.00  0.00    +0.000 NA
ATOM     10  C   UNL     1      -3.627  13.126  23.113  0.00  0.00    +0.000 A 
ATOM     11  C   UNL     1      -2.826  12.004  22.959  0.00  0.00    +0.000 A 
ENDBRANCH   4   6
BRANCH   5  12
ATOM     12  C   UNL     1      -0.571  11.042  20.034  0.00  0.00    +0.000 A 
ATOM     13  C   UNL     1      -0.128  12.304  19.608  0.00  0.00    +0.000 A 
ATOM     14  C   UNL     1      -0.640  12.863  18.439  0.00  0.00    +0.000 A 
ATOM     15  C   UNL     1      -1.551  12.148  17.666  0.00  0.00    +0.000 A 
ATOM     16  C   UNL     1      -1.955  10.872  18.057  0.00  0.00    +0.000 A 
ATOM     17  C   UNL     1      -1.475  10.321  19.243  0.00  0.00    +0.000 A 
ENDBRANCH   5  12
BRANCH   1  18
ATOM     18  S   UNL     1       1.557   8.630  20.317  0.00  0.00    +0.000 S 
BRANCH  18  19
ATOM     19  C   UNL     1       1.572   6.862  20.744  0.00  0.00    +0.000 C 
BRANCH  19  26
ATOM     20 BR   UNL     1       1.286   3.566  20.714  0.00  0.00    +0.000 Br
ATOM     21  C   UNL     1       2.256   4.680  19.518  0.00  0.00    +0.000 A 
ATOM     22  C   UNL     1       2.913   4.038  18.456  0.00  0.00    +0.000 A 
ATOM     23  C   UNL     1       3.627   4.781  17.515  0.00  0.00    +0.000 A 
ATOM     24  C   UNL     1       3.687   6.164  17.636  0.00  0.00    +0.000 A 
ATOM     25  C   UNL     1       3.042   6.805  18.699  0.00  0.00    +0.000 A 
ATOM     26  C   UNL     1       2.310   6.079  19.664  0.00  0.00    +0.000 A 
ENDBRANCH  19  26
ENDBRANCH  18  19
ENDBRANCH   1  18
TORSDOF 5
ENDMDL
MODEL 4
REMARK VINA RESULT:      -6.3      4.038      6.328
REMARK  Name = 
REMARK  5 active torsions:
REMARK  status: ('A' for Active; 'I' for Inactive)
REMARK    1  A    between atoms: C_7  and  C_8
REMARK    2  A    between atoms: C_8  and  S_9
REMARK    3  A    between atoms: S_9  and  C_10
REMARK    4  A    between atoms: C_13  and  C_14
REMARK    5  A    between atoms: N_20  and  C_21
REMARK                            x       y       z     vdW  Elec       q    Type
REMARK                         _______ _______ _______ _____ _____    ______ ____
ROOT
ATOM      1  C   UNL     1       2.213   7.991  18.298  0.00  0.00    +0.000 A 
ATOM      2  N   UNL     1       2.876   8.836  17.546  0.00  0.00    +0.000 NA
ATOM      3  N   UNL     1       3.999   8.182  17.069  0.00  0.00    +0.000 NA
ATOM      4  C   UNL     1       3.998   6.934  17.512  0.00  0.00    +0.000 A 
ATOM      5  N   UNL     1       2.869   6.768  18.323  0.00  0.00    +0.000 N 
ENDROOT
BRANCH   4   6
ATOM      6  C   UNL     1       4.993   5.902  17.143  0.00  0.00    +0.000 A 
ATOM      7  C   UNL     1       4.831   5.145  15.978  0.00  0.00    +0.000 A 
ATOM      8  C   UNL     1       5.828   4.244  15.617  0.00  0.00    +0.000 A 
ATOM      9  N   UNL     1       6.963   4.053  16.324  0.00  0.00    +0.000 NA
ATOM     10  C   UNL     1       7.087   4.757  17.462  0.00  0.00    +0.000 A 
ATOM     11  C   UNL     1       6.129   5.648  17.924  0.00  0.00    +0.000 A 
ENDBRANCH   4   6
BRANCH   5  12
ATOM     12  C   UNL     1       2.463   5.587  19.008  0.00  0.00    +0.000 A 
ATOM     13  C   UNL     1       1.791   4.562  18.325  0.00  0.00    +0.000 A 
ATOM     14  C   UNL     1       1.261   3.485  19.034  0.00  0.00    +0.000 A 
ATOM     15  C   UNL     1       1.443   3.401  20.412  0.00  0.00    +0.000 A 
ATOM     16  C   UNL     1       2.155   4.390  21.088  0.00  0.00    +0.000 A 
ATOM     17  C   UNL     1       2.657   5.488  20.393  0.00  0.00    +0.000 A 
ENDBRANCH   5  12
BRANCH   1  18
ATOM     18  S   UNL     1       0.923   8.398  19.397  0.00  0.00    +0.000 S 
BRANCH  18  19
ATOM     19  C   UNL     1       0.645  10.186  19.205  0.00  0.00    +0.000 C 
BRANCH  19  26
ATOM     20 BR   UNL     1      -1.334  12.314  20.784  0.00  0.00    +0.000 Br
ATOM     21  C   UNL     1      -1.684  11.328  19.199  0.00  0.00    +0.000 A 
ATOM     22  C   UNL     1      -2.928  11.547  18.584  0.00  0.00    +0.000 A 
ATOM     23  C   UNL     1      -3.258  10.885  17.401  0.00  0.00    +0.000 A 
ATOM     24  C   UNL     1      -2.348  10.001  16.834  0.00  0.00    +0.000 A 
ATOM     25  C   UNL     1      -1.113   9.773  17.449  0.00  0.00    +0.000 A 
ATOM     26  C   UNL     1      -0.751  10.431  18.644  0.00  0.00    +0.000 A 
ENDBRANCH  19  26
ENDBRANCH  18  19
ENDBRANCH   1  18
TORSDOF 5
ENDMDL
MODEL 5
REMARK VINA RESULT:      -6.3      3.918      6.036
REMARK  Name = 
REMARK  5 active torsions:
REMARK  status: ('A' for Active; 'I' for Inactive)
REMARK    1  A    between atoms: C_7  and  C_8
REMARK    2  A    between atoms: C_8  and  S_9
REMARK    3  A    between atoms: S_9  and  C_10
REMARK    4  A    between atoms: C_13  and  C_14
REMARK    5  A    between atoms: N_20  and  C_21
REMARK                            x       y       z     vdW  Elec       q    Type
REMARK                         _______ _______ _______ _____ _____    ______ ____
ROOT
ATOM      1  C   UNL     1       2.270   7.931  18.163  0.00  0.00    +0.000 A 
ATOM      2  N   UNL     1       2.940   8.838  17.492  0.00  0.00    +0.000 NA
ATOM      3  N   UNL     1       4.118   8.254  17.059  0.00  0.00    +0.000 NA
ATOM      4  C   UNL     1       4.145   6.988  17.444  0.00  0.00    +0.000 A 
ATOM      5  N   UNL     1       2.977   6.737  18.176  0.00  0.00    +0.000 N 
ENDROOT
BRANCH   4   6
ATOM      6  C   UNL     1       5.206   6.017  17.094  0.00  0.00    +0.000 A 
ATOM      7  C   UNL     1       5.216   5.400  15.838  0.00  0.00    +0.000 A 
ATOM      8  C   UNL     1       6.273   4.558  15.510  0.00  0.00    +0.000 A 
ATOM      9  N   UNL     1       7.312   4.297  16.333  0.00  0.00    +0.000 NA
ATOM     10  C   UNL     1       7.270   4.864  17.551  0.00  0.00    +0.000 A 
ATOM     11  C   UNL     1       6.238   5.685  17.983  0.00  0.00    +0.000 A 
ENDBRANCH   4   6
BRANCH   5  12
ATOM     12  C   UNL     1       2.584   5.509  18.781  0.00  0.00    +0.000 A 
ATOM     13  C   UNL     1       1.829   4.569  18.062  0.00  0.00    +0.000 A 
ATOM     14  C   UNL     1       1.317   3.447  18.710  0.00  0.00    +0.000 A 
ATOM     15  C   UNL     1       1.597   3.231  20.057  0.00  0.00    +0.000 A 
ATOM     16  C   UNL     1       2.390   4.135  20.763  0.00  0.00    +0.000 A 
ATOM     17  C   UNL     1       2.876   5.278  20.132  0.00  0.00    +0.000 A 
ENDBRANCH   5  12
BRANCH   1  18
ATOM     18  S   UNL     1       0.899   8.232  19.196  0.00  0.00    +0.000 S 
BRANCH  18  19
ATOM     19  C   UNL     1       0.797  10.039  19.381  0.00  0.00    +0.000 C 
BRANCH  19  26
ATOM     20 BR   UNL     1      -0.993  12.815  19.566  0.00  0.00    +0.000 Br
ATOM     21  C   UNL     1      -0.685  11.515  20.916  0.00  0.00    +0.000 A 
ATOM     22  C   UNL     1      -1.323  11.727  22.150  0.00  0.00    +0.000 A 
ATOM     23  C   UNL     1      -1.174  10.809  23.190  0.00  0.00    +0.000 A 
ATOM     24  C   UNL     1      -0.386   9.680  23.000  0.00  0.00    +0.000 A 
ATOM     25  C   UNL     1       0.259   9.472  21.776  0.00  0.00    +0.000 A 
ATOM     26  C   UNL     1       0.124  10.383  20.706  0.00  0.00    +0.000 A 
ENDBRANCH  19  26
ENDBRANCH  18  19
ENDBRANCH   1  18
TORSDOF 5
ENDMDL
MODEL 6
REMARK VINA RESULT:      -6.3      3.851      6.065
REMARK  Name = 
REMARK  5 active torsions:
REMARK  status: ('A' for Active; 'I' for Inactive)
REMARK    1  A    between atoms: C_7  and  C_8
REMARK    2  A    between atoms: C_8  and  S_9
REMARK    3  A    between atoms: S_9  and  C_10
REMARK    4  A    between atoms: C_13  and  C_14
REMARK    5  A    between atoms: N_20  and  C_21
REMARK                            x       y       z     vdW  Elec       q    Type
REMARK                         _______ _______ _______ _____ _____    ______ ____
ROOT
ATOM      1  C   UNL     1       2.400   7.650  18.488  0.00  0.00    +0.000 A 
ATOM      2  N   UNL     1       3.064   8.560  17.817  0.00  0.00    +0.000 NA
ATOM      3  N   UNL     1       4.153   7.938  17.230  0.00  0.00    +0.000 NA
ATOM      4  C   UNL     1       4.128   6.647  17.524  0.00  0.00    +0.000 A 
ATOM      5  N   UNL     1       3.021   6.417  18.349  0.00  0.00    +0.000 N 
ENDROOT
BRANCH   4   6
ATOM      6  C   UNL     1       5.082   5.641  17.005  0.00  0.00    +0.000 A 
ATOM      7  C   UNL     1       4.764   4.881  15.874  0.00  0.00    +0.000 A 
ATOM      8  C   UNL     1       5.716   4.006  15.362  0.00  0.00    +0.000 A 
ATOM      9  N   UNL     1       6.949   3.843  15.888  0.00  0.00    +0.000 NA
ATOM     10  C   UNL     1       7.227   4.548  16.998  0.00  0.00    +0.000 A 
ATOM     11  C   UNL     1       6.329   5.415  17.603  0.00  0.00    +0.000 A 
ENDBRANCH   4   6
BRANCH   5  12
ATOM     12  C   UNL     1       2.602   5.174  18.905  0.00  0.00    +0.000 A 
ATOM     13  C   UNL     1       3.145   4.716  20.116  0.00  0.00    +0.000 A 
ATOM     14  C   UNL     1       2.847   3.431  20.569  0.00  0.00    +0.000 A 
ATOM     15  C   UNL     1       1.972   2.623  19.848  0.00  0.00    +0.000 A 
ATOM     16  C   UNL     1       1.389   3.093  18.672  0.00  0.00    +0.000 A 
ATOM     17  C   UNL     1       1.709   4.362  18.193  0.00  0.00    +0.000 A 
ENDBRANCH   5  12
BRANCH   1  18
ATOM     18  S   UNL     1       1.157   7.957  19.670  0.00  0.00    +0.000 S 
BRANCH  18  19
ATOM     19  C   UNL     1       0.730   9.718  19.503  0.00  0.00    +0.000 C 
BRANCH  19  26
ATOM     20 BR   UNL     1      -1.054  12.500  19.375  0.00  0.00    +0.000 Br
ATOM     21  C   UNL     1      -0.755  11.355  20.862  0.00  0.00    +0.000 A 
ATOM     22  C   UNL     1      -1.398  11.703  22.061  0.00  0.00    +0.000 A 
ATOM     23  C   UNL     1      -1.255  10.903  23.196  0.00  0.00    +0.000 A 
ATOM     24  C   UNL     1      -0.468   9.760  23.134  0.00  0.00    +0.000 A 
ATOM     25  C   UNL     1       0.182   9.417  21.943  0.00  0.00    +0.000 A 
ATOM     26  C   UNL     1       0.053  10.206  20.780  0.00  0.00    +0.000 A 
ENDBRANCH  19  26
ENDBRANCH  18  19
ENDBRANCH   1  18
TORSDOF 5
ENDMDL
MODEL 7
REMARK VINA RESULT:      -6.3      3.310      5.762
REMARK  Name = 
REMARK  5 active torsions:
REMARK  status: ('A' for Active; 'I' for Inactive)
REMARK    1  A    between atoms: C_7  and  C_8
REMARK    2  A    between atoms: C_8  and  S_9
REMARK    3  A    between atoms: S_9  and  C_10
REMARK    4  A    between atoms: C_13  and  C_14
REMARK    5  A    between atoms: N_20  and  C_21
REMARK                            x       y       z     vdW  Elec       q    Type
REMARK                         _______ _______ _______ _____ _____    ______ ____
ROOT
ATOM      1  C   UNL     1       2.523   7.060  18.576  0.00  0.00    +0.000 A 
ATOM      2  N   UNL     1       3.021   8.157  18.057  0.00  0.00    +0.000 NA
ATOM      3  N   UNL     1       4.143   7.804  17.328  0.00  0.00    +0.000 NA
ATOM      4  C   UNL     1       4.305   6.491  17.384  0.00  0.00    +0.000 A 
ATOM      5  N   UNL     1       3.289   5.969  18.193  0.00  0.00    +0.000 N 
ENDROOT
BRANCH   4   6
ATOM      6  C   UNL     1       5.348   5.733  16.657  0.00  0.00    +0.000 A 
ATOM      7  C   UNL     1       5.317   5.647  15.260  0.00  0.00    +0.000 A 
ATOM      8  C   UNL     1       6.358   4.999  14.603  0.00  0.00    +0.000 A 
ATOM      9  N   UNL     1       7.417   4.445  15.232  0.00  0.00    +0.000 NA
ATOM     10  C   UNL     1       7.414   4.500  16.576  0.00  0.00    +0.000 A 
ATOM     11  C   UNL     1       6.401   5.088  17.319  0.00  0.00    +0.000 A 
ENDBRANCH   4   6
BRANCH   5  12
ATOM     12  C   UNL     1       3.070   4.602  18.531  0.00  0.00    +0.000 A 
ATOM     13  C   UNL     1       3.683   4.040  19.661  0.00  0.00    +0.000 A 
ATOM     14  C   UNL     1       3.590   2.668  19.893  0.00  0.00    +0.000 A 
ATOM     15  C   UNL     1       2.847   1.865  19.032  0.00  0.00    +0.000 A 
ATOM     16  C   UNL     1       2.192   2.427  17.937  0.00  0.00    +0.000 A 
ATOM     17  C   UNL     1       2.309   3.791  17.678  0.00  0.00    +0.000 A 
ENDBRANCH   5  12
BRANCH   1  18
ATOM     18  S   UNL     1       1.324   6.982  19.839  0.00  0.00    +0.000 S 
BRANCH  18  19
ATOM     19  C   UNL     1       1.550   8.484  20.840  0.00  0.00    +0.000 C 
BRANCH  19  26
ATOM     20 BR   UNL     1      -0.363   9.813  23.189  0.00  0.00    +0.000 Br
ATOM     21  C   UNL     1      -0.336  10.197  21.329  0.00  0.00    +0.000 A 
ATOM     22  C   UNL     1      -1.213  11.199  20.882  0.00  0.00    +0.000 A 
ATOM     23  C   UNL     1      -1.241  11.565  19.536  0.00  0.00    +0.000 A 
ATOM     24  C   UNL     1      -0.396  10.927  18.635  0.00  0.00    +0.000 A 
ATOM     25  C   UNL     1       0.470   9.921  19.076  0.00  0.00    +0.000 A 
ATOM     26  C   UNL     1       0.522   9.533  20.432  0.00  0.00    +0.000 A 
ENDBRANCH  19  26
ENDBRANCH  18  19
ENDBRANCH   1  18
TORSDOF 5
ENDMDL
MODEL 8
REMARK VINA RESULT:      -6.2      3.185      6.302
REMARK  Name = 
REMARK  5 active torsions:
REMARK  status: ('A' for Active; 'I' for Inactive)
REMARK    1  A    between atoms: C_7  and  C_8
REMARK    2  A    between atoms: C_8  and  S_9
REMARK    3  A    between atoms: S_9  and  C_10
REMARK    4  A    between atoms: C_13  and  C_14
REMARK    5  A    between atoms: N_20  and  C_21
REMARK                            x       y       z     vdW  Elec       q    Type
REMARK                         _______ _______ _______ _____ _____    ______ ____
ROOT
ATOM      1  C   UNL     1       4.805   5.546  17.256  0.00  0.00    +0.000 A 
ATOM      2  N   UNL     1       5.288   6.681  16.809  0.00  0.00    +0.000 NA
ATOM      3  N   UNL     1       4.420   7.687  17.195  0.00  0.00    +0.000 NA
ATOM      4  C   UNL     1       3.429   7.163  17.900  0.00  0.00    +0.000 A 
ATOM      5  N   UNL     1       3.628   5.778  17.953  0.00  0.00    +0.000 N 
ENDROOT
BRANCH   4   6
ATOM      6  C   UNL     1       2.352   7.938  18.556  0.00  0.00    +0.000 A 
ATOM      7  C   UNL     1       2.067   7.747  19.912  0.00  0.00    +0.000 A 
ATOM      8  C   UNL     1       1.108   8.552  20.518  0.00  0.00    +0.000 A 
ATOM      9  N   UNL     1       0.426   9.525  19.875  0.00  0.00    +0.000 NA
ATOM     10  C   UNL     1       0.680   9.670  18.563  0.00  0.00    +0.000 A 
ATOM     11  C   UNL     1       1.589   8.889  17.865  0.00  0.00    +0.000 A 
ENDBRANCH   4   6
BRANCH   5  12
ATOM     12  C   UNL     1       2.809   4.813  18.607  0.00  0.00    +0.000 A 
ATOM     13  C   UNL     1       1.703   4.252  17.949  0.00  0.00    +0.000 A 
ATOM     14  C   UNL     1       0.821   3.431  18.649  0.00  0.00    +0.000 A 
ATOM     15  C   UNL     1       1.065   3.126  19.986  0.00  0.00    +0.000 A 
ATOM     16  C   UNL     1       2.190   3.637  20.630  0.00  0.00    +0.000 A 
ATOM     17  C   UNL     1       3.058   4.488  19.947  0.00  0.00    +0.000 A 
ENDBRANCH   5  12
BRANCH   1  18
ATOM     18  S   UNL     1       5.321   3.954  16.769  0.00  0.00    +0.000 S 
BRANCH  18  19
ATOM     19  C   UNL     1       4.812   3.772  15.031  0.00  0.00    +0.000 C 
BRANCH  19  26
ATOM     20 BR   UNL     1       4.591   3.051  11.811  0.00  0.00    +0.000 Br
ATOM     21  C   UNL     1       5.982   3.967  12.724  0.00  0.00    +0.000 A 
ATOM     22  C   UNL     1       7.046   4.438  11.937  0.00  0.00    +0.000 A 
ATOM     23  C   UNL     1       8.098   5.145  12.522  0.00  0.00    +0.000 A 
ATOM     24  C   UNL     1       8.089   5.379  13.891  0.00  0.00    +0.000 A 
ATOM     25  C   UNL     1       7.035   4.902  14.679  0.00  0.00    +0.000 A 
ATOM     26  C   UNL     1       5.957   4.187  14.114  0.00  0.00    +0.000 A 
ENDBRANCH  19  26
ENDBRANCH  18  19
ENDBRANCH   1  18
TORSDOF 5
ENDMDL
MODEL 9
REMARK VINA RESULT:      -6.2      5.534      7.765
REMARK  Name = 
REMARK  5 active torsions:
REMARK  status: ('A' for Active; 'I' for Inactive)
REMARK    1  A    between atoms: C_7  and  C_8
REMARK    2  A    between atoms: C_8  and  S_9
REMARK    3  A    between atoms: S_9  and  C_10
REMARK    4  A    between atoms: C_13  and  C_14
REMARK    5  A    between atoms: N_20  and  C_21
REMARK                            x       y       z     vdW  Elec       q    Type
REMARK                         _______ _______ _______ _____ _____    ______ ____
ROOT
ATOM      1  C   UNL     1       1.033   8.946  20.592  0.00  0.00    +0.000 A 
ATOM      2  N   UNL     1       1.463   8.759  21.817  0.00  0.00    +0.000 NA
ATOM      3  N   UNL     1       0.910   9.749  22.612  0.00  0.00    +0.000 NA
ATOM      4  C   UNL     1       0.125  10.516  21.871  0.00  0.00    +0.000 A 
ATOM      5  N   UNL     1       0.185  10.044  20.554  0.00  0.00    +0.000 N 
ENDROOT
BRANCH   4   6
ATOM      6  C   UNL     1      -0.705  11.628  22.386  0.00  0.00    +0.000 A 
ATOM      7  C   UNL     1      -1.913  11.365  23.042  0.00  0.00    +0.000 A 
ATOM      8  C   UNL     1      -2.626  12.427  23.588  0.00  0.00    +0.000 A 
ATOM      9  N   UNL     1      -2.221  13.715  23.533  0.00  0.00    +0.000 NA
ATOM     10  C   UNL     1      -1.080  13.957  22.864  0.00  0.00    +0.000 A 
ATOM     11  C   UNL     1      -0.322  12.969  22.253  0.00  0.00    +0.000 A 
ENDBRANCH   4   6
BRANCH   5  12
ATOM     12  C   UNL     1      -0.501  10.563  19.418  0.00  0.00    +0.000 A 
ATOM     13  C   UNL     1      -0.173  11.826  18.903  0.00  0.00    +0.000 A 
ATOM     14  C   UNL     1      -0.953  12.390  17.895  0.00  0.00    +0.000 A 
ATOM     15  C   UNL     1      -2.026  11.679  17.364  0.00  0.00    +0.000 A 
ATOM     16  C   UNL     1      -2.325  10.402  17.836  0.00  0.00    +0.000 A 
ATOM     17  C   UNL     1      -1.572   9.846  18.868  0.00  0.00    +0.000 A 
ENDBRANCH   5  12
BRANCH   1  18
ATOM     18  S   UNL     1       1.680   8.197  19.158  0.00  0.00    +0.000 S 
BRANCH  18  19
ATOM     19  C   UNL     1       2.869   6.948  19.736  0.00  0.00    +0.000 C 
BRANCH  19  26
ATOM     20 BR   UNL     1       4.050   5.176  17.205  0.00  0.00    +0.000 Br
ATOM     21  C   UNL     1       2.731   4.682  18.480  0.00  0.00    +0.000 A 
ATOM     22  C   UNL     1       2.205   3.385  18.369  0.00  0.00    +0.000 A 
ATOM     23  C   UNL     1       1.251   2.929  19.280  0.00  0.00    +0.000 A 
ATOM     24  C   UNL     1       0.820   3.769  20.299  0.00  0.00    +0.000 A 
ATOM     25  C   UNL     1       1.336   5.066  20.406  0.00  0.00    +0.000 A 
ATOM     26  C   UNL     1       2.303   5.552  19.501  0.00  0.00    +0.000 A 
ENDBRANCH  19  26
ENDBRANCH  18  19
ENDBRANCH   1  18
TORSDOF 5
ENDMDL
