MODEL 1
REMARK VINA RESULT:      -6.9      0.000      0.000
REMARK  Name = 
REMARK  11 active torsions:
REMARK  status: ('A' for Active; 'I' for Inactive)
REMARK    1  A    between atoms: C_1  and  C_2
REMARK    2  A    between atoms: C_2  and  C_3
REMARK    3  A    between atoms: C_3  and  N_4
REMARK    4  A    between atoms: C_8  and  C_9
REMARK    5  A    between atoms: C_11  and  C_12
REMARK    6  A    between atoms: C_15  and  C_16
REMARK    7  A    between atoms: C_17  and  C_18
REMARK    8  A    between atoms: C_22  and  O_23
REMARK    9  A    between atoms: O_23  and  C_24
REMARK   10  A    between atoms: C_28  and  C_29
REMARK   11  A    between atoms: C_29  and  O_30
REMARK                            x       y       z     vdW  Elec       q    Type
REMARK                         _______ _______ _______ _____ _____    ______ ____
ROOT
ATOM      1  N   UNL     1      -4.097  12.821  22.200  0.00  0.00    +0.000 N 
ATOM      2  C   UNL     1      -3.841  12.752  20.856  0.00  0.00    +0.000 C 
ATOM      3  O   UNL     1      -4.670  13.008  19.989  0.00  0.00    +0.000 OA
ATOM      4  N   UNL     1      -2.558  12.409  20.553  0.00  0.00    +0.000 N 
ATOM      5  C   UNL     1      -1.934  12.324  19.230  0.00  0.00    +0.000 C 
ATOM      6  C   UNL     1      -0.658  11.877  20.005  0.00  0.00    +0.000 C 
ATOM      7  C   UNL     1      -1.596  11.511  21.192  0.00  0.00    +0.000 C 
ATOM      8  H   UNL     1      -3.298  13.165  22.724  0.00  0.00    +0.000 HD
ENDROOT
BRANCH   6   9
ATOM      9  C   UNL     1       0.330  10.774  19.428  0.00  0.00    +0.000 A 
ATOM     10  C   UNL     1       0.503   9.537  20.086  0.00  0.00    +0.000 A 
ATOM     11  C   UNL     1       1.409   8.576  19.631  0.00  0.00    +0.000 A 
ATOM     12  C   UNL     1       2.178   8.833  18.502  0.00  0.00    +0.000 A 
ATOM     13  C   UNL     1       2.014  10.027  17.808  0.00  0.00    +0.000 A 
ATOM     14  C   UNL     1       1.086  10.968  18.256  0.00  0.00    +0.000 A 
BRANCH  12  15
ATOM     15  C   UNL     1       3.144   7.885  18.060  0.00  0.00    +0.000 C 
ATOM     16  C   UNL     1       3.970   7.102  17.686  0.00  0.00    +0.000 C 
BRANCH  16  17
ATOM     17  C   UNL     1       4.965   6.184  17.241  0.00  0.00    +0.000 A 
ATOM     18  C   UNL     1       5.613   5.365  18.167  0.00  0.00    +0.000 A 
ATOM     19  C   UNL     1       6.594   4.479  17.732  0.00  0.00    +0.000 A 
ATOM     20  C   UNL     1       6.921   4.415  16.377  0.00  0.00    +0.000 A 
ATOM     21  C   UNL     1       6.273   5.235  15.444  0.00  0.00    +0.000 A 
ATOM     22  C   UNL     1       5.289   6.119  15.883  0.00  0.00    +0.000 A 
BRANCH  21  23
ATOM     23  O   UNL     1       6.682   5.076  14.150  0.00  0.00    +0.000 OA
ATOM     24  C   UNL     1       6.221   3.909  13.476  0.00  0.00    +0.000 C 
ENDBRANCH  21  23
ENDBRANCH  16  17
ENDBRANCH  12  15
ENDBRANCH   6   9
BRANCH   5  25
ATOM     25  C   UNL     1      -2.557  11.379  18.318  0.00  0.00    +0.000 C 
ATOM     26  N   UNL     1      -3.050  10.586  17.630  0.00  0.00    +0.000 NA
ENDBRANCH   5  25
BRANCH   1  27
ATOM     27  C   UNL     1      -5.393  13.267  22.675  0.00  0.00    +0.000 C 
BRANCH  27  29
ATOM     28  C   UNL     1      -6.548  15.157  23.897  0.00  0.00    +0.000 C 
ATOM     29  C   UNL     1      -5.420  14.767  22.953  0.00  0.00    +0.000 C 
ENDBRANCH  27  29
ENDBRANCH   1  27
BRANCH   7  30
ATOM     30  C   UNL     1      -1.135  11.914  22.584  0.00  0.00    +0.000 C 
BRANCH  30  31
ATOM     31  O   UNL     1      -0.723  10.780  23.346  0.00  0.00    +0.000 OA
ATOM     32  H   UNL     1      -1.418  10.102  23.268  0.00  0.00    +0.000 HD
ENDBRANCH  30  31
ENDBRANCH   7  30
TORSDOF 9
ENDMDL
MODEL 2
REMARK VINA RESULT:      -6.9      0.866      1.241
REMARK  Name = 
REMARK  11 active torsions:
REMARK  status: ('A' for Active; 'I' for Inactive)
REMARK    1  A    between atoms: C_1  and  C_2
REMARK    2  A    between atoms: C_2  and  C_3
REMARK    3  A    between atoms: C_3  and  N_4
REMARK    4  A    between atoms: C_8  and  C_9
REMARK    5  A    between atoms: C_11  and  C_12
REMARK    6  A    between atoms: C_15  and  C_16
REMARK    7  A    between atoms: C_17  and  C_18
REMARK    8  A    between atoms: C_22  and  O_23
REMARK    9  A    between atoms: O_23  and  C_24
REMARK   10  A    between atoms: C_28  and  C_29
REMARK   11  A    between atoms: C_29  and  O_30
REMARK                            x       y       z     vdW  Elec       q    Type
REMARK                         _______ _______ _______ _____ _____    ______ ____
ROOT
ATOM      1  N   UNL     1      -4.266  13.193  22.114  0.00  0.00    +0.000 N 
ATOM      2  C   UNL     1      -3.972  13.033  20.786  0.00  0.00    +0.000 C 
ATOM      3  O   UNL     1      -4.773  13.236  19.880  0.00  0.00    +0.000 OA
ATOM      4  N   UNL     1      -2.682  12.664  20.545  0.00  0.00    +0.000 N 
ATOM      5  C   UNL     1      -2.022  12.487  19.248  0.00  0.00    +0.000 C 
ATOM      6  C   UNL     1      -0.772  12.085  20.089  0.00  0.00    +0.000 C 
ATOM      7  C   UNL     1      -1.747  11.804  21.270  0.00  0.00    +0.000 C 
ATOM      8  H   UNL     1      -3.479  13.566  22.638  0.00  0.00    +0.000 HD
ENDROOT
BRANCH   6   9
ATOM      9  C   UNL     1       0.224  10.940  19.616  0.00  0.00    +0.000 A 
ATOM     10  C   UNL     1       1.065  11.123  18.497  0.00  0.00    +0.000 A 
ATOM     11  C   UNL     1       1.905  10.110  18.028  0.00  0.00    +0.000 A 
ATOM     12  C   UNL     1       1.918   8.875  18.665  0.00  0.00    +0.000 A 
ATOM     13  C   UNL     1       1.126   8.665  19.789  0.00  0.00    +0.000 A 
ATOM     14  C   UNL     1       0.313   9.694  20.265  0.00  0.00    +0.000 A 
BRANCH  12  15
ATOM     15  C   UNL     1       2.728   7.817  18.164  0.00  0.00    +0.000 C 
ATOM     16  C   UNL     1       3.401   6.927  17.725  0.00  0.00    +0.000 C 
BRANCH  16  17
ATOM     17  C   UNL     1       4.191   5.870  17.186  0.00  0.00    +0.000 A 
ATOM     18  C   UNL     1       3.760   4.550  17.318  0.00  0.00    +0.000 A 
ATOM     19  C   UNL     1       4.540   3.519  16.804  0.00  0.00    +0.000 A 
ATOM     20  C   UNL     1       5.744   3.812  16.162  0.00  0.00    +0.000 A 
ATOM     21  C   UNL     1       6.179   5.136  16.026  0.00  0.00    +0.000 A 
ATOM     22  C   UNL     1       5.394   6.167  16.541  0.00  0.00    +0.000 A 
BRANCH  21  23
ATOM     23  O   UNL     1       7.372   5.291  15.377  0.00  0.00    +0.000 OA
ATOM     24  C   UNL     1       7.353   5.120  13.963  0.00  0.00    +0.000 C 
ENDBRANCH  21  23
ENDBRANCH  16  17
ENDBRANCH  12  15
ENDBRANCH   6   9
BRANCH   5  25
ATOM     25  C   UNL     1      -2.625  11.488  18.384  0.00  0.00    +0.000 C 
ATOM     26  N   UNL     1      -3.059  10.688  17.665  0.00  0.00    +0.000 NA
ENDBRANCH   5  25
BRANCH   1  27
ATOM     27  C   UNL     1      -5.571  13.678  22.520  0.00  0.00    +0.000 C 
BRANCH  27  29
ATOM     28  C   UNL     1      -6.803  15.843  22.959  0.00  0.00    +0.000 C 
ATOM     29  C   UNL     1      -5.503  15.072  23.135  0.00  0.00    +0.000 C 
ENDBRANCH  27  29
ENDBRANCH   1  27
BRANCH   7  30
ATOM     30  C   UNL     1      -1.324  12.296  22.645  0.00  0.00    +0.000 C 
BRANCH  30  31
ATOM     31  O   UNL     1      -0.525  11.326  23.322  0.00  0.00    +0.000 OA
ATOM     32  H   UNL     1       0.018  11.797  23.980  0.00  0.00    +0.000 HD
ENDBRANCH  30  31
ENDBRANCH   7  30
TORSDOF 9
ENDMDL
MODEL 3
REMARK VINA RESULT:      -6.8      1.975      2.749
REMARK  Name = 
REMARK  11 active torsions:
REMARK  status: ('A' for Active; 'I' for Inactive)
REMARK    1  A    between atoms: C_1  and  C_2
REMARK    2  A    between atoms: C_2  and  C_3
REMARK    3  A    between atoms: C_3  and  N_4
REMARK    4  A    between atoms: C_8  and  C_9
REMARK    5  A    between atoms: C_11  and  C_12
REMARK    6  A    between atoms: C_15  and  C_16
REMARK    7  A    between atoms: C_17  and  C_18
REMARK    8  A    between atoms: C_22  and  O_23
REMARK    9  A    between atoms: O_23  and  C_24
REMARK   10  A    between atoms: C_28  and  C_29
REMARK   11  A    between atoms: C_29  and  O_30
REMARK                            x       y       z     vdW  Elec       q    Type
REMARK                         _______ _______ _______ _____ _____    ______ ____
ROOT
ATOM      1  N   UNL     1      -2.525  14.853  20.345  0.00  0.00    +0.000 N 
ATOM      2  C   UNL     1      -1.427  14.384  21.018  0.00  0.00    +0.000 C 
ATOM      3  O   UNL     1      -0.781  15.050  21.819  0.00  0.00    +0.000 OA
ATOM      4  N   UNL     1      -1.130  13.081  20.752  0.00  0.00    +0.000 N 
ATOM      5  C   UNL     1      -0.081  12.254  21.354  0.00  0.00    +0.000 C 
ATOM      6  C   UNL     1      -0.594  11.138  20.394  0.00  0.00    +0.000 C 
ATOM      7  C   UNL     1      -1.236  12.270  19.539  0.00  0.00    +0.000 C 
ATOM      8  H   UNL     1      -3.238  14.139  20.231  0.00  0.00    +0.000 HD
ENDROOT
BRANCH   6   9
ATOM      9  C   UNL     1       0.398  10.109  19.699  0.00  0.00    +0.000 A 
ATOM     10  C   UNL     1       0.909   8.999  20.406  0.00  0.00    +0.000 A 
ATOM     11  C   UNL     1       1.827   8.115  19.835  0.00  0.00    +0.000 A 
ATOM     12  C   UNL     1       2.269   8.325  18.533  0.00  0.00    +0.000 A 
ATOM     13  C   UNL     1       1.765   9.389  17.793  0.00  0.00    +0.000 A 
ATOM     14  C   UNL     1       0.827  10.249  18.365  0.00  0.00    +0.000 A 
BRANCH  12  15
ATOM     15  C   UNL     1       3.245   7.463  17.959  0.00  0.00    +0.000 C 
ATOM     16  C   UNL     1       4.082   6.748  17.484  0.00  0.00    +0.000 C 
BRANCH  16  17
ATOM     17  C   UNL     1       5.089   5.908  16.928  0.00  0.00    +0.000 A 
ATOM     18  C   UNL     1       6.284   5.711  17.621  0.00  0.00    +0.000 A 
ATOM     19  C   UNL     1       7.272   4.901  17.070  0.00  0.00    +0.000 A 
ATOM     20  C   UNL     1       7.061   4.292  15.832  0.00  0.00    +0.000 A 
ATOM     21  C   UNL     1       5.862   4.486  15.134  0.00  0.00    +0.000 A 
ATOM     22  C   UNL     1       4.874   5.296  15.690  0.00  0.00    +0.000 A 
BRANCH  21  23
ATOM     23  O   UNL     1       5.778   3.834  13.936  0.00  0.00    +0.000 OA
ATOM     24  C   UNL     1       6.806   4.109  12.989  0.00  0.00    +0.000 C 
ENDBRANCH  21  23
ENDBRANCH  16  17
ENDBRANCH  12  15
ENDBRANCH   6   9
BRANCH   5  25
ATOM     25  C   UNL     1       1.271  12.752  21.176  0.00  0.00    +0.000 C 
ATOM     26  N   UNL     1       2.342  13.186  21.075  0.00  0.00    +0.000 NA
ENDBRANCH   5  25
BRANCH   1  27
ATOM     27  C   UNL     1      -3.020  16.193  20.600  0.00  0.00    +0.000 C 
BRANCH  27  29
ATOM     28  C   UNL     1      -4.010  16.882  22.824  0.00  0.00    +0.000 C 
ATOM     29  C   UNL     1      -4.258  16.189  21.491  0.00  0.00    +0.000 C 
ENDBRANCH  27  29
ENDBRANCH   1  27
BRANCH   7  30
ATOM     30  C   UNL     1      -2.646  12.028  19.024  0.00  0.00    +0.000 C 
BRANCH  30  31
ATOM     31  O   UNL     1      -2.691  12.048  17.597  0.00  0.00    +0.000 OA
ATOM     32  H   UNL     1      -3.089  11.210  17.302  0.00  0.00    +0.000 HD
ENDBRANCH  30  31
ENDBRANCH   7  30
TORSDOF 9
ENDMDL
MODEL 4
REMARK VINA RESULT:      -6.8      2.305      3.318
REMARK  Name = 
REMARK  11 active torsions:
REMARK  status: ('A' for Active; 'I' for Inactive)
REMARK    1  A    between atoms: C_1  and  C_2
REMARK    2  A    between atoms: C_2  and  C_3
REMARK    3  A    between atoms: C_3  and  N_4
REMARK    4  A    between atoms: C_8  and  C_9
REMARK    5  A    between atoms: C_11  and  C_12
REMARK    6  A    between atoms: C_15  and  C_16
REMARK    7  A    between atoms: C_17  and  C_18
REMARK    8  A    between atoms: C_22  and  O_23
REMARK    9  A    between atoms: O_23  and  C_24
REMARK   10  A    between atoms: C_28  and  C_29
REMARK   11  A    between atoms: C_29  and  O_30
REMARK                            x       y       z     vdW  Elec       q    Type
REMARK                         _______ _______ _______ _____ _____    ______ ____
ROOT
ATOM      1  N   UNL     1      -3.220  14.944  20.422  0.00  0.00    +0.000 N 
ATOM      2  C   UNL     1      -2.153  14.483  21.146  0.00  0.00    +0.000 C 
ATOM      3  O   UNL     1      -1.578  15.139  22.008  0.00  0.00    +0.000 OA
ATOM      4  N   UNL     1      -1.800  13.199  20.856  0.00  0.00    +0.000 N 
ATOM      5  C   UNL     1      -0.765  12.381  21.496  0.00  0.00    +0.000 C 
ATOM      6  C   UNL     1      -1.184  11.285  20.469  0.00  0.00    +0.000 C 
ATOM      7  C   UNL     1      -1.806  12.427  19.613  0.00  0.00    +0.000 C 
ATOM      8  H   UNL     1      -3.902  14.213  20.239  0.00  0.00    +0.000 HD
ENDROOT
BRANCH   6   9
ATOM      9  C   UNL     1      -0.120  10.309  19.804  0.00  0.00    +0.000 A 
ATOM     10  C   UNL     1       0.475   9.266  20.546  0.00  0.00    +0.000 A 
ATOM     11  C   UNL     1       1.455   8.433  20.000  0.00  0.00    +0.000 A 
ATOM     12  C   UNL     1       1.876   8.631  18.690  0.00  0.00    +0.000 A 
ATOM     13  C   UNL     1       1.292   9.628  17.916  0.00  0.00    +0.000 A 
ATOM     14  C   UNL     1       0.294  10.435  18.464  0.00  0.00    +0.000 A 
BRANCH  12  15
ATOM     15  C   UNL     1       2.912   7.825  18.140  0.00  0.00    +0.000 C 
ATOM     16  C   UNL     1       3.798   7.155  17.689  0.00  0.00    +0.000 C 
BRANCH  16  17
ATOM     17  C   UNL     1       4.863   6.366  17.165  0.00  0.00    +0.000 A 
ATOM     18  C   UNL     1       4.917   6.103  15.795  0.00  0.00    +0.000 A 
ATOM     19  C   UNL     1       5.950   5.321  15.288  0.00  0.00    +0.000 A 
ATOM     20  C   UNL     1       6.921   4.808  16.149  0.00  0.00    +0.000 A 
ATOM     21  C   UNL     1       6.871   5.071  17.523  0.00  0.00    +0.000 A 
ATOM     22  C   UNL     1       5.836   5.856  18.028  0.00  0.00    +0.000 A 
BRANCH  21  23
ATOM     23  O   UNL     1       7.879   4.513  18.258  0.00  0.00    +0.000 OA
ATOM     24  C   UNL     1       8.309   5.242  19.404  0.00  0.00    +0.000 C 
ENDBRANCH  21  23
ENDBRANCH  16  17
ENDBRANCH  12  15
ENDBRANCH   6   9
BRANCH   5  25
ATOM     25  C   UNL     1       0.580  12.924  21.419  0.00  0.00    +0.000 C 
ATOM     26  N   UNL     1       1.663  13.338  21.410  0.00  0.00    +0.000 NA
ENDBRANCH   5  25
BRANCH   1  27
ATOM     27  C   UNL     1      -3.771  16.259  20.689  0.00  0.00    +0.000 C 
BRANCH  27  29
ATOM     28  C   UNL     1      -3.937  18.197  19.073  0.00  0.00    +0.000 C 
ATOM     29  C   UNL     1      -3.018  17.360  19.950  0.00  0.00    +0.000 C 
ENDBRANCH  27  29
ENDBRANCH   1  27
BRANCH   7  30
ATOM     30  C   UNL     1      -3.173  12.164  19.003  0.00  0.00    +0.000 C 
BRANCH  30  31
ATOM     31  O   UNL     1      -3.081  11.929  17.598  0.00  0.00    +0.000 OA
ATOM     32  H   UNL     1      -2.832  10.996  17.469  0.00  0.00    +0.000 HD
ENDBRANCH  30  31
ENDBRANCH   7  30
TORSDOF 9
ENDMDL
MODEL 5
REMARK VINA RESULT:      -6.7      1.881      2.619
REMARK  Name = 
REMARK  11 active torsions:
REMARK  status: ('A' for Active; 'I' for Inactive)
REMARK    1  A    between atoms: C_1  and  C_2
REMARK    2  A    between atoms: C_2  and  C_3
REMARK    3  A    between atoms: C_3  and  N_4
REMARK    4  A    between atoms: C_8  and  C_9
REMARK    5  A    between atoms: C_11  and  C_12
REMARK    6  A    between atoms: C_15  and  C_16
REMARK    7  A    between atoms: C_17  and  C_18
REMARK    8  A    between atoms: C_22  and  O_23
REMARK    9  A    between atoms: O_23  and  C_24
REMARK   10  A    between atoms: C_28  and  C_29
REMARK   11  A    between atoms: C_29  and  O_30
REMARK                            x       y       z     vdW  Elec       q    Type
REMARK                         _______ _______ _______ _____ _____    ______ ____
ROOT
ATOM      1  N   UNL     1      -3.690  14.660  20.325  0.00  0.00    +0.000 N 
ATOM      2  C   UNL     1      -2.551  14.356  21.021  0.00  0.00    +0.000 C 
ATOM      3  O   UNL     1      -1.969  15.145  21.758  0.00  0.00    +0.000 OA
ATOM      4  N   UNL     1      -2.131  13.070  20.861  0.00  0.00    +0.000 N 
ATOM      5  C   UNL     1      -1.005  12.399  21.518  0.00  0.00    +0.000 C 
ATOM      6  C   UNL     1      -1.411  11.163  20.660  0.00  0.00    +0.000 C 
ATOM      7  C   UNL     1      -2.161  12.153  19.721  0.00  0.00    +0.000 C 
ATOM      8  H   UNL     1      -4.331  13.874  20.278  0.00  0.00    +0.000 HD
ENDROOT
BRANCH   6   9
ATOM      9  C   UNL     1      -0.327  10.179  20.042  0.00  0.00    +0.000 A 
ATOM     10  C   UNL     1       0.305   9.199  20.838  0.00  0.00    +0.000 A 
ATOM     11  C   UNL     1       1.302   8.363  20.331  0.00  0.00    +0.000 A 
ATOM     12  C   UNL     1       1.704   8.493  19.006  0.00  0.00    +0.000 A 
ATOM     13  C   UNL     1       1.084   9.425  18.181  0.00  0.00    +0.000 A 
ATOM     14  C   UNL     1       0.069  10.236  18.692  0.00  0.00    +0.000 A 
BRANCH  12  15
ATOM     15  C   UNL     1       2.757   7.684  18.493  0.00  0.00    +0.000 C 
ATOM     16  C   UNL     1       3.657   7.014  18.070  0.00  0.00    +0.000 C 
BRANCH  16  17
ATOM     17  C   UNL     1       4.739   6.228  17.578  0.00  0.00    +0.000 A 
ATOM     18  C   UNL     1       5.500   5.468  18.468  0.00  0.00    +0.000 A 
ATOM     19  C   UNL     1       6.564   4.712  17.987  0.00  0.00    +0.000 A 
ATOM     20  C   UNL     1       6.861   4.718  16.623  0.00  0.00    +0.000 A 
ATOM     21  C   UNL     1       6.099   5.478  15.727  0.00  0.00    +0.000 A 
ATOM     22  C   UNL     1       5.032   6.233  16.213  0.00  0.00    +0.000 A 
BRANCH  21  23
ATOM     23  O   UNL     1       6.490   5.399  14.421  0.00  0.00    +0.000 OA
ATOM     24  C   UNL     1       6.334   4.132  13.787  0.00  0.00    +0.000 C 
ENDBRANCH  21  23
ENDBRANCH  16  17
ENDBRANCH  12  15
ENDBRANCH   6   9
BRANCH   5  25
ATOM     25  C   UNL     1       0.293  13.008  21.285  0.00  0.00    +0.000 C 
ATOM     26  N   UNL     1       1.342  13.485  21.152  0.00  0.00    +0.000 NA
ENDBRANCH   5  25
BRANCH   1  27
ATOM     27  C   UNL     1      -4.311  15.962  20.473  0.00  0.00    +0.000 C 
BRANCH  27  29
ATOM     28  C   UNL     1      -6.227  14.584  19.563  0.00  0.00    +0.000 C 
ATOM     29  C   UNL     1      -5.774  15.956  20.040  0.00  0.00    +0.000 C 
ENDBRANCH  27  29
ENDBRANCH   1  27
BRANCH   7  30
ATOM     30  C   UNL     1      -3.543  11.736  19.243  0.00  0.00    +0.000 C 
BRANCH  30  31
ATOM     31  O   UNL     1      -3.863  12.334  17.988  0.00  0.00    +0.000 OA
ATOM     32  H   UNL     1      -3.239  13.067  17.841  0.00  0.00    +0.000 HD
ENDBRANCH  30  31
ENDBRANCH   7  30
TORSDOF 9
ENDMDL
MODEL 6
REMARK VINA RESULT:      -6.7      1.563      2.114
REMARK  Name = 
REMARK  11 active torsions:
REMARK  status: ('A' for Active; 'I' for Inactive)
REMARK    1  A    between atoms: C_1  and  C_2
REMARK    2  A    between atoms: C_2  and  C_3
REMARK    3  A    between atoms: C_3  and  N_4
REMARK    4  A    between atoms: C_8  and  C_9
REMARK    5  A    between atoms: C_11  and  C_12
REMARK    6  A    between atoms: C_15  and  C_16
REMARK    7  A    between atoms: C_17  and  C_18
REMARK    8  A    between atoms: C_22  and  O_23
REMARK    9  A    between atoms: O_23  and  C_24
REMARK   10  A    between atoms: C_28  and  C_29
REMARK   11  A    between atoms: C_29  and  O_30
REMARK                            x       y       z     vdW  Elec       q    Type
REMARK                         _______ _______ _______ _____ _____    ______ ____
ROOT
ATOM      1  N   UNL     1      -4.778  13.428  22.395  0.00  0.00    +0.000 N 
ATOM      2  C   UNL     1      -4.515  13.245  21.063  0.00  0.00    +0.000 C 
ATOM      3  O   UNL     1      -5.346  13.397  20.175  0.00  0.00    +0.000 OA
ATOM      4  N   UNL     1      -3.220  12.916  20.795  0.00  0.00    +0.000 N 
ATOM      5  C   UNL     1      -2.589  12.730  19.486  0.00  0.00    +0.000 C 
ATOM      6  C   UNL     1      -1.303  12.393  20.300  0.00  0.00    +0.000 C 
ATOM      7  C   UNL     1      -2.235  12.108  21.514  0.00  0.00    +0.000 C 
ATOM      8  H   UNL     1      -3.992  13.842  22.887  0.00  0.00    +0.000 HD
ENDROOT
BRANCH   6   9
ATOM      9  C   UNL     1      -0.280  11.272  19.827  0.00  0.00    +0.000 A 
ATOM     10  C   UNL     1       0.542  11.467  18.697  0.00  0.00    +0.000 A 
ATOM     11  C   UNL     1       1.405  10.474  18.228  0.00  0.00    +0.000 A 
ATOM     12  C   UNL     1       1.462   9.247  18.878  0.00  0.00    +0.000 A 
ATOM     13  C   UNL     1       0.691   9.027  20.015  0.00  0.00    +0.000 A 
ATOM     14  C   UNL     1      -0.147  10.037  20.490  0.00  0.00    +0.000 A 
BRANCH  12  15
ATOM     15  C   UNL     1       2.297   8.208  18.379  0.00  0.00    +0.000 C 
ATOM     16  C   UNL     1       2.984   7.321  17.956  0.00  0.00    +0.000 C 
BRANCH  16  17
ATOM     17  C   UNL     1       3.786   6.257  17.449  0.00  0.00    +0.000 A 
ATOM     18  C   UNL     1       4.881   6.546  16.634  0.00  0.00    +0.000 A 
ATOM     19  C   UNL     1       5.654   5.504  16.130  0.00  0.00    +0.000 A 
ATOM     20  C   UNL     1       5.330   4.183  16.443  0.00  0.00    +0.000 A 
ATOM     21  C   UNL     1       4.232   3.890  17.261  0.00  0.00    +0.000 A 
ATOM     22  C   UNL     1       3.461   4.936  17.766  0.00  0.00    +0.000 A 
BRANCH  21  23
ATOM     23  O   UNL     1       4.022   2.560  17.494  0.00  0.00    +0.000 OA
ATOM     24  C   UNL     1       2.706   2.184  17.892  0.00  0.00    +0.000 C 
ENDBRANCH  21  23
ENDBRANCH  16  17
ENDBRANCH  12  15
ENDBRANCH   6   9
BRANCH   5  25
ATOM     25  C   UNL     1      -3.179  11.688  18.662  0.00  0.00    +0.000 C 
ATOM     26  N   UNL     1      -3.600  10.835  18.000  0.00  0.00    +0.000 NA
ENDBRANCH   5  25
BRANCH   1  27
ATOM     27  C   UNL     1      -6.089  13.876  22.826  0.00  0.00    +0.000 C 
BRANCH  27  29
ATOM     28  C   UNL     1      -4.587  15.512  24.038  0.00  0.00    +0.000 C 
ATOM     29  C   UNL     1      -6.017  15.153  23.656  0.00  0.00    +0.000 C 
ENDBRANCH  27  29
ENDBRANCH   1  27
BRANCH   7  30
ATOM     30  C   UNL     1      -1.792  12.648  22.865  0.00  0.00    +0.000 C 
BRANCH  30  31
ATOM     31  O   UNL     1      -0.780  11.829  23.448  0.00  0.00    +0.000 OA
ATOM     32  H   UNL     1      -0.561  11.129  22.809  0.00  0.00    +0.000 HD
ENDBRANCH  30  31
ENDBRANCH   7  30
TORSDOF 9
ENDMDL
MODEL 7
REMARK VINA RESULT:      -6.7      2.045      2.889
REMARK  Name = 
REMARK  11 active torsions:
REMARK  status: ('A' for Active; 'I' for Inactive)
REMARK    1  A    between atoms: C_1  and  C_2
REMARK    2  A    between atoms: C_2  and  C_3
REMARK    3  A    between atoms: C_3  and  N_4
REMARK    4  A    between atoms: C_8  and  C_9
REMARK    5  A    between atoms: C_11  and  C_12
REMARK    6  A    between atoms: C_15  and  C_16
REMARK    7  A    between atoms: C_17  and  C_18
REMARK    8  A    between atoms: C_22  and  O_23
REMARK    9  A    between atoms: O_23  and  C_24
REMARK   10  A    between atoms: C_28  and  C_29
REMARK   11  A    between atoms: C_29  and  O_30
REMARK                            x       y       z     vdW  Elec       q    Type
REMARK                         _______ _______ _______ _____ _____    ______ ____
ROOT
ATOM      1  N   UNL     1      -3.694  15.249  20.445  0.00  0.00    +0.000 N 
ATOM      2  C   UNL     1      -2.447  15.085  20.988  0.00  0.00    +0.000 C 
ATOM      3  O   UNL     1      -1.794  15.996  21.486  0.00  0.00    +0.000 OA
ATOM      4  N   UNL     1      -1.999  13.798  20.967  0.00  0.00    +0.000 N 
ATOM      5  C   UNL     1      -0.755  13.267  21.532  0.00  0.00    +0.000 C 
ATOM      6  C   UNL     1      -1.233  11.899  20.957  0.00  0.00    +0.000 C 
ATOM      7  C   UNL     1      -2.165  12.707  20.007  0.00  0.00    +0.000 C 
ATOM      8  H   UNL     1      -4.298  14.453  20.627  0.00  0.00    +0.000 HD
ENDROOT
BRANCH   6   9
ATOM      9  C   UNL     1      -0.215  10.849  20.336  0.00  0.00    +0.000 A 
ATOM     10  C   UNL     1       0.179  10.930  18.983  0.00  0.00    +0.000 A 
ATOM     11  C   UNL     1       1.026   9.985  18.399  0.00  0.00    +0.000 A 
ATOM     12  C   UNL     1       1.497   8.920  19.158  0.00  0.00    +0.000 A 
ATOM     13  C   UNL     1       1.157   8.821  20.503  0.00  0.00    +0.000 A 
ATOM     14  C   UNL     1       0.333   9.787  21.081  0.00  0.00    +0.000 A 
BRANCH  12  15
ATOM     15  C   UNL     1       2.317   7.920  18.561  0.00  0.00    +0.000 C 
ATOM     16  C   UNL     1       2.990   7.068  18.053  0.00  0.00    +0.000 C 
BRANCH  16  17
ATOM     17  C   UNL     1       3.775   6.047  17.445  0.00  0.00    +0.000 A 
ATOM     18  C   UNL     1       3.435   4.707  17.638  0.00  0.00    +0.000 A 
ATOM     19  C   UNL     1       4.212   3.711  17.054  0.00  0.00    +0.000 A 
ATOM     20  C   UNL     1       5.321   4.058  16.281  0.00  0.00    +0.000 A 
ATOM     21  C   UNL     1       5.665   5.401  16.085  0.00  0.00    +0.000 A 
ATOM     22  C   UNL     1       4.884   6.396  16.669  0.00  0.00    +0.000 A 
BRANCH  21  23
ATOM     23  O   UNL     1       6.770   5.609  15.308  0.00  0.00    +0.000 OA
ATOM     24  C   UNL     1       6.920   4.759  14.175  0.00  0.00    +0.000 C 
ENDBRANCH  21  23
ENDBRANCH  16  17
ENDBRANCH  12  15
ENDBRANCH   6   9
BRANCH   5  25
ATOM     25  C   UNL     1       0.462  13.855  20.998  0.00  0.00    +0.000 C 
ATOM     26  N   UNL     1       1.416  14.311  20.521  0.00  0.00    +0.000 NA
ENDBRANCH   5  25
BRANCH   1  27
ATOM     27  C   UNL     1      -4.343  16.545  20.484  0.00  0.00    +0.000 C 
BRANCH  27  29
ATOM     28  C   UNL     1      -4.911  17.649  22.688  0.00  0.00    +0.000 C 
ATOM     29  C   UNL     1      -5.350  16.652  21.624  0.00  0.00    +0.000 C 
ENDBRANCH  27  29
ENDBRANCH   1  27
BRANCH   7  30
ATOM     30  C   UNL     1      -3.585  12.190  19.831  0.00  0.00    +0.000 C 
BRANCH  30  31
ATOM     31  O   UNL     1      -4.137  12.600  18.580  0.00  0.00    +0.000 OA
ATOM     32  H   UNL     1      -4.702  11.877  18.255  0.00  0.00    +0.000 HD
ENDBRANCH  30  31
ENDBRANCH   7  30
TORSDOF 9
ENDMDL
MODEL 8
REMARK VINA RESULT:      -6.6      3.487     11.540
REMARK  Name = 
REMARK  11 active torsions:
REMARK  status: ('A' for Active; 'I' for Inactive)
REMARK    1  A    between atoms: C_1  and  C_2
REMARK    2  A    between atoms: C_2  and  C_3
REMARK    3  A    between atoms: C_3  and  N_4
REMARK    4  A    between atoms: C_8  and  C_9
REMARK    5  A    between atoms: C_11  and  C_12
REMARK    6  A    between atoms: C_15  and  C_16
REMARK    7  A    between atoms: C_17  and  C_18
REMARK    8  A    between atoms: C_22  and  O_23
REMARK    9  A    between atoms: O_23  and  C_24
REMARK   10  A    between atoms: C_28  and  C_29
REMARK   11  A    between atoms: C_29  and  O_30
REMARK                            x       y       z     vdW  Elec       q    Type
REMARK                         _______ _______ _______ _____ _____    ______ ____
ROOT
ATOM      1  N   UNL     1       5.747   4.412  15.767  0.00  0.00    +0.000 N 
ATOM      2  C   UNL     1       4.654   4.012  16.489  0.00  0.00    +0.000 C 
ATOM      3  O   UNL     1       4.079   2.942  16.321  0.00  0.00    +0.000 OA
ATOM      4  N   UNL     1       4.274   4.896  17.454  0.00  0.00    +0.000 N 
ATOM      5  C   UNL     1       3.206   4.745  18.447  0.00  0.00    +0.000 C 
ATOM      6  C   UNL     1       3.616   6.174  18.912  0.00  0.00    +0.000 C 
ATOM      7  C   UNL     1       4.285   6.357  17.517  0.00  0.00    +0.000 C 
ATOM      8  H   UNL     1       6.414   4.926  16.335  0.00  0.00    +0.000 HD
ENDROOT
BRANCH   6   9
ATOM      9  C   UNL     1       2.541   7.237  19.401  0.00  0.00    +0.000 A 
ATOM     10  C   UNL     1       2.205   8.353  18.605  0.00  0.00    +0.000 A 
ATOM     11  C   UNL     1       1.307   9.331  19.039  0.00  0.00    +0.000 A 
ATOM     12  C   UNL     1       0.724   9.222  20.296  0.00  0.00    +0.000 A 
ATOM     13  C   UNL     1       1.005   8.121  21.099  0.00  0.00    +0.000 A 
ATOM     14  C   UNL     1       1.882   7.137  20.642  0.00  0.00    +0.000 A 
BRANCH  12  15
ATOM     15  C   UNL     1      -0.150  10.239  20.773  0.00  0.00    +0.000 C 
ATOM     16  C   UNL     1      -0.871  11.106  21.182  0.00  0.00    +0.000 C 
BRANCH  16  17
ATOM     17  C   UNL     1      -1.713  12.145  21.674  0.00  0.00    +0.000 A 
ATOM     18  C   UNL     1      -1.374  12.806  22.856  0.00  0.00    +0.000 A 
ATOM     19  C   UNL     1      -2.205  13.811  23.342  0.00  0.00    +0.000 A 
ATOM     20  C   UNL     1      -3.366  14.150  22.645  0.00  0.00    +0.000 A 
ATOM     21  C   UNL     1      -3.708  13.490  21.458  0.00  0.00    +0.000 A 
ATOM     22  C   UNL     1      -2.873  12.485  20.974  0.00  0.00    +0.000 A 
BRANCH  21  23
ATOM     23  O   UNL     1      -4.867  13.915  20.872  0.00  0.00    +0.000 OA
ATOM     24  C   UNL     1      -6.081  13.530  21.511  0.00  0.00    +0.000 C 
ENDBRANCH  21  23
ENDBRANCH  16  17
ENDBRANCH  12  15
ENDBRANCH   6   9
BRANCH   5  25
ATOM     25  C   UNL     1       1.877   4.551  17.893  0.00  0.00    +0.000 C 
ATOM     26  N   UNL     1       0.839   4.372  17.408  0.00  0.00    +0.000 NA
ENDBRANCH   5  25
BRANCH   1  27
ATOM     27  C   UNL     1       6.326   3.532  14.770  0.00  0.00    +0.000 C 
BRANCH  27  29
ATOM     28  C   UNL     1       5.907   3.261  12.290  0.00  0.00    +0.000 C 
ATOM     29  C   UNL     1       6.397   4.187  13.394  0.00  0.00    +0.000 C 
ENDBRANCH  27  29
ENDBRANCH   1  27
BRANCH   7  30
ATOM     30  C   UNL     1       5.657   7.012  17.491  0.00  0.00    +0.000 C 
BRANCH  30  31
ATOM     31  O   UNL     1       6.142   7.154  16.156  0.00  0.00    +0.000 OA
ATOM     32  H   UNL     1       6.896   6.548  16.049  0.00  0.00    +0.000 HD
ENDBRANCH  30  31
ENDBRANCH   7  30
TORSDOF 9
ENDMDL
MODEL 9
REMARK VINA RESULT:      -6.6      2.730      3.774
REMARK  Name = 
REMARK  11 active torsions:
REMARK  status: ('A' for Active; 'I' for Inactive)
REMARK    1  A    between atoms: C_1  and  C_2
REMARK    2  A    between atoms: C_2  and  C_3
REMARK    3  A    between atoms: C_3  and  N_4
REMARK    4  A    between atoms: C_8  and  C_9
REMARK    5  A    between atoms: C_11  and  C_12
REMARK    6  A    between atoms: C_15  and  C_16
REMARK    7  A    between atoms: C_17  and  C_18
REMARK    8  A    between atoms: C_22  and  O_23
REMARK    9  A    between atoms: O_23  and  C_24
REMARK   10  A    between atoms: C_28  and  C_29
REMARK   11  A    between atoms: C_29  and  O_30
REMARK                            x       y       z     vdW  Elec       q    Type
REMARK                         _______ _______ _______ _____ _____    ______ ____
ROOT
ATOM      1  N   UNL     1      -4.318  15.404  23.135  0.00  0.00    +0.000 N 
ATOM      2  C   UNL     1      -2.949  15.386  23.082  0.00  0.00    +0.000 C 
ATOM      3  O   UNL     1      -2.254  16.395  23.038  0.00  0.00    +0.000 OA
ATOM      4  N   UNL     1      -2.410  14.136  23.124  0.00  0.00    +0.000 N 
ATOM      5  C   UNL     1      -0.992  13.765  23.166  0.00  0.00    +0.000 C 
ATOM      6  C   UNL     1      -1.512  12.296  23.157  0.00  0.00    +0.000 C 
ATOM      7  C   UNL     1      -2.850  12.849  22.584  0.00  0.00    +0.000 C 
ATOM      8  H   UNL     1      -4.687  14.665  23.726  0.00  0.00    +0.000 HD
ENDROOT
BRANCH   6   9
ATOM      9  C   UNL     1      -0.751  11.142  22.372  0.00  0.00    +0.000 A 
ATOM     10  C   UNL     1      -0.132  10.078  23.062  0.00  0.00    +0.000 A 
ATOM     11  C   UNL     1       0.592   9.085  22.398  0.00  0.00    +0.000 A 
ATOM     12  C   UNL     1       0.725   9.136  21.015  0.00  0.00    +0.000 A 
ATOM     13  C   UNL     1       0.103  10.152  20.296  0.00  0.00    +0.000 A 
ATOM     14  C   UNL     1      -0.641  11.122  20.968  0.00  0.00    +0.000 A 
BRANCH  12  15
ATOM     15  C   UNL     1       1.505   8.161  20.332  0.00  0.00    +0.000 C 
ATOM     16  C   UNL     1       2.179   7.351  19.761  0.00  0.00    +0.000 C 
BRANCH  16  17
ATOM     17  C   UNL     1       2.996   6.396  19.088  0.00  0.00    +0.000 A 
ATOM     18  C   UNL     1       3.572   6.725  17.860  0.00  0.00    +0.000 A 
ATOM     19  C   UNL     1       4.357   5.786  17.198  0.00  0.00    +0.000 A 
ATOM     20  C   UNL     1       4.563   4.528  17.765  0.00  0.00    +0.000 A 
ATOM     21  C   UNL     1       3.987   4.195  18.998  0.00  0.00    +0.000 A 
ATOM     22  C   UNL     1       3.203   5.138  19.659  0.00  0.00    +0.000 A 
BRANCH  21  23
ATOM     23  O   UNL     1       4.265   2.934  19.446  0.00  0.00    +0.000 OA
ATOM     24  C   UNL     1       3.523   1.872  18.855  0.00  0.00    +0.000 C 
ENDBRANCH  21  23
ENDBRANCH  16  17
ENDBRANCH  12  15
ENDBRANCH   6   9
BRANCH   5  25
ATOM     25  C   UNL     1      -0.204  14.228  22.036  0.00  0.00    +0.000 C 
ATOM     26  N   UNL     1       0.434  14.644  21.162  0.00  0.00    +0.000 NA
ENDBRANCH   5  25
BRANCH   1  27
ATOM     27  C   UNL     1      -5.030  16.666  23.197  0.00  0.00    +0.000 C 
BRANCH  27  29
ATOM     28  C   UNL     1      -7.002  15.193  23.781  0.00  0.00    +0.000 C 
ATOM     29  C   UNL     1      -6.542  16.480  23.111  0.00  0.00    +0.000 C 
ENDBRANCH  27  29
ENDBRANCH   1  27
BRANCH   7  30
ATOM     30  C   UNL     1      -4.135  12.288  23.171  0.00  0.00    +0.000 C 
BRANCH  30  31
ATOM     31  O   UNL     1      -5.230  12.437  22.267  0.00  0.00    +0.000 OA
ATOM     32  H   UNL     1      -5.797  11.651  22.357  0.00  0.00    +0.000 HD
ENDBRANCH  30  31
ENDBRANCH   7  30
TORSDOF 9
ENDMDL
