MODEL 1
REMARK VINA RESULT:      -7.4      0.000      0.000
REMARK  Name = 
REMARK  5 active torsions:
REMARK  status: ('A' for Active; 'I' for Inactive)
REMARK    1  A    between atoms: C_1  and  O_2
REMARK    2  A    between atoms: O_2  and  C_3
REMARK    3  A    between atoms: C_3  and  C_5
REMARK    4  A    between atoms: N_12  and  C_13
REMARK    5  A    between atoms: C_13  and  C_14
REMARK                            x       y       z     vdW  Elec       q    Type
REMARK                         _______ _______ _______ _____ _____    ______ ____
ROOT
ATOM      1  C   UNL     1       8.211   8.892  18.166  0.00  0.00    +0.000 A 
ATOM      2  C   UNL     1       7.192   8.591  17.218  0.00  0.00    +0.000 A 
ATOM      3  C   UNL     1       6.915   7.246  17.375  0.00  0.00    +0.000 A 
ATOM      4  N   UNL     1       7.740   6.837  18.368  0.00  0.00    +0.000 N 
ATOM      5  N   UNL     1       8.539   7.789  18.868  0.00  0.00    +0.000 NA
ATOM      6  C   UNL     1       7.795   5.506  18.903  0.00  0.00    +0.000 C 
ATOM      7  C   UNL     1       6.853   4.534  18.197  0.00  0.00    +0.000 C 
ATOM      8  N   UNL     1       5.984   5.053  17.133  0.00  0.00    +0.000 N 
ATOM      9  C   UNL     1       5.992   6.378  16.698  0.00  0.00    +0.000 C 
ATOM     10  O   UNL     1       5.271   6.775  15.787  0.00  0.00    +0.000 OA
ENDROOT
BRANCH   1  11
ATOM     11  C   UNL     1       8.855  10.196  18.407  0.00  0.00    +0.000 C 
ATOM     12  O   UNL     1       8.654  11.183  17.712  0.00  0.00    +0.000 OA
BRANCH  11  14
ATOM     13  C   UNL     1      10.522  11.320  19.638  0.00  0.00    +0.000 C 
ATOM     14  O   UNL     1       9.689  10.174  19.492  0.00  0.00    +0.000 OA
ENDBRANCH  11  14
ENDBRANCH   1  11
BRANCH   8  15
ATOM     15  C   UNL     1       5.108   4.097  16.452  0.00  0.00    +0.000 C 
BRANCH  15  16
ATOM     16  C   UNL     1       3.873   3.738  17.251  0.00  0.00    +0.000 A 
ATOM     17  C   UNL     1       3.634   2.406  17.628  0.00  0.00    +0.000 A 
ATOM     18  C   UNL     1       2.471   2.058  18.319  0.00  0.00    +0.000 A 
ATOM     19  C   UNL     1       1.550   3.042  18.647  0.00  0.00    +0.000 A 
ATOM     20  F   UNL     1       0.421   2.706  19.286  0.00  0.00    +0.000 F 
ATOM     21  C   UNL     1       1.780   4.372  18.319  0.00  0.00    +0.000 A 
ATOM     22  C   UNL     1       2.939   4.722  17.622  0.00  0.00    +0.000 A 
ENDBRANCH  15  16
ENDBRANCH   8  15
TORSDOF 4
ENDMDL
MODEL 2
REMARK VINA RESULT:      -7.4      0.340      1.082
REMARK  Name = 
REMARK  5 active torsions:
REMARK  status: ('A' for Active; 'I' for Inactive)
REMARK    1  A    between atoms: C_1  and  O_2
REMARK    2  A    between atoms: O_2  and  C_3
REMARK    3  A    between atoms: C_3  and  C_5
REMARK    4  A    between atoms: N_12  and  C_13
REMARK    5  A    between atoms: C_13  and  C_14
REMARK                            x       y       z     vdW  Elec       q    Type
REMARK                         _______ _______ _______ _____ _____    ______ ____
ROOT
ATOM      1  C   UNL     1       8.351   8.809  18.302  0.00  0.00    +0.000 A 
ATOM      2  C   UNL     1       7.330   8.600  17.332  0.00  0.00    +0.000 A 
ATOM      3  C   UNL     1       6.973   7.270  17.438  0.00  0.00    +0.000 A 
ATOM      4  N   UNL     1       7.759   6.779  18.425  0.00  0.00    +0.000 N 
ATOM      5  N   UNL     1       8.605   7.665  18.968  0.00  0.00    +0.000 NA
ATOM      6  C   UNL     1       7.729   5.430  18.915  0.00  0.00    +0.000 C 
ATOM      7  C   UNL     1       6.742   4.540  18.164  0.00  0.00    +0.000 C 
ATOM      8  N   UNL     1       5.920   5.144  17.109  0.00  0.00    +0.000 N 
ATOM      9  C   UNL     1       6.011   6.481  16.720  0.00  0.00    +0.000 C 
ATOM     10  O   UNL     1       5.326   6.950  15.815  0.00  0.00    +0.000 OA
ENDROOT
BRANCH   1  11
ATOM     11  C   UNL     1       9.066  10.064  18.595  0.00  0.00    +0.000 C 
ATOM     12  O   UNL     1       9.413  10.858  17.730  0.00  0.00    +0.000 OA
BRANCH  11  14
ATOM     13  C   UNL     1       9.950  11.448  20.287  0.00  0.00    +0.000 C 
ATOM     14  O   UNL     1       9.289  10.237  19.934  0.00  0.00    +0.000 OA
ENDBRANCH  11  14
ENDBRANCH   1  11
BRANCH   8  15
ATOM     15  C   UNL     1       4.999   4.265  16.384  0.00  0.00    +0.000 C 
BRANCH  15  16
ATOM     16  C   UNL     1       3.770   3.891  17.185  0.00  0.00    +0.000 A 
ATOM     17  C   UNL     1       2.912   4.889  17.677  0.00  0.00    +0.000 A 
ATOM     18  C   UNL     1       1.805   4.555  18.462  0.00  0.00    +0.000 A 
ATOM     19  C   UNL     1       1.546   3.222  18.746  0.00  0.00    +0.000 A 
ATOM     20  F   UNL     1       0.501   2.902  19.521  0.00  0.00    +0.000 F 
ATOM     21  C   UNL     1       2.357   2.214  18.241  0.00  0.00    +0.000 A 
ATOM     22  C   UNL     1       3.468   2.545  17.461  0.00  0.00    +0.000 A 
ENDBRANCH  15  16
ENDBRANCH   8  15
TORSDOF 4
ENDMDL
MODEL 3
REMARK VINA RESULT:      -7.0      5.694      7.848
REMARK  Name = 
REMARK  5 active torsions:
REMARK  status: ('A' for Active; 'I' for Inactive)
REMARK    1  A    between atoms: C_1  and  O_2
REMARK    2  A    between atoms: O_2  and  C_3
REMARK    3  A    between atoms: C_3  and  C_5
REMARK    4  A    between atoms: N_12  and  C_13
REMARK    5  A    between atoms: C_13  and  C_14
REMARK                            x       y       z     vdW  Elec       q    Type
REMARK                         _______ _______ _______ _____ _____    ______ ____
ROOT
ATOM      1  C   UNL     1       3.251   5.162  19.263  0.00  0.00    +0.000 A 
ATOM      2  C   UNL     1       3.247   6.192  18.279  0.00  0.00    +0.000 A 
ATOM      3  C   UNL     1       2.491   7.220  18.810  0.00  0.00    +0.000 A 
ATOM      4  N   UNL     1       2.108   6.773  20.029  0.00  0.00    +0.000 N 
ATOM      5  N   UNL     1       2.536   5.542  20.340  0.00  0.00    +0.000 NA
ATOM      6  C   UNL     1       1.320   7.514  20.973  0.00  0.00    +0.000 C 
ATOM      7  C   UNL     1       0.880   8.878  20.450  0.00  0.00    +0.000 C 
ATOM      8  N   UNL     1       1.340   9.297  19.120  0.00  0.00    +0.000 N 
ATOM      9  C   UNL     1       2.127   8.506  18.283  0.00  0.00    +0.000 C 
ATOM     10  O   UNL     1       2.474   8.875  17.164  0.00  0.00    +0.000 OA
ENDROOT
BRANCH   1  11
ATOM     11  C   UNL     1       3.921   3.852  19.186  0.00  0.00    +0.000 C 
ATOM     12  O   UNL     1       5.136   3.715  19.231  0.00  0.00    +0.000 OA
BRANCH  11  14
ATOM     13  C   UNL     1       2.585   2.554  17.741  0.00  0.00    +0.000 C 
ATOM     14  O   UNL     1       3.032   2.818  19.067  0.00  0.00    +0.000 OA
ENDBRANCH  11  14
ENDBRANCH   1  11
BRANCH   8  15
ATOM     15  C   UNL     1       0.885  10.599  18.627  0.00  0.00    +0.000 C 
BRANCH  15  16
ATOM     16  C   UNL     1      -0.611  10.669  18.408  0.00  0.00    +0.000 A 
ATOM     17  C   UNL     1      -1.235   9.810  17.487  0.00  0.00    +0.000 A 
ATOM     18  C   UNL     1      -2.607   9.904  17.239  0.00  0.00    +0.000 A 
ATOM     19  C   UNL     1      -3.361  10.848  17.921  0.00  0.00    +0.000 A 
ATOM     20  F   UNL     1      -4.672  10.957  17.665  0.00  0.00    +0.000 F 
ATOM     21  C   UNL     1      -2.776  11.683  18.864  0.00  0.00    +0.000 A 
ATOM     22  C   UNL     1      -1.404  11.596  19.108  0.00  0.00    +0.000 A 
ENDBRANCH  15  16
ENDBRANCH   8  15
TORSDOF 4
ENDMDL
MODEL 4
REMARK VINA RESULT:      -6.9      5.974      7.741
REMARK  Name = 
REMARK  5 active torsions:
REMARK  status: ('A' for Active; 'I' for Inactive)
REMARK    1  A    between atoms: C_1  and  O_2
REMARK    2  A    between atoms: O_2  and  C_3
REMARK    3  A    between atoms: C_3  and  C_5
REMARK    4  A    between atoms: N_12  and  C_13
REMARK    5  A    between atoms: C_13  and  C_14
REMARK                            x       y       z     vdW  Elec       q    Type
REMARK                         _______ _______ _______ _____ _____    ______ ____
ROOT
ATOM      1  C   UNL     1       3.164   5.794  19.330  0.00  0.00    +0.000 A 
ATOM      2  C   UNL     1       3.052   6.822  18.350  0.00  0.00    +0.000 A 
ATOM      3  C   UNL     1       2.238   7.789  18.909  0.00  0.00    +0.000 A 
ATOM      4  N   UNL     1       1.928   7.313  20.138  0.00  0.00    +0.000 N 
ATOM      5  N   UNL     1       2.457   6.118  20.431  0.00  0.00    +0.000 NA
ATOM      6  C   UNL     1       1.117   7.991  21.108  0.00  0.00    +0.000 C 
ATOM      7  C   UNL     1       0.559   9.319  20.603  0.00  0.00    +0.000 C 
ATOM      8  N   UNL     1       0.944   9.773  19.262  0.00  0.00    +0.000 N 
ATOM      9  C   UNL     1       1.761   9.044  18.398  0.00  0.00    +0.000 C 
ATOM     10  O   UNL     1       2.044   9.440  17.270  0.00  0.00    +0.000 OA
ENDROOT
BRANCH   1  11
ATOM     11  C   UNL     1       3.928   4.538  19.228  0.00  0.00    +0.000 C 
ATOM     12  O   UNL     1       3.599   3.503  19.793  0.00  0.00    +0.000 OA
BRANCH  11  14
ATOM     13  C   UNL     1       6.201   5.148  19.087  0.00  0.00    +0.000 C 
ATOM     14  O   UNL     1       5.034   4.663  18.431  0.00  0.00    +0.000 OA
ENDBRANCH  11  14
ENDBRANCH   1  11
BRANCH   8  15
ATOM     15  C   UNL     1       0.376  11.037  18.788  0.00  0.00    +0.000 C 
BRANCH  15  16
ATOM     16  C   UNL     1      -1.090  10.939  18.423  0.00  0.00    +0.000 A 
ATOM     17  C   UNL     1      -1.519  10.020  17.450  0.00  0.00    +0.000 A 
ATOM     18  C   UNL     1      -2.862   9.959  17.068  0.00  0.00    +0.000 A 
ATOM     19  C   UNL     1      -3.781  10.808  17.668  0.00  0.00    +0.000 A 
ATOM     20  F   UNL     1      -5.065  10.770  17.284  0.00  0.00    +0.000 F 
ATOM     21  C   UNL     1      -3.390  11.700  18.658  0.00  0.00    +0.000 A 
ATOM     22  C   UNL     1      -2.047  11.766  19.037  0.00  0.00    +0.000 A 
ENDBRANCH  15  16
ENDBRANCH   8  15
TORSDOF 4
ENDMDL
MODEL 5
REMARK VINA RESULT:      -6.9      5.885      8.034
REMARK  Name = 
REMARK  5 active torsions:
REMARK  status: ('A' for Active; 'I' for Inactive)
REMARK    1  A    between atoms: C_1  and  O_2
REMARK    2  A    between atoms: O_2  and  C_3
REMARK    3  A    between atoms: C_3  and  C_5
REMARK    4  A    between atoms: N_12  and  C_13
REMARK    5  A    between atoms: C_13  and  C_14
REMARK                            x       y       z     vdW  Elec       q    Type
REMARK                         _______ _______ _______ _____ _____    ______ ____
ROOT
ATOM      1  C   UNL     1       3.081   5.508  19.378  0.00  0.00    +0.000 A 
ATOM      2  C   UNL     1       3.016   6.517  18.376  0.00  0.00    +0.000 A 
ATOM      3  C   UNL     1       2.266   7.543  18.920  0.00  0.00    +0.000 A 
ATOM      4  N   UNL     1       1.945   7.114  20.164  0.00  0.00    +0.000 N 
ATOM      5  N   UNL     1       2.408   5.897  20.479  0.00  0.00    +0.000 NA
ATOM      6  C   UNL     1       1.187   7.861  21.127  0.00  0.00    +0.000 C 
ATOM      7  C   UNL     1       0.700   9.206  20.597  0.00  0.00    +0.000 C 
ATOM      8  N   UNL     1       1.093   9.606  19.240  0.00  0.00    +0.000 N 
ATOM      9  C   UNL     1       1.856   8.811  18.385  0.00  0.00    +0.000 C 
ATOM     10  O   UNL     1       2.146   9.163  17.245  0.00  0.00    +0.000 OA
ENDROOT
BRANCH   1  11
ATOM     11  C   UNL     1       3.770   4.207  19.298  0.00  0.00    +0.000 C 
ATOM     12  O   UNL     1       4.908   4.075  18.864  0.00  0.00    +0.000 OA
BRANCH  11  14
ATOM     13  C   UNL     1       2.263   2.473  18.772  0.00  0.00    +0.000 C 
ATOM     14  O   UNL     1       2.999   3.178  19.767  0.00  0.00    +0.000 OA
ENDBRANCH  11  14
ENDBRANCH   1  11
BRANCH   8  15
ATOM     15  C   UNL     1       0.592  10.890  18.743  0.00  0.00    +0.000 C 
BRANCH  15  16
ATOM     16  C   UNL     1      -0.880  10.866  18.391  0.00  0.00    +0.000 A 
ATOM     17  C   UNL     1      -1.769  11.770  18.997  0.00  0.00    +0.000 A 
ATOM     18  C   UNL     1      -3.137  11.719  18.718  0.00  0.00    +0.000 A 
ATOM     19  C   UNL     1      -3.618  10.775  17.823  0.00  0.00    +0.000 A 
ATOM     20  F   UNL     1      -4.933  10.708  17.575  0.00  0.00    +0.000 F 
ATOM     21  C   UNL     1      -2.755   9.895  17.182  0.00  0.00    +0.000 A 
ATOM     22  C   UNL     1      -1.388   9.939  17.464  0.00  0.00    +0.000 A 
ENDBRANCH  15  16
ENDBRANCH   8  15
TORSDOF 4
ENDMDL
MODEL 6
REMARK VINA RESULT:      -6.8      5.666      6.881
REMARK  Name = 
REMARK  5 active torsions:
REMARK  status: ('A' for Active; 'I' for Inactive)
REMARK    1  A    between atoms: C_1  and  O_2
REMARK    2  A    between atoms: O_2  and  C_3
REMARK    3  A    between atoms: C_3  and  C_5
REMARK    4  A    between atoms: N_12  and  C_13
REMARK    5  A    between atoms: C_13  and  C_14
REMARK                            x       y       z     vdW  Elec       q    Type
REMARK                         _______ _______ _______ _____ _____    ______ ____
ROOT
ATOM      1  C   UNL     1       0.689   9.905  21.308  0.00  0.00    +0.000 A 
ATOM      2  C   UNL     1       0.936   8.525  21.558  0.00  0.00    +0.000 A 
ATOM      3  C   UNL     1       1.429   8.009  20.375  0.00  0.00    +0.000 A 
ATOM      4  N   UNL     1       1.455   9.061  19.523  0.00  0.00    +0.000 N 
ATOM      5  N   UNL     1       1.015  10.217  20.038  0.00  0.00    +0.000 NA
ATOM      6  C   UNL     1       1.922   9.017  18.166  0.00  0.00    +0.000 C 
ATOM      7  C   UNL     1       2.349   7.621  17.722  0.00  0.00    +0.000 C 
ATOM      8  N   UNL     1       2.298   6.530  18.703  0.00  0.00    +0.000 N 
ATOM      9  C   UNL     1       1.845   6.682  20.014  0.00  0.00    +0.000 C 
ATOM     10  O   UNL     1       1.790   5.743  20.803  0.00  0.00    +0.000 OA
ENDROOT
BRANCH   1  11
ATOM     11  C   UNL     1       0.162  10.907  22.252  0.00  0.00    +0.000 C 
ATOM     12  O   UNL     1      -0.398  10.614  23.301  0.00  0.00    +0.000 OA
BRANCH  11  14
ATOM     13  C   UNL     1      -0.670  13.109  22.124  0.00  0.00    +0.000 C 
ATOM     14  O   UNL     1       0.376  12.189  21.825  0.00  0.00    +0.000 OA
ENDBRANCH  11  14
ENDBRANCH   1  11
BRANCH   8  15
ATOM     15  C   UNL     1       2.687   5.193  18.248  0.00  0.00    +0.000 C 
BRANCH  15  16
ATOM     16  C   UNL     1       4.181   5.031  18.066  0.00  0.00    +0.000 A 
ATOM     17  C   UNL     1       4.702   4.576  16.843  0.00  0.00    +0.000 A 
ATOM     18  C   UNL     1       6.075   4.373  16.684  0.00  0.00    +0.000 A 
ATOM     19  C   UNL     1       6.932   4.636  17.743  0.00  0.00    +0.000 A 
ATOM     20  F   UNL     1       8.246   4.417  17.601  0.00  0.00    +0.000 F 
ATOM     21  C   UNL     1       6.446   5.123  18.950  0.00  0.00    +0.000 A 
ATOM     22  C   UNL     1       5.073   5.321  19.114  0.00  0.00    +0.000 A 
ENDBRANCH  15  16
ENDBRANCH   8  15
TORSDOF 4
ENDMDL
MODEL 7
REMARK VINA RESULT:      -6.8      5.900      7.791
REMARK  Name = 
REMARK  5 active torsions:
REMARK  status: ('A' for Active; 'I' for Inactive)
REMARK    1  A    between atoms: C_1  and  O_2
REMARK    2  A    between atoms: O_2  and  C_3
REMARK    3  A    between atoms: C_3  and  C_5
REMARK    4  A    between atoms: N_12  and  C_13
REMARK    5  A    between atoms: C_13  and  C_14
REMARK                            x       y       z     vdW  Elec       q    Type
REMARK                         _______ _______ _______ _____ _____    ______ ____
ROOT
ATOM      1  C   UNL     1       3.133   5.648  19.274  0.00  0.00    +0.000 A 
ATOM      2  C   UNL     1       3.048   6.677  18.292  0.00  0.00    +0.000 A 
ATOM      3  C   UNL     1       2.269   7.671  18.853  0.00  0.00    +0.000 A 
ATOM      4  N   UNL     1       1.950   7.207  20.085  0.00  0.00    +0.000 N 
ATOM      5  N   UNL     1       2.442   5.996  20.377  0.00  0.00    +0.000 NA
ATOM      6  C   UNL     1       1.166   7.913  21.058  0.00  0.00    +0.000 C 
ATOM      7  C   UNL     1       0.649   9.257  20.553  0.00  0.00    +0.000 C 
ATOM      8  N   UNL     1       1.040   9.695  19.208  0.00  0.00    +0.000 N 
ATOM      9  C   UNL     1       1.830   8.939  18.342  0.00  0.00    +0.000 C 
ATOM     10  O   UNL     1       2.118   9.323  17.212  0.00  0.00    +0.000 OA
ENDROOT
BRANCH   1  11
ATOM     11  C   UNL     1       3.856   4.368  19.171  0.00  0.00    +0.000 C 
ATOM     12  O   UNL     1       3.682   3.433  19.942  0.00  0.00    +0.000 OA
BRANCH  11  14
ATOM     13  C   UNL     1       6.078   4.671  18.444  0.00  0.00    +0.000 C 
ATOM     14  O   UNL     1       4.730   4.346  18.118  0.00  0.00    +0.000 OA
ENDBRANCH  11  14
ENDBRANCH   1  11
BRANCH   8  15
ATOM     15  C   UNL     1       0.511  10.977  18.735  0.00  0.00    +0.000 C 
BRANCH  15  16
ATOM     16  C   UNL     1      -0.961  10.926  18.386  0.00  0.00    +0.000 A 
ATOM     17  C   UNL     1      -1.870  11.794  19.015  0.00  0.00    +0.000 A 
ATOM     18  C   UNL     1      -3.238  11.719  18.738  0.00  0.00    +0.000 A 
ATOM     19  C   UNL     1      -3.698  10.784  17.821  0.00  0.00    +0.000 A 
ATOM     20  F   UNL     1      -5.012  10.692  17.575  0.00  0.00    +0.000 F 
ATOM     21  C   UNL     1      -2.817   9.940  17.158  0.00  0.00    +0.000 A 
ATOM     22  C   UNL     1      -1.450  10.010  17.438  0.00  0.00    +0.000 A 
ENDBRANCH  15  16
ENDBRANCH   8  15
TORSDOF 4
ENDMDL
MODEL 8
REMARK VINA RESULT:      -6.8      6.179      7.519
REMARK  Name = 
REMARK  5 active torsions:
REMARK  status: ('A' for Active; 'I' for Inactive)
REMARK    1  A    between atoms: C_1  and  O_2
REMARK    2  A    between atoms: O_2  and  C_3
REMARK    3  A    between atoms: C_3  and  C_5
REMARK    4  A    between atoms: N_12  and  C_13
REMARK    5  A    between atoms: C_13  and  C_14
REMARK                            x       y       z     vdW  Elec       q    Type
REMARK                         _______ _______ _______ _____ _____    ______ ____
ROOT
ATOM      1  C   UNL     1      -0.737  11.351  19.741  0.00  0.00    +0.000 A 
ATOM      2  C   UNL     1      -0.303  10.385  20.693  0.00  0.00    +0.000 A 
ATOM      3  C   UNL     1       0.583   9.564  20.022  0.00  0.00    +0.000 A 
ATOM      4  N   UNL     1       0.634  10.065  18.765  0.00  0.00    +0.000 N 
ATOM      5  N   UNL     1      -0.145  11.133  18.550  0.00  0.00    +0.000 NA
ATOM      6  C   UNL     1       1.452   9.552  17.702  0.00  0.00    +0.000 C 
ATOM      7  C   UNL     1       2.246   8.311  18.099  0.00  0.00    +0.000 C 
ATOM      8  N   UNL     1       2.143   7.830  19.482  0.00  0.00    +0.000 N 
ATOM      9  C   UNL     1       1.331   8.416  20.452  0.00  0.00    +0.000 C 
ATOM     10  O   UNL     1       1.248   7.973  21.595  0.00  0.00    +0.000 OA
ENDROOT
BRANCH   1  11
ATOM     11  C   UNL     1      -1.685  12.459  19.956  0.00  0.00    +0.000 C 
ATOM     12  O   UNL     1      -1.349  13.559  20.376  0.00  0.00    +0.000 OA
BRANCH  11  14
ATOM     13  C   UNL     1      -3.983  12.856  20.303  0.00  0.00    +0.000 C 
ATOM     14  O   UNL     1      -2.969  12.118  19.627  0.00  0.00    +0.000 OA
ENDBRANCH  11  14
ENDBRANCH   1  11
BRANCH   8  15
ATOM     15  C   UNL     1       2.894   6.622  19.834  0.00  0.00    +0.000 C 
BRANCH  15  16
ATOM     16  C   UNL     1       2.170   5.340  19.482  0.00  0.00    +0.000 A 
ATOM     17  C   UNL     1       1.487   4.615  20.474  0.00  0.00    +0.000 A 
ATOM     18  C   UNL     1       0.861   3.404  20.168  0.00  0.00    +0.000 A 
ATOM     19  C   UNL     1       0.905   2.920  18.868  0.00  0.00    +0.000 A 
ATOM     20  F   UNL     1       0.328   1.746  18.580  0.00  0.00    +0.000 F 
ATOM     21  C   UNL     1       1.541   3.636  17.862  0.00  0.00    +0.000 A 
ATOM     22  C   UNL     1       2.173   4.844  18.166  0.00  0.00    +0.000 A 
ENDBRANCH  15  16
ENDBRANCH   8  15
TORSDOF 4
ENDMDL
MODEL 9
REMARK VINA RESULT:      -6.7      6.042      7.369
REMARK  Name = 
REMARK  5 active torsions:
REMARK  status: ('A' for Active; 'I' for Inactive)
REMARK    1  A    between atoms: C_1  and  O_2
REMARK    2  A    between atoms: O_2  and  C_3
REMARK    3  A    between atoms: C_3  and  C_5
REMARK    4  A    between atoms: N_12  and  C_13
REMARK    5  A    between atoms: C_13  and  C_14
REMARK                            x       y       z     vdW  Elec       q    Type
REMARK                         _______ _______ _______ _____ _____    ______ ____
ROOT
ATOM      1  C   UNL     1       0.219  10.134  21.393  0.00  0.00    +0.000 A 
ATOM      2  C   UNL     1       0.679   8.792  21.511  0.00  0.00    +0.000 A 
ATOM      3  C   UNL     1       1.265   8.484  20.298  0.00  0.00    +0.000 A 
ATOM      4  N   UNL     1       1.136   9.610  19.557  0.00  0.00    +0.000 N 
ATOM      5  N   UNL     1       0.511  10.622  20.170  0.00  0.00    +0.000 NA
ATOM      6  C   UNL     1       1.625   9.779  18.218  0.00  0.00    +0.000 C 
ATOM      7  C   UNL     1       2.274   8.520  17.650  0.00  0.00    +0.000 C 
ATOM      8  N   UNL     1       2.383   7.340  18.516  0.00  0.00    +0.000 N 
ATOM      9  C   UNL     1       1.892   7.283  19.820  0.00  0.00    +0.000 C 
ATOM     10  O   UNL     1       1.975   6.271  20.510  0.00  0.00    +0.000 OA
ENDROOT
BRANCH   1  11
ATOM     11  C   UNL     1      -0.475  10.938  22.415  0.00  0.00    +0.000 C 
ATOM     12  O   UNL     1      -0.690  10.539  23.552  0.00  0.00    +0.000 OA
BRANCH  11  14
ATOM     13  C   UNL     1      -1.158  13.129  22.955  0.00  0.00    +0.000 C 
ATOM     14  O   UNL     1      -0.839  12.173  21.949  0.00  0.00    +0.000 OA
ENDBRANCH  11  14
ENDBRANCH   1  11
BRANCH   8  15
ATOM     15  C   UNL     1       2.986   6.134  17.942  0.00  0.00    +0.000 C 
BRANCH  15  16
ATOM     16  C   UNL     1       4.486   6.066  18.130  0.00  0.00    +0.000 A 
ATOM     17  C   UNL     1       5.036   5.317  19.185  0.00  0.00    +0.000 A 
ATOM     18  C   UNL     1       6.417   5.292  19.398  0.00  0.00    +0.000 A 
ATOM     19  C   UNL     1       7.253   6.003  18.549  0.00  0.00    +0.000 A 
ATOM     20  F   UNL     1       8.574   6.001  18.768  0.00  0.00    +0.000 F 
ATOM     21  C   UNL     1       6.738   6.720  17.477  0.00  0.00    +0.000 A 
ATOM     22  C   UNL     1       5.357   6.752  17.266  0.00  0.00    +0.000 A 
ENDBRANCH  15  16
ENDBRANCH   8  15
TORSDOF 4
ENDMDL
