MODEL 1
REMARK VINA RESULT:      -8.1      0.000      0.000
REMARK  Name = 
REMARK  6 active torsions:
REMARK  status: ('A' for Active; 'I' for Inactive)
REMARK    1  A    between atoms: C_1  and  C_2
REMARK    2  A    between atoms: N_4  and  C_5
REMARK    3  A    between atoms: C_8  and  N_9
REMARK    4  A    between atoms: C_10  and  C_12
REMARK    5  A    between atoms: N_16  and  C_17
REMARK    6  A    between atoms: C_17  and  C_18
REMARK                            x       y       z     vdW  Elec       q    Type
REMARK                         _______ _______ _______ _____ _____    ______ ____
ROOT
ATOM      1  N   UNL     1       5.546   4.374  19.006  0.00  0.00    +0.000 N 
ATOM      2  C   UNL     1       4.907   3.529  18.104  0.00  0.00    +0.000 C 
ATOM      3  O   UNL     1       4.887   3.688  16.885  0.00  0.00    +0.000 OA
ATOM      4  H   UNL     1       5.594   4.099  19.978  0.00  0.00    +0.000 HD
ENDROOT
BRANCH   1   8
ATOM      5  C   UNL     1       7.779   7.830  17.948  0.00  0.00    +0.000 A 
ATOM      6  C   UNL     1       8.284   6.913  18.862  0.00  0.00    +0.000 A 
ATOM      7  C   UNL     1       7.568   5.765  19.194  0.00  0.00    +0.000 A 
ATOM      8  C   UNL     1       6.320   5.503  18.636  0.00  0.00    +0.000 A 
ATOM      9  C   UNL     1       5.815   6.404  17.692  0.00  0.00    +0.000 A 
ATOM     10  C   UNL     1       6.531   7.574  17.368  0.00  0.00    +0.000 A 
BRANCH   5  14
ATOM     11  C   UNL     1       9.551  11.157  17.829  0.00  0.00    +0.000 C 
ATOM     12  C   UNL     1       8.965   9.947  18.502  0.00  0.00    +0.000 C 
ATOM     13  O   UNL     1       8.962   9.866  19.727  0.00  0.00    +0.000 OA
ATOM     14  N   UNL     1       8.473   9.010  17.605  0.00  0.00    +0.000 N 
ATOM     15  H   UNL     1       8.689   9.145  16.626  0.00  0.00    +0.000 HD
ENDBRANCH   5  14
ENDBRANCH   1   8
BRANCH   2  16
ATOM     16  C   UNL     1       4.173   2.342  18.729  0.00  0.00    +0.000 C 
ATOM     17  C   UNL     1       2.921   1.949  17.953  0.00  0.00    +0.000 C 
ATOM     18  C   UNL     1       1.879   2.871  18.525  0.00  0.00    +0.000 C 
ATOM     19  O   UNL     1       0.840   3.176  17.964  0.00  0.00    +0.000 OA
ATOM     20  N   UNL     1       2.306   3.264  19.780  0.00  0.00    +0.000 N 
ATOM     21  C   UNL     1       3.606   2.726  20.101  0.00  0.00    +0.000 C 
BRANCH  20  22
ATOM     22  C   UNL     1       1.612   4.221  20.626  0.00  0.00    +0.000 C 
BRANCH  22  23
ATOM     23  C   UNL     1       1.807   5.661  20.216  0.00  0.00    +0.000 A 
ATOM     24  C   UNL     1       2.368   5.982  18.972  0.00  0.00    +0.000 A 
ATOM     25  C   UNL     1       2.456   7.312  18.552  0.00  0.00    +0.000 A 
ATOM     26  C   UNL     1       1.990   8.337  19.373  0.00  0.00    +0.000 A 
ATOM     27  C   UNL     1       1.443   8.034  20.617  0.00  0.00    +0.000 A 
ATOM     28  C   UNL     1       1.350   6.706  21.035  0.00  0.00    +0.000 A 
ENDBRANCH  22  23
ENDBRANCH  20  22
ENDBRANCH   2  16
TORSDOF 5
ENDMDL
MODEL 2
REMARK VINA RESULT:      -8.0      2.210      4.508
REMARK  Name = 
REMARK  6 active torsions:
REMARK  status: ('A' for Active; 'I' for Inactive)
REMARK    1  A    between atoms: C_1  and  C_2
REMARK    2  A    between atoms: N_4  and  C_5
REMARK    3  A    between atoms: C_8  and  N_9
REMARK    4  A    between atoms: C_10  and  C_12
REMARK    5  A    between atoms: N_16  and  C_17
REMARK    6  A    between atoms: C_17  and  C_18
REMARK                            x       y       z     vdW  Elec       q    Type
REMARK                         _______ _______ _______ _____ _____    ______ ____
ROOT
ATOM      1  N   UNL     1       8.382   7.969  18.942  0.00  0.00    +0.000 N 
ATOM      2  C   UNL     1       7.857   7.140  17.957  0.00  0.00    +0.000 C 
ATOM      3  O   UNL     1       7.580   7.496  16.813  0.00  0.00    +0.000 OA
ATOM      4  H   UNL     1       8.675   7.557  19.818  0.00  0.00    +0.000 HD
ENDROOT
BRANCH   1   8
ATOM      5  C   UNL     1       9.315  12.075  18.379  0.00  0.00    +0.000 A 
ATOM      6  C   UNL     1       9.950  11.335  19.368  0.00  0.00    +0.000 A 
ATOM      7  C   UNL     1       9.667   9.982  19.542  0.00  0.00    +0.000 A 
ATOM      8  C   UNL     1       8.731   9.329  18.744  0.00  0.00    +0.000 A 
ATOM      9  C   UNL     1       8.108  10.058  17.725  0.00  0.00    +0.000 A 
ATOM     10  C   UNL     1       8.382  11.430  17.560  0.00  0.00    +0.000 A 
BRANCH   5  14
ATOM     11  C   UNL     1      10.681  15.484  17.518  0.00  0.00    +0.000 C 
ATOM     12  C   UNL     1      10.598  13.985  17.428  0.00  0.00    +0.000 C 
ATOM     13  O   UNL     1      11.392  13.366  16.728  0.00  0.00    +0.000 OA
ATOM     14  N   UNL     1       9.568  13.451  18.191  0.00  0.00    +0.000 N 
ATOM     15  H   UNL     1       8.899  14.098  18.588  0.00  0.00    +0.000 HD
ENDBRANCH   5  14
ENDBRANCH   1   8
BRANCH   2  16
ATOM     16  C   UNL     1       7.606   5.693  18.386  0.00  0.00    +0.000 C 
ATOM     17  C   UNL     1       7.332   4.769  17.205  0.00  0.00    +0.000 C 
ATOM     18  C   UNL     1       5.853   4.942  16.990  0.00  0.00    +0.000 C 
ATOM     19  O   UNL     1       5.271   4.699  15.946  0.00  0.00    +0.000 OA
ATOM     20  N   UNL     1       5.303   5.387  18.179  0.00  0.00    +0.000 N 
ATOM     21  C   UNL     1       6.307   5.593  19.195  0.00  0.00    +0.000 C 
BRANCH  20  22
ATOM     22  C   UNL     1       3.907   5.750  18.357  0.00  0.00    +0.000 C 
BRANCH  22  23
ATOM     23  C   UNL     1       3.085   4.707  19.075  0.00  0.00    +0.000 A 
ATOM     24  C   UNL     1       2.288   5.056  20.174  0.00  0.00    +0.000 A 
ATOM     25  C   UNL     1       1.451   4.111  20.775  0.00  0.00    +0.000 A 
ATOM     26  C   UNL     1       1.406   2.806  20.288  0.00  0.00    +0.000 A 
ATOM     27  C   UNL     1       2.201   2.442  19.204  0.00  0.00    +0.000 A 
ATOM     28  C   UNL     1       3.033   3.386  18.601  0.00  0.00    +0.000 A 
ENDBRANCH  22  23
ENDBRANCH  20  22
ENDBRANCH   2  16
TORSDOF 5
ENDMDL
MODEL 3
REMARK VINA RESULT:      -7.9      2.240      4.576
REMARK  Name = 
REMARK  6 active torsions:
REMARK  status: ('A' for Active; 'I' for Inactive)
REMARK    1  A    between atoms: C_1  and  C_2
REMARK    2  A    between atoms: N_4  and  C_5
REMARK    3  A    between atoms: C_8  and  N_9
REMARK    4  A    between atoms: C_10  and  C_12
REMARK    5  A    between atoms: N_16  and  C_17
REMARK    6  A    between atoms: C_17  and  C_18
REMARK                            x       y       z     vdW  Elec       q    Type
REMARK                         _______ _______ _______ _____ _____    ______ ____
ROOT
ATOM      1  N   UNL     1       8.387   8.024  18.907  0.00  0.00    +0.000 N 
ATOM      2  C   UNL     1       7.830   7.194  17.940  0.00  0.00    +0.000 C 
ATOM      3  O   UNL     1       7.483   7.557  16.818  0.00  0.00    +0.000 OA
ATOM      4  H   UNL     1       8.738   7.608  19.760  0.00  0.00    +0.000 HD
ENDROOT
BRANCH   1   8
ATOM      5  C   UNL     1       9.416  12.097  18.273  0.00  0.00    +0.000 A 
ATOM      6  C   UNL     1       8.425  11.491  17.511  0.00  0.00    +0.000 A 
ATOM      7  C   UNL     1       8.065  10.163  17.731  0.00  0.00    +0.000 A 
ATOM      8  C   UNL     1       8.693   9.394  18.707  0.00  0.00    +0.000 A 
ATOM      9  C   UNL     1       9.672  10.003  19.501  0.00  0.00    +0.000 A 
ATOM     10  C   UNL     1      10.047  11.341  19.268  0.00  0.00    +0.000 A 
BRANCH   5  14
ATOM     11  C   UNL     1      11.119  15.327  17.328  0.00  0.00    +0.000 C 
ATOM     12  C   UNL     1      10.865  13.847  17.255  0.00  0.00    +0.000 C 
ATOM     13  O   UNL     1      11.557  13.140  16.528  0.00  0.00    +0.000 OA
ATOM     14  N   UNL     1       9.814  13.435  18.062  0.00  0.00    +0.000 N 
ATOM     15  H   UNL     1       9.239  14.154  18.480  0.00  0.00    +0.000 HD
ENDBRANCH   5  14
ENDBRANCH   1   8
BRANCH   2  16
ATOM     16  C   UNL     1       7.638   5.736  18.363  0.00  0.00    +0.000 C 
ATOM     17  C   UNL     1       7.402   4.807  17.178  0.00  0.00    +0.000 C 
ATOM     18  C   UNL     1       5.916   4.921  16.964  0.00  0.00    +0.000 C 
ATOM     19  O   UNL     1       5.345   4.659  15.919  0.00  0.00    +0.000 OA
ATOM     20  N   UNL     1       5.350   5.338  18.155  0.00  0.00    +0.000 N 
ATOM     21  C   UNL     1       6.344   5.580  19.171  0.00  0.00    +0.000 C 
BRANCH  20  22
ATOM     22  C   UNL     1       3.940   5.643  18.335  0.00  0.00    +0.000 C 
BRANCH  22  23
ATOM     23  C   UNL     1       3.182   4.612  19.136  0.00  0.00    +0.000 A 
ATOM     24  C   UNL     1       3.082   3.288  18.685  0.00  0.00    +0.000 A 
ATOM     25  C   UNL     1       2.467   2.312  19.475  0.00  0.00    +0.000 A 
ATOM     26  C   UNL     1       1.941   2.649  20.720  0.00  0.00    +0.000 A 
ATOM     27  C   UNL     1       2.023   3.963  21.175  0.00  0.00    +0.000 A 
ATOM     28  C   UNL     1       2.640   4.936  20.389  0.00  0.00    +0.000 A 
ENDBRANCH  22  23
ENDBRANCH  20  22
ENDBRANCH   2  16
TORSDOF 5
ENDMDL
MODEL 4
REMARK VINA RESULT:      -7.9      2.234      4.364
REMARK  Name = 
REMARK  6 active torsions:
REMARK  status: ('A' for Active; 'I' for Inactive)
REMARK    1  A    between atoms: C_1  and  C_2
REMARK    2  A    between atoms: N_4  and  C_5
REMARK    3  A    between atoms: C_8  and  N_9
REMARK    4  A    between atoms: C_10  and  C_12
REMARK    5  A    between atoms: N_16  and  C_17
REMARK    6  A    between atoms: C_17  and  C_18
REMARK                            x       y       z     vdW  Elec       q    Type
REMARK                         _______ _______ _______ _____ _____    ______ ____
ROOT
ATOM      1  N   UNL     1       8.186   8.004  18.867  0.00  0.00    +0.000 N 
ATOM      2  C   UNL     1       7.859   7.112  17.851  0.00  0.00    +0.000 C 
ATOM      3  O   UNL     1       7.868   7.380  16.651  0.00  0.00    +0.000 OA
ATOM      4  H   UNL     1       8.252   7.657  19.815  0.00  0.00    +0.000 HD
ENDROOT
BRANCH   1   8
ATOM      5  C   UNL     1       9.432  12.021  18.272  0.00  0.00    +0.000 A 
ATOM      6  C   UNL     1      10.081  11.209  19.194  0.00  0.00    +0.000 A 
ATOM      7  C   UNL     1       9.693   9.883  19.376  0.00  0.00    +0.000 A 
ATOM      8  C   UNL     1       8.638   9.331  18.654  0.00  0.00    +0.000 A 
ATOM      9  C   UNL     1       7.998  10.132  17.701  0.00  0.00    +0.000 A 
ATOM     10  C   UNL     1       8.378  11.477  17.529  0.00  0.00    +0.000 A 
BRANCH   5  14
ATOM     11  C   UNL     1      11.036  15.312  17.362  0.00  0.00    +0.000 C 
ATOM     12  C   UNL     1      10.824  13.826  17.270  0.00  0.00    +0.000 C 
ATOM     13  O   UNL     1      11.530  13.149  16.529  0.00  0.00    +0.000 OA
ATOM     14  N   UNL     1       9.790  13.373  18.078  0.00  0.00    +0.000 N 
ATOM     15  H   UNL     1       9.198  14.070  18.510  0.00  0.00    +0.000 HD
ENDBRANCH   5  14
ENDBRANCH   1   8
BRANCH   2  16
ATOM     16  C   UNL     1       7.447   5.715  18.316  0.00  0.00    +0.000 C 
ATOM     17  C   UNL     1       7.174   4.765  17.155  0.00  0.00    +0.000 C 
ATOM     18  C   UNL     1       5.736   5.059  16.824  0.00  0.00    +0.000 C 
ATOM     19  O   UNL     1       5.210   4.820  15.749  0.00  0.00    +0.000 OA
ATOM     20  N   UNL     1       5.147   5.604  17.950  0.00  0.00    +0.000 N 
ATOM     21  C   UNL     1       6.090   5.767  19.029  0.00  0.00    +0.000 C 
BRANCH  20  22
ATOM     22  C   UNL     1       3.780   6.097  18.008  0.00  0.00    +0.000 C 
BRANCH  22  23
ATOM     23  C   UNL     1       2.795   5.115  18.594  0.00  0.00    +0.000 A 
ATOM     24  C   UNL     1       2.265   4.079  17.812  0.00  0.00    +0.000 A 
ATOM     25  C   UNL     1       1.432   3.112  18.381  0.00  0.00    +0.000 A 
ATOM     26  C   UNL     1       1.113   3.173  19.736  0.00  0.00    +0.000 A 
ATOM     27  C   UNL     1       1.621   4.204  20.522  0.00  0.00    +0.000 A 
ATOM     28  C   UNL     1       2.458   5.166  19.956  0.00  0.00    +0.000 A 
ENDBRANCH  22  23
ENDBRANCH  20  22
ENDBRANCH   2  16
TORSDOF 5
ENDMDL
MODEL 5
REMARK VINA RESULT:      -7.9      2.310      4.773
REMARK  Name = 
REMARK  6 active torsions:
REMARK  status: ('A' for Active; 'I' for Inactive)
REMARK    1  A    between atoms: C_1  and  C_2
REMARK    2  A    between atoms: N_4  and  C_5
REMARK    3  A    between atoms: C_8  and  N_9
REMARK    4  A    between atoms: C_10  and  C_12
REMARK    5  A    between atoms: N_16  and  C_17
REMARK    6  A    between atoms: C_17  and  C_18
REMARK                            x       y       z     vdW  Elec       q    Type
REMARK                         _______ _______ _______ _____ _____    ______ ____
ROOT
ATOM      1  N   UNL     1       8.328   8.118  18.887  0.00  0.00    +0.000 N 
ATOM      2  C   UNL     1       7.779   7.302  17.903  0.00  0.00    +0.000 C 
ATOM      3  O   UNL     1       7.482   7.672  16.769  0.00  0.00    +0.000 OA
ATOM      4  H   UNL     1       8.636   7.694  19.752  0.00  0.00    +0.000 HD
ENDROOT
BRANCH   1   8
ATOM      5  C   UNL     1       9.496  12.156  18.274  0.00  0.00    +0.000 A 
ATOM      6  C   UNL     1       8.464  11.598  17.531  0.00  0.00    +0.000 A 
ATOM      7  C   UNL     1       8.059  10.282  17.744  0.00  0.00    +0.000 A 
ATOM      8  C   UNL     1       8.681   9.478  18.696  0.00  0.00    +0.000 A 
ATOM      9  C   UNL     1       9.702  10.039  19.471  0.00  0.00    +0.000 A 
ATOM     10  C   UNL     1      10.122  11.365  19.244  0.00  0.00    +0.000 A 
BRANCH   5  14
ATOM     11  C   UNL     1      11.323  15.329  17.368  0.00  0.00    +0.000 C 
ATOM     12  C   UNL     1      11.029  13.856  17.295  0.00  0.00    +0.000 C 
ATOM     13  O   UNL     1      11.723  13.124  16.596  0.00  0.00    +0.000 OA
ATOM     14  N   UNL     1       9.940  13.480  18.069  0.00  0.00    +0.000 N 
ATOM     15  H   UNL     1       9.372  14.219  18.463  0.00  0.00    +0.000 HD
ENDBRANCH   5  14
ENDBRANCH   1   8
BRANCH   2  16
ATOM     16  C   UNL     1       7.530   5.852  18.321  0.00  0.00    +0.000 C 
ATOM     17  C   UNL     1       7.497   4.895  17.135  0.00  0.00    +0.000 C 
ATOM     18  C   UNL     1       6.066   4.990  16.678  0.00  0.00    +0.000 C 
ATOM     19  O   UNL     1       5.676   4.700  15.560  0.00  0.00    +0.000 OA
ATOM     20  N   UNL     1       5.309   5.427  17.750  0.00  0.00    +0.000 N 
ATOM     21  C   UNL     1       6.122   5.701  18.910  0.00  0.00    +0.000 C 
BRANCH  20  22
ATOM     22  C   UNL     1       3.887   5.722  17.689  0.00  0.00    +0.000 C 
BRANCH  22  23
ATOM     23  C   UNL     1       3.005   4.625  18.235  0.00  0.00    +0.000 A 
ATOM     24  C   UNL     1       2.186   4.853  19.350  0.00  0.00    +0.000 A 
ATOM     25  C   UNL     1       1.297   3.870  19.793  0.00  0.00    +0.000 A 
ATOM     26  C   UNL     1       1.221   2.646  19.132  0.00  0.00    +0.000 A 
ATOM     27  C   UNL     1       2.037   2.401  18.031  0.00  0.00    +0.000 A 
ATOM     28  C   UNL     1       2.921   3.384  17.585  0.00  0.00    +0.000 A 
ENDBRANCH  22  23
ENDBRANCH  20  22
ENDBRANCH   2  16
TORSDOF 5
ENDMDL
MODEL 6
REMARK VINA RESULT:      -7.9      2.283      4.457
REMARK  Name = 
REMARK  6 active torsions:
REMARK  status: ('A' for Active; 'I' for Inactive)
REMARK    1  A    between atoms: C_1  and  C_2
REMARK    2  A    between atoms: N_4  and  C_5
REMARK    3  A    between atoms: C_8  and  N_9
REMARK    4  A    between atoms: C_10  and  C_12
REMARK    5  A    between atoms: N_16  and  C_17
REMARK    6  A    between atoms: C_17  and  C_18
REMARK                            x       y       z     vdW  Elec       q    Type
REMARK                         _______ _______ _______ _____ _____    ______ ____
ROOT
ATOM      1  N   UNL     1       7.671   8.451  17.303  0.00  0.00    +0.000 N 
ATOM      2  C   UNL     1       7.676   7.174  17.855  0.00  0.00    +0.000 C 
ATOM      3  O   UNL     1       8.250   6.861  18.896  0.00  0.00    +0.000 OA
ATOM      4  H   UNL     1       7.081   8.631  16.502  0.00  0.00    +0.000 HD
ENDROOT
BRANCH   1   8
ATOM      5  C   UNL     1       9.370  11.892  19.125  0.00  0.00    +0.000 A 
ATOM      6  C   UNL     1       9.604  10.627  19.648  0.00  0.00    +0.000 A 
ATOM      7  C   UNL     1       9.070   9.492  19.042  0.00  0.00    +0.000 A 
ATOM      8  C   UNL     1       8.275   9.585  17.902  0.00  0.00    +0.000 A 
ATOM      9  C   UNL     1       8.059  10.853  17.348  0.00  0.00    +0.000 A 
ATOM     10  C   UNL     1       8.585  12.002  17.971  0.00  0.00    +0.000 A 
BRANCH   5  14
ATOM     11  C   UNL     1      11.447  14.773  20.395  0.00  0.00    +0.000 C 
ATOM     12  C   UNL     1      11.151  13.587  19.520  0.00  0.00    +0.000 C 
ATOM     13  O   UNL     1      11.994  13.184  18.724  0.00  0.00    +0.000 OA
ATOM     14  N   UNL     1       9.883  13.062  19.727  0.00  0.00    +0.000 N 
ATOM     15  H   UNL     1       9.245  13.597  20.302  0.00  0.00    +0.000 HD
ENDBRANCH   5  14
ENDBRANCH   1   8
BRANCH   2  16
ATOM     16  C   UNL     1       6.912   6.115  17.058  0.00  0.00    +0.000 C 
ATOM     17  C   UNL     1       5.655   6.669  16.398  0.00  0.00    +0.000 C 
ATOM     18  C   UNL     1       4.632   6.554  17.495  0.00  0.00    +0.000 C 
ATOM     19  O   UNL     1       3.602   7.205  17.553  0.00  0.00    +0.000 OA
ATOM     20  N   UNL     1       5.063   5.577  18.373  0.00  0.00    +0.000 N 
ATOM     21  C   UNL     1       6.349   5.042  17.997  0.00  0.00    +0.000 C 
BRANCH  20  22
ATOM     22  C   UNL     1       4.388   5.225  19.612  0.00  0.00    +0.000 C 
BRANCH  22  23
ATOM     23  C   UNL     1       3.139   4.398  19.419  0.00  0.00    +0.000 A 
ATOM     24  C   UNL     1       3.114   3.345  18.495  0.00  0.00    +0.000 A 
ATOM     25  C   UNL     1       1.992   2.518  18.389  0.00  0.00    +0.000 A 
ATOM     26  C   UNL     1       0.881   2.738  19.202  0.00  0.00    +0.000 A 
ATOM     27  C   UNL     1       0.888   3.788  20.116  0.00  0.00    +0.000 A 
ATOM     28  C   UNL     1       2.010   4.611  20.225  0.00  0.00    +0.000 A 
ENDBRANCH  22  23
ENDBRANCH  20  22
ENDBRANCH   2  16
TORSDOF 5
ENDMDL
MODEL 7
REMARK VINA RESULT:      -7.9      2.355      4.522
REMARK  Name = 
REMARK  6 active torsions:
REMARK  status: ('A' for Active; 'I' for Inactive)
REMARK    1  A    between atoms: C_1  and  C_2
REMARK    2  A    between atoms: N_4  and  C_5
REMARK    3  A    between atoms: C_8  and  N_9
REMARK    4  A    between atoms: C_10  and  C_12
REMARK    5  A    between atoms: N_16  and  C_17
REMARK    6  A    between atoms: C_17  and  C_18
REMARK                            x       y       z     vdW  Elec       q    Type
REMARK                         _______ _______ _______ _____ _____    ______ ____
ROOT
ATOM      1  N   UNL     1       7.498   8.335  17.347  0.00  0.00    +0.000 N 
ATOM      2  C   UNL     1       7.553   7.060  17.899  0.00  0.00    +0.000 C 
ATOM      3  O   UNL     1       8.209   6.752  18.893  0.00  0.00    +0.000 OA
ATOM      4  H   UNL     1       6.846   8.510  16.594  0.00  0.00    +0.000 HD
ENDROOT
BRANCH   1   8
ATOM      5  C   UNL     1       9.534  11.699  18.954  0.00  0.00    +0.000 A 
ATOM      6  C   UNL     1       8.678  11.843  17.869  0.00  0.00    +0.000 A 
ATOM      7  C   UNL     1       7.988  10.748  17.353  0.00  0.00    +0.000 A 
ATOM      8  C   UNL     1       8.141   9.474  17.894  0.00  0.00    +0.000 A 
ATOM      9  C   UNL     1       8.977   9.324  19.007  0.00  0.00    +0.000 A 
ATOM     10  C   UNL     1       9.687  10.428  19.518  0.00  0.00    +0.000 A 
BRANCH   5  14
ATOM     11  C   UNL     1      12.017  14.410  19.797  0.00  0.00    +0.000 C 
ATOM     12  C   UNL     1      11.404  13.342  18.934  0.00  0.00    +0.000 C 
ATOM     13  O   UNL     1      11.919  13.050  17.859  0.00  0.00    +0.000 OA
ATOM     14  N   UNL     1      10.259  12.786  19.488  0.00  0.00    +0.000 N 
ATOM     15  H   UNL     1       9.869  13.240  20.303  0.00  0.00    +0.000 HD
ENDBRANCH   5  14
ENDBRANCH   1   8
BRANCH   2  16
ATOM     16  C   UNL     1       6.736   5.994  17.166  0.00  0.00    +0.000 C 
ATOM     17  C   UNL     1       5.575   6.586  16.375  0.00  0.00    +0.000 C 
ATOM     18  C   UNL     1       4.488   6.680  17.411  0.00  0.00    +0.000 C 
ATOM     19  O   UNL     1       3.524   7.423  17.337  0.00  0.00    +0.000 OA
ATOM     20  N   UNL     1       4.776   5.767  18.409  0.00  0.00    +0.000 N 
ATOM     21  C   UNL     1       6.023   5.082  18.171  0.00  0.00    +0.000 C 
BRANCH  20  22
ATOM     22  C   UNL     1       4.004   5.610  19.631  0.00  0.00    +0.000 C 
BRANCH  22  23
ATOM     23  C   UNL     1       2.911   4.572  19.541  0.00  0.00    +0.000 A 
ATOM     24  C   UNL     1       2.236   4.143  20.692  0.00  0.00    +0.000 A 
ATOM     25  C   UNL     1       1.159   3.258  20.597  0.00  0.00    +0.000 A 
ATOM     26  C   UNL     1       0.747   2.788  19.351  0.00  0.00    +0.000 A 
ATOM     27  C   UNL     1       1.417   3.197  18.200  0.00  0.00    +0.000 A 
ATOM     28  C   UNL     1       2.489   4.084  18.294  0.00  0.00    +0.000 A 
ENDBRANCH  22  23
ENDBRANCH  20  22
ENDBRANCH   2  16
TORSDOF 5
ENDMDL
MODEL 8
REMARK VINA RESULT:      -7.9      2.287      4.576
REMARK  Name = 
REMARK  6 active torsions:
REMARK  status: ('A' for Active; 'I' for Inactive)
REMARK    1  A    between atoms: C_1  and  C_2
REMARK    2  A    between atoms: N_4  and  C_5
REMARK    3  A    between atoms: C_8  and  N_9
REMARK    4  A    between atoms: C_10  and  C_12
REMARK    5  A    between atoms: N_16  and  C_17
REMARK    6  A    between atoms: C_17  and  C_18
REMARK                            x       y       z     vdW  Elec       q    Type
REMARK                         _______ _______ _______ _____ _____    ______ ____
ROOT
ATOM      1  N   UNL     1       7.713   8.469  17.322  0.00  0.00    +0.000 N 
ATOM      2  C   UNL     1       7.684   7.183  17.852  0.00  0.00    +0.000 C 
ATOM      3  O   UNL     1       8.205   6.850  18.915  0.00  0.00    +0.000 OA
ATOM      4  H   UNL     1       7.164   8.665  16.495  0.00  0.00    +0.000 HD
ENDROOT
BRANCH   1   8
ATOM      5  C   UNL     1       9.566  11.779  19.234  0.00  0.00    +0.000 A 
ATOM      6  C   UNL     1       8.835  11.955  18.066  0.00  0.00    +0.000 A 
ATOM      7  C   UNL     1       8.204  10.878  17.447  0.00  0.00    +0.000 A 
ATOM      8  C   UNL     1       8.294   9.589  17.967  0.00  0.00    +0.000 A 
ATOM      9  C   UNL     1       9.003   9.406  19.160  0.00  0.00    +0.000 A 
ATOM     10  C   UNL     1       9.655  10.492  19.777  0.00  0.00    +0.000 A 
BRANCH   5  14
ATOM     11  C   UNL     1      10.596  14.798  21.246  0.00  0.00    +0.000 C 
ATOM     12  C   UNL     1       9.681  13.676  20.842  0.00  0.00    +0.000 C 
ATOM     13  O   UNL     1       8.576  13.566  21.365  0.00  0.00    +0.000 OA
ATOM     14  N   UNL     1      10.231  12.847  19.874  0.00  0.00    +0.000 N 
ATOM     15  H   UNL     1      11.211  12.972  19.657  0.00  0.00    +0.000 HD
ENDBRANCH   5  14
ENDBRANCH   1   8
BRANCH   2  16
ATOM     16  C   UNL     1       6.955   6.142  17.002  0.00  0.00    +0.000 C 
ATOM     17  C   UNL     1       5.671   6.683  16.383  0.00  0.00    +0.000 C 
ATOM     18  C   UNL     1       4.663   6.465  17.479  0.00  0.00    +0.000 C 
ATOM     19  O   UNL     1       3.610   7.071  17.582  0.00  0.00    +0.000 OA
ATOM     20  N   UNL     1       5.141   5.458  18.297  0.00  0.00    +0.000 N 
ATOM     21  C   UNL     1       6.443   4.996  17.882  0.00  0.00    +0.000 C 
BRANCH  20  22
ATOM     22  C   UNL     1       4.492   5.009  19.518  0.00  0.00    +0.000 C 
BRANCH  22  23
ATOM     23  C   UNL     1       3.235   4.205  19.289  0.00  0.00    +0.000 A 
ATOM     24  C   UNL     1       3.238   3.102  18.424  0.00  0.00    +0.000 A 
ATOM     25  C   UNL     1       2.102   2.300  18.289  0.00  0.00    +0.000 A 
ATOM     26  C   UNL     1       0.948   2.593  19.013  0.00  0.00    +0.000 A 
ATOM     27  C   UNL     1       0.926   3.693  19.867  0.00  0.00    +0.000 A 
ATOM     28  C   UNL     1       2.062   4.492  20.005  0.00  0.00    +0.000 A 
ENDBRANCH  22  23
ENDBRANCH  20  22
ENDBRANCH   2  16
TORSDOF 5
ENDMDL
MODEL 9
REMARK VINA RESULT:      -7.8      2.377      4.356
REMARK  Name = 
REMARK  6 active torsions:
REMARK  status: ('A' for Active; 'I' for Inactive)
REMARK    1  A    between atoms: C_1  and  C_2
REMARK    2  A    between atoms: N_4  and  C_5
REMARK    3  A    between atoms: C_8  and  N_9
REMARK    4  A    between atoms: C_10  and  C_12
REMARK    5  A    between atoms: N_16  and  C_17
REMARK    6  A    between atoms: C_17  and  C_18
REMARK                            x       y       z     vdW  Elec       q    Type
REMARK                         _______ _______ _______ _____ _____    ______ ____
ROOT
ATOM      1  N   UNL     1       7.601   8.327  17.394  0.00  0.00    +0.000 N 
ATOM      2  C   UNL     1       7.566   7.047  17.936  0.00  0.00    +0.000 C 
ATOM      3  O   UNL     1       8.164   6.697  18.952  0.00  0.00    +0.000 OA
ATOM      4  H   UNL     1       6.991   8.542  16.616  0.00  0.00    +0.000 HD
ENDROOT
BRANCH   1   8
ATOM      5  C   UNL     1       9.530  11.673  19.162  0.00  0.00    +0.000 A 
ATOM      6  C   UNL     1       9.624  10.415  19.743  0.00  0.00    +0.000 A 
ATOM      7  C   UNL     1       9.015   9.309  19.155  0.00  0.00    +0.000 A 
ATOM      8  C   UNL     1       8.282   9.426  17.976  0.00  0.00    +0.000 A 
ATOM      9  C   UNL     1       8.206  10.684  17.367  0.00  0.00    +0.000 A 
ATOM     10  C   UNL     1       8.808  11.805  17.970  0.00  0.00    +0.000 A 
BRANCH   5  14
ATOM     11  C   UNL     1      10.369  14.831  21.048  0.00  0.00    +0.000 C 
ATOM     12  C   UNL     1       9.543  13.619  20.715  0.00  0.00    +0.000 C 
ATOM     13  O   UNL     1       8.476  13.425  21.291  0.00  0.00    +0.000 OA
ATOM     14  N   UNL     1      10.122  12.816  19.743  0.00  0.00    +0.000 N 
ATOM     15  H   UNL     1      11.076  13.022  19.477  0.00  0.00    +0.000 HD
ENDBRANCH   5  14
ENDBRANCH   1   8
BRANCH   2  16
ATOM     16  C   UNL     1       6.724   6.032  17.161  0.00  0.00    +0.000 C 
ATOM     17  C   UNL     1       5.579   6.683  16.393  0.00  0.00    +0.000 C 
ATOM     18  C   UNL     1       4.493   6.764  17.431  0.00  0.00    +0.000 C 
ATOM     19  O   UNL     1       3.548   7.533  17.387  0.00  0.00    +0.000 OA
ATOM     20  N   UNL     1       4.757   5.805  18.393  0.00  0.00    +0.000 N 
ATOM     21  C   UNL     1       5.987   5.099  18.129  0.00  0.00    +0.000 C 
BRANCH  20  22
ATOM     22  C   UNL     1       3.979   5.620  19.607  0.00  0.00    +0.000 C 
BRANCH  22  23
ATOM     23  C   UNL     1       2.822   4.662  19.459  0.00  0.00    +0.000 A 
ATOM     24  C   UNL     1       2.391   4.251  18.190  0.00  0.00    +0.000 A 
ATOM     25  C   UNL     1       1.387   3.288  18.056  0.00  0.00    +0.000 A 
ATOM     26  C   UNL     1       0.798   2.729  19.189  0.00  0.00    +0.000 A 
ATOM     27  C   UNL     1       1.208   3.137  20.456  0.00  0.00    +0.000 A 
ATOM     28  C   UNL     1       2.214   4.094  20.590  0.00  0.00    +0.000 A 
ENDBRANCH  22  23
ENDBRANCH  20  22
ENDBRANCH   2  16
TORSDOF 5
ENDMDL
