MODEL 1
REMARK VINA RESULT:      -6.2      0.000      0.000
REMARK  Name = 
REMARK  3 active torsions:
REMARK  status: ('A' for Active; 'I' for Inactive)
REMARK    1  A    between atoms: C_1  and  O_2
REMARK    2  A    between atoms: O_2  and  C_3
REMARK    3  A    between atoms: C_9  and  N_10
REMARK                            x       y       z     vdW  Elec       q    Type
REMARK                         _______ _______ _______ _____ _____    ______ ____
ROOT
ATOM      1  C   UNL     1       6.351   4.654  18.121  0.00  0.00    +0.000 A 
ATOM      2  C   UNL     1       7.142   4.752  16.960  0.00  0.00    +0.000 A 
ATOM      3  C   UNL     1       6.622   4.441  15.707  0.00  0.00    +0.000 A 
ATOM      4  C   UNL     1       5.304   4.023  15.601  0.00  0.00    +0.000 A 
ATOM      5  C   UNL     1       4.515   3.931  16.747  0.00  0.00    +0.000 A 
ATOM      6  F   UNL     1       3.229   3.586  16.559  0.00  0.00    +0.000 F 
ATOM      7  C   UNL     1       4.995   4.234  18.044  0.00  0.00    +0.000 A 
ENDROOT
BRANCH   7   8
ATOM      8  N   UNL     1       4.151   4.157  19.146  0.00  0.00    +0.000 N 
ATOM      9  C   UNL     1       3.505   5.327  19.750  0.00  0.00    +0.000 C 
ATOM     10  C   UNL     1       2.004   5.025  19.997  0.00  0.00    +0.000 C 
ATOM     11  N   UNL     1       1.748   3.787  20.760  0.00  0.00    +0.000 NA
ATOM     12  C   UNL     1       2.443   2.658  20.105  0.00  0.00    +0.000 C 
ATOM     13  C   UNL     1       3.953   2.909  19.900  0.00  0.00    +0.000 C 
ATOM     14  H   UNL     1       0.745   3.601  20.756  0.00  0.00    +0.000 HD
ENDBRANCH   7   8
BRANCH   1  16
ATOM     15  C   UNL     1       7.953   5.803  19.460  0.00  0.00    +0.000 C 
ATOM     16  O   UNL     1       6.893   4.857  19.371  0.00  0.00    +0.000 OA
ENDBRANCH   1  16
TORSDOF 2
ENDMDL
MODEL 2
REMARK VINA RESULT:      -6.2      2.068      4.893
REMARK  Name = 
REMARK  3 active torsions:
REMARK  status: ('A' for Active; 'I' for Inactive)
REMARK    1  A    between atoms: C_1  and  O_2
REMARK    2  A    between atoms: O_2  and  C_3
REMARK    3  A    between atoms: C_9  and  N_10
REMARK                            x       y       z     vdW  Elec       q    Type
REMARK                         _______ _______ _______ _____ _____    ______ ____
ROOT
ATOM      1  C   UNL     1       3.438   3.466  19.544  0.00  0.00    +0.000 A 
ATOM      2  C   UNL     1       2.322   3.267  20.380  0.00  0.00    +0.000 A 
ATOM      3  C   UNL     1       1.535   4.337  20.795  0.00  0.00    +0.000 A 
ATOM      4  C   UNL     1       1.857   5.620  20.382  0.00  0.00    +0.000 A 
ATOM      5  C   UNL     1       2.957   5.821  19.549  0.00  0.00    +0.000 A 
ATOM      6  F   UNL     1       3.168   7.083  19.134  0.00  0.00    +0.000 F 
ATOM      7  C   UNL     1       3.791   4.769  19.099  0.00  0.00    +0.000 A 
ENDROOT
BRANCH   7   8
ATOM      8  N   UNL     1       4.853   5.026  18.241  0.00  0.00    +0.000 N 
ATOM      9  C   UNL     1       6.155   5.527  18.695  0.00  0.00    +0.000 C 
ATOM     10  C   UNL     1       7.290   4.703  18.035  0.00  0.00    +0.000 C 
ATOM     11  N   UNL     1       7.206   4.616  16.562  0.00  0.00    +0.000 NA
ATOM     12  C   UNL     1       5.865   4.123  16.180  0.00  0.00    +0.000 C 
ATOM     13  C   UNL     1       4.714   4.963  16.777  0.00  0.00    +0.000 C 
ATOM     14  H   UNL     1       7.905   3.952  16.233  0.00  0.00    +0.000 HD
ENDBRANCH   7   8
BRANCH   1  16
ATOM     15  C   UNL     1       3.715   1.361  18.461  0.00  0.00    +0.000 C 
ATOM     16  O   UNL     1       4.280   2.424  19.221  0.00  0.00    +0.000 OA
ENDBRANCH   1  16
TORSDOF 2
ENDMDL
MODEL 3
REMARK VINA RESULT:      -6.1      2.144      4.925
REMARK  Name = 
REMARK  3 active torsions:
REMARK  status: ('A' for Active; 'I' for Inactive)
REMARK    1  A    between atoms: C_1  and  O_2
REMARK    2  A    between atoms: O_2  and  C_3
REMARK    3  A    between atoms: C_9  and  N_10
REMARK                            x       y       z     vdW  Elec       q    Type
REMARK                         _______ _______ _______ _____ _____    ______ ____
ROOT
ATOM      1  C   UNL     1       3.535   3.745  19.392  0.00  0.00    +0.000 A 
ATOM      2  C   UNL     1       2.437   3.876  20.265  0.00  0.00    +0.000 A 
ATOM      3  C   UNL     1       1.813   5.105  20.455  0.00  0.00    +0.000 A 
ATOM      4  C   UNL     1       2.283   6.220  19.779  0.00  0.00    +0.000 A 
ATOM      5  C   UNL     1       3.366   6.093  18.909  0.00  0.00    +0.000 A 
ATOM      6  F   UNL     1       3.723   7.203  18.237  0.00  0.00    +0.000 F 
ATOM      7  C   UNL     1       4.037   4.868  18.680  0.00  0.00    +0.000 A 
ENDROOT
BRANCH   7   8
ATOM      8  N   UNL     1       5.088   4.796  17.775  0.00  0.00    +0.000 N 
ATOM      9  C   UNL     1       4.914   4.441  16.362  0.00  0.00    +0.000 C 
ATOM     10  C   UNL     1       5.700   5.438  15.472  0.00  0.00    +0.000 C 
ATOM     11  N   UNL     1       7.123   5.594  15.840  0.00  0.00    +0.000 NA
ATOM     12  C   UNL     1       7.220   5.932  17.276  0.00  0.00    +0.000 C 
ATOM     13  C   UNL     1       6.494   4.921  18.190  0.00  0.00    +0.000 C 
ATOM     14  H   UNL     1       7.519   6.359  15.295  0.00  0.00    +0.000 HD
ENDBRANCH   7   8
BRANCH   1  16
ATOM     15  C   UNL     1       3.598   1.528  18.519  0.00  0.00    +0.000 C 
ATOM     16  O   UNL     1       4.221   2.554  19.285  0.00  0.00    +0.000 OA
ENDBRANCH   1  16
TORSDOF 2
ENDMDL
MODEL 4
REMARK VINA RESULT:      -6.1      2.329      4.805
REMARK  Name = 
REMARK  3 active torsions:
REMARK  status: ('A' for Active; 'I' for Inactive)
REMARK    1  A    between atoms: C_1  and  O_2
REMARK    2  A    between atoms: O_2  and  C_3
REMARK    3  A    between atoms: C_9  and  N_10
REMARK                            x       y       z     vdW  Elec       q    Type
REMARK                         _______ _______ _______ _____ _____    ______ ____
ROOT
ATOM      1  C   UNL     1       3.075   5.189  17.886  0.00  0.00    +0.000 A 
ATOM      2  C   UNL     1       1.814   4.968  18.474  0.00  0.00    +0.000 A 
ATOM      3  C   UNL     1       1.336   3.678  18.684  0.00  0.00    +0.000 A 
ATOM      4  C   UNL     1       2.111   2.594  18.304  0.00  0.00    +0.000 A 
ATOM      5  C   UNL     1       3.362   2.808  17.728  0.00  0.00    +0.000 A 
ATOM      6  F   UNL     1       4.086   1.709  17.449  0.00  0.00    +0.000 F 
ATOM      7  C   UNL     1       3.896   4.098  17.491  0.00  0.00    +0.000 A 
ENDROOT
BRANCH   7   8
ATOM      8  N   UNL     1       5.164   4.249  16.946  0.00  0.00    +0.000 N 
ATOM      9  C   UNL     1       5.478   3.970  15.540  0.00  0.00    +0.000 C 
ATOM     10  C   UNL     1       6.316   5.134  14.951  0.00  0.00    +0.000 C 
ATOM     11  N   UNL     1       7.519   5.478  15.736  0.00  0.00    +0.000 NA
ATOM     12  C   UNL     1       7.130   5.727  17.141  0.00  0.00    +0.000 C 
ATOM     13  C   UNL     1       6.344   4.557  17.771  0.00  0.00    +0.000 C 
ATOM     14  H   UNL     1       7.927   6.330  15.353  0.00  0.00    +0.000 HD
ENDBRANCH   7   8
BRANCH   1  16
ATOM     15  C   UNL     1       2.728   7.537  18.097  0.00  0.00    +0.000 C 
ATOM     16  O   UNL     1       3.503   6.462  17.579  0.00  0.00    +0.000 OA
ENDBRANCH   1  16
TORSDOF 2
ENDMDL
MODEL 5
REMARK VINA RESULT:      -6.0      2.240      4.965
REMARK  Name = 
REMARK  3 active torsions:
REMARK  status: ('A' for Active; 'I' for Inactive)
REMARK    1  A    between atoms: C_1  and  O_2
REMARK    2  A    between atoms: O_2  and  C_3
REMARK    3  A    between atoms: C_9  and  N_10
REMARK                            x       y       z     vdW  Elec       q    Type
REMARK                         _______ _______ _______ _____ _____    ______ ____
ROOT
ATOM      1  C   UNL     1       2.333   4.749  19.411  0.00  0.00    +0.000 A 
ATOM      2  C   UNL     1       1.301   4.466  20.328  0.00  0.00    +0.000 A 
ATOM      3  C   UNL     1       1.393   3.386  21.202  0.00  0.00    +0.000 A 
ATOM      4  C   UNL     1       2.516   2.574  21.167  0.00  0.00    +0.000 A 
ATOM      5  C   UNL     1       3.542   2.855  20.266  0.00  0.00    +0.000 A 
ATOM      6  F   UNL     1       4.629   2.066  20.336  0.00  0.00    +0.000 F 
ATOM      7  C   UNL     1       3.499   3.938  19.355  0.00  0.00    +0.000 A 
ENDROOT
BRANCH   7   8
ATOM      8  N   UNL     1       4.569   4.189  18.504  0.00  0.00    +0.000 N 
ATOM      9  C   UNL     1       4.666   3.642  17.147  0.00  0.00    +0.000 C 
ATOM     10  C   UNL     1       5.077   4.765  16.160  0.00  0.00    +0.000 C 
ATOM     11  N   UNL     1       6.290   5.510  16.552  0.00  0.00    +0.000 NA
ATOM     12  C   UNL     1       6.127   6.014  17.933  0.00  0.00    +0.000 C 
ATOM     13  C   UNL     1       5.776   4.905  18.948  0.00  0.00    +0.000 C 
ATOM     14  H   UNL     1       6.403   6.305  15.924  0.00  0.00    +0.000 HD
ENDBRANCH   7   8
BRANCH   1  16
ATOM     15  C   UNL     1       2.532   7.067  18.896  0.00  0.00    +0.000 C 
ATOM     16  O   UNL     1       2.197   5.749  18.474  0.00  0.00    +0.000 OA
ENDBRANCH   1  16
TORSDOF 2
ENDMDL
MODEL 6
REMARK VINA RESULT:      -6.0      2.286      4.735
REMARK  Name = 
REMARK  3 active torsions:
REMARK  status: ('A' for Active; 'I' for Inactive)
REMARK    1  A    between atoms: C_1  and  O_2
REMARK    2  A    between atoms: O_2  and  C_3
REMARK    3  A    between atoms: C_9  and  N_10
REMARK                            x       y       z     vdW  Elec       q    Type
REMARK                         _______ _______ _______ _____ _____    ______ ____
ROOT
ATOM      1  C   UNL     1       2.472   4.776  18.195  0.00  0.00    +0.000 A 
ATOM      2  C   UNL     1       1.301   4.164  18.683  0.00  0.00    +0.000 A 
ATOM      3  C   UNL     1       1.177   2.778  18.724  0.00  0.00    +0.000 A 
ATOM      4  C   UNL     1       2.222   1.987  18.272  0.00  0.00    +0.000 A 
ATOM      5  C   UNL     1       3.386   2.589  17.795  0.00  0.00    +0.000 A 
ATOM      6  F   UNL     1       4.383   1.759  17.438  0.00  0.00    +0.000 F 
ATOM      7  C   UNL     1       3.563   3.992  17.730  0.00  0.00    +0.000 A 
ENDROOT
BRANCH   7   8
ATOM      8  N   UNL     1       4.759   4.534  17.277  0.00  0.00    +0.000 N 
ATOM      9  C   UNL     1       5.763   5.130  18.165  0.00  0.00    +0.000 C 
ATOM     10  C   UNL     1       7.171   4.595  17.796  0.00  0.00    +0.000 C 
ATOM     11  N   UNL     1       7.526   4.742  16.370  0.00  0.00    +0.000 NA
ATOM     12  C   UNL     1       6.464   4.136  15.539  0.00  0.00    +0.000 C 
ATOM     13  C   UNL     1       5.057   4.696  15.845  0.00  0.00    +0.000 C 
ATOM     14  H   UNL     1       8.400   4.246  16.198  0.00  0.00    +0.000 HD
ENDBRANCH   7   8
BRANCH   1  16
ATOM     15  C   UNL     1       2.547   6.910  19.253  0.00  0.00    +0.000 C 
ATOM     16  O   UNL     1       2.554   6.144  18.053  0.00  0.00    +0.000 OA
ENDBRANCH   1  16
TORSDOF 2
ENDMDL
MODEL 7
REMARK VINA RESULT:      -6.0      2.389      3.199
REMARK  Name = 
REMARK  3 active torsions:
REMARK  status: ('A' for Active; 'I' for Inactive)
REMARK    1  A    between atoms: C_1  and  O_2
REMARK    2  A    between atoms: O_2  and  C_3
REMARK    3  A    between atoms: C_9  and  N_10
REMARK                            x       y       z     vdW  Elec       q    Type
REMARK                         _______ _______ _______ _____ _____    ______ ____
ROOT
ATOM      1  C   UNL     1       3.461   6.413  17.980  0.00  0.00    +0.000 A 
ATOM      2  C   UNL     1       4.561   6.910  17.253  0.00  0.00    +0.000 A 
ATOM      3  C   UNL     1       5.776   6.233  17.237  0.00  0.00    +0.000 A 
ATOM      4  C   UNL     1       5.908   5.052  17.951  0.00  0.00    +0.000 A 
ATOM      5  C   UNL     1       4.820   4.553  18.666  0.00  0.00    +0.000 A 
ATOM      6  F   UNL     1       5.001   3.369  19.278  0.00  0.00    +0.000 F 
ATOM      7  C   UNL     1       3.563   5.202  18.718  0.00  0.00    +0.000 A 
ENDROOT
BRANCH   7   8
ATOM      8  N   UNL     1       2.504   4.639  19.418  0.00  0.00    +0.000 N 
ATOM      9  C   UNL     1       1.437   3.860  18.781  0.00  0.00    +0.000 C 
ATOM     10  C   UNL     1       1.188   2.559  19.585  0.00  0.00    +0.000 C 
ATOM     11  N   UNL     1       0.944   2.768  21.027  0.00  0.00    +0.000 NA
ATOM     12  C   UNL     1       2.047   3.573  21.595  0.00  0.00    +0.000 C 
ATOM     13  C   UNL     1       2.277   4.905  20.848  0.00  0.00    +0.000 C 
ATOM     14  H   UNL     1       0.926   1.861  21.491  0.00  0.00    +0.000 HD
ENDBRANCH   7   8
BRANCH   1  16
ATOM     15  C   UNL     1       2.376   8.527  17.794  0.00  0.00    +0.000 C 
ATOM     16  O   UNL     1       2.293   7.136  18.085  0.00  0.00    +0.000 OA
ENDBRANCH   1  16
TORSDOF 2
ENDMDL
MODEL 8
REMARK VINA RESULT:      -6.0      2.281      4.942
REMARK  Name = 
REMARK  3 active torsions:
REMARK  status: ('A' for Active; 'I' for Inactive)
REMARK    1  A    between atoms: C_1  and  O_2
REMARK    2  A    between atoms: O_2  and  C_3
REMARK    3  A    between atoms: C_9  and  N_10
REMARK                            x       y       z     vdW  Elec       q    Type
REMARK                         _______ _______ _______ _____ _____    ______ ____
ROOT
ATOM      1  C   UNL     1       3.298   6.020  18.969  0.00  0.00    +0.000 A 
ATOM      2  C   UNL     1       2.235   5.970  19.892  0.00  0.00    +0.000 A 
ATOM      3  C   UNL     1       1.986   4.824  20.640  0.00  0.00    +0.000 A 
ATOM      4  C   UNL     1       2.794   3.710  20.470  0.00  0.00    +0.000 A 
ATOM      5  C   UNL     1       3.851   3.757  19.562  0.00  0.00    +0.000 A 
ATOM      6  F   UNL     1       4.632   2.663  19.501  0.00  0.00    +0.000 F 
ATOM      7  C   UNL     1       4.147   4.896  18.776  0.00  0.00    +0.000 A 
ENDROOT
BRANCH   7   8
ATOM      8  N   UNL     1       5.236   4.895  17.913  0.00  0.00    +0.000 N 
ATOM      9  C   UNL     1       5.170   4.411  16.530  0.00  0.00    +0.000 C 
ATOM     10  C   UNL     1       5.856   5.432  15.586  0.00  0.00    +0.000 C 
ATOM     11  N   UNL     1       7.229   5.806  15.984  0.00  0.00    +0.000 NA
ATOM     12  C   UNL     1       7.220   6.265  17.390  0.00  0.00    +0.000 C 
ATOM     13  C   UNL     1       6.595   5.240  18.361  0.00  0.00    +0.000 C 
ATOM     14  H   UNL     1       7.544   6.573  15.390  0.00  0.00    +0.000 HD
ENDBRANCH   7   8
BRANCH   1  16
ATOM     15  C   UNL     1       2.395   8.030  18.062  0.00  0.00    +0.000 C 
ATOM     16  O   UNL     1       3.480   7.113  18.151  0.00  0.00    +0.000 OA
ENDBRANCH   1  16
TORSDOF 2
ENDMDL
MODEL 9
REMARK VINA RESULT:      -6.0      2.174      4.889
REMARK  Name = 
REMARK  3 active torsions:
REMARK  status: ('A' for Active; 'I' for Inactive)
REMARK    1  A    between atoms: C_1  and  O_2
REMARK    2  A    between atoms: O_2  and  C_3
REMARK    3  A    between atoms: C_9  and  N_10
REMARK                            x       y       z     vdW  Elec       q    Type
REMARK                         _______ _______ _______ _____ _____    ______ ____
ROOT
ATOM      1  C   UNL     1       3.011   5.803  19.270  0.00  0.00    +0.000 A 
ATOM      2  C   UNL     1       1.987   5.522  20.196  0.00  0.00    +0.000 A 
ATOM      3  C   UNL     1       1.911   4.286  20.831  0.00  0.00    +0.000 A 
ATOM      4  C   UNL     1       2.855   3.313  20.543  0.00  0.00    +0.000 A 
ATOM      5  C   UNL     1       3.875   3.589  19.633  0.00  0.00    +0.000 A 
ATOM      6  F   UNL     1       4.793   2.622  19.456  0.00  0.00    +0.000 F 
ATOM      7  C   UNL     1       3.998   4.827  18.959  0.00  0.00    +0.000 A 
ENDROOT
BRANCH   7   8
ATOM      8  N   UNL     1       5.056   5.057  18.089  0.00  0.00    +0.000 N 
ATOM      9  C   UNL     1       6.352   5.594  18.517  0.00  0.00    +0.000 C 
ATOM     10  C   UNL     1       7.497   4.754  17.895  0.00  0.00    +0.000 C 
ATOM     11  N   UNL     1       7.412   4.597  16.428  0.00  0.00    +0.000 NA
ATOM     12  C   UNL     1       6.077   4.071  16.071  0.00  0.00    +0.000 C 
ATOM     13  C   UNL     1       4.917   4.924  16.629  0.00  0.00    +0.000 C 
ATOM     14  H   UNL     1       8.120   3.927  16.129  0.00  0.00    +0.000 HD
ENDBRANCH   7   8
BRANCH   1  16
ATOM     15  C   UNL     1       2.123   7.996  18.992  0.00  0.00    +0.000 C 
ATOM     16  O   UNL     1       3.026   6.984  18.562  0.00  0.00    +0.000 OA
ENDBRANCH   1  16
TORSDOF 2
ENDMDL
