MODEL 1
REMARK VINA RESULT:      -7.7      0.000      0.000
REMARK  Name = 
REMARK  5 active torsions:
REMARK  status: ('A' for Active; 'I' for Inactive)
REMARK    1  A    between atoms: C_1  and  C_2
REMARK    2  A    between atoms: C_2  and  O_3
REMARK    3  A    between atoms: O_3  and  C_4
REMARK    4  A    between atoms: N_13  and  C_14
REMARK    5  A    between atoms: C_14  and  C_15
REMARK                            x       y       z     vdW  Elec       q    Type
REMARK                         _______ _______ _______ _____ _____    ______ ____
ROOT
ATOM      1  C   UNL     1       7.792   7.624  17.163  0.00  0.00    +0.000 C 
ATOM      2  C   UNL     1       7.285   6.231  17.576  0.00  0.00    +0.000 C 
ATOM      3  C   UNL     1       7.440   5.866  19.051  0.00  0.00    +0.000 C 
ATOM      4  C   UNL     1       6.214   5.008  19.342  0.00  0.00    +0.000 C 
ATOM      5  N   UNL     1       5.128   5.676  18.619  0.00  0.00    +0.000 NA
ATOM      6  C   UNL     1       5.741   6.241  17.400  0.00  0.00    +0.000 C 
ENDROOT
BRANCH   2   7
ATOM      7  O   UNL     1       7.790   5.179  16.724  0.00  0.00    +0.000 OA
BRANCH   7   8
ATOM      8  C   UNL     1       7.081   4.724  15.647  0.00  0.00    +0.000 A 
ATOM      9  C   UNL     1       6.003   3.836  15.682  0.00  0.00    +0.000 A 
ATOM     10  C   UNL     1       5.402   3.389  14.504  0.00  0.00    +0.000 A 
ATOM     11  C   UNL     1       5.855   3.859  13.276  0.00  0.00    +0.000 A 
ATOM     12 CL   UNL     1       5.125   3.286  11.829  0.00  0.00    +0.000 Cl
ATOM     13  C   UNL     1       6.898   4.778  13.221  0.00  0.00    +0.000 A 
ATOM     14  C   UNL     1       7.507   5.211  14.407  0.00  0.00    +0.000 A 
ENDBRANCH   7   8
ENDBRANCH   2   7
BRANCH   5  15
ATOM     15  C   UNL     1       4.042   4.716  18.336  0.00  0.00    +0.000 C 
BRANCH  15  16
ATOM     16  C   UNL     1       3.259   4.267  19.542  0.00  0.00    +0.000 A 
ATOM     17  C   UNL     1       3.233   3.040  20.192  0.00  0.00    +0.000 A 
ATOM     18  C   UNL     1       2.403   3.152  21.320  0.00  0.00    +0.000 A 
ATOM     19  C   UNL     1       1.892   4.425  21.313  0.00  0.00    +0.000 A 
ATOM     20  N   UNL     1       2.395   5.137  20.228  0.00  0.00    +0.000 N 
ATOM     21  C   UNL     1       2.102   6.477  19.891  0.00  0.00    +0.000 A 
ATOM     22  N   UNL     1       2.535   7.073  18.799  0.00  0.00    +0.000 NA
ATOM     23  C   UNL     1       2.110   8.388  18.795  0.00  0.00    +0.000 A 
ATOM     24  C   UNL     1       1.364   8.775  19.888  0.00  0.00    +0.000 A 
ATOM     25  S   UNL     1       1.156   7.439  20.942  0.00  0.00    +0.000 S 
ENDBRANCH  15  16
ENDBRANCH   5  15
TORSDOF 4
ENDMDL
MODEL 2
REMARK VINA RESULT:      -7.4      3.628      7.018
REMARK  Name = 
REMARK  5 active torsions:
REMARK  status: ('A' for Active; 'I' for Inactive)
REMARK    1  A    between atoms: C_1  and  C_2
REMARK    2  A    between atoms: C_2  and  O_3
REMARK    3  A    between atoms: O_3  and  C_4
REMARK    4  A    between atoms: N_13  and  C_14
REMARK    5  A    between atoms: C_14  and  C_15
REMARK                            x       y       z     vdW  Elec       q    Type
REMARK                         _______ _______ _______ _____ _____    ______ ____
ROOT
ATOM      1  C   UNL     1       0.992   4.344  20.214  0.00  0.00    +0.000 C 
ATOM      2  C   UNL     1       2.444   4.445  19.717  0.00  0.00    +0.000 C 
ATOM      3  C   UNL     1       3.382   3.314  20.135  0.00  0.00    +0.000 C 
ATOM      4  C   UNL     1       4.317   3.160  18.942  0.00  0.00    +0.000 C 
ATOM      5  N   UNL     1       3.440   3.309  17.776  0.00  0.00    +0.000 NA
ATOM      6  C   UNL     1       2.405   4.285  18.171  0.00  0.00    +0.000 C 
ENDROOT
BRANCH   2   7
ATOM      7  O   UNL     1       3.036   5.737  19.982  0.00  0.00    +0.000 OA
BRANCH   7   8
ATOM      8  C   UNL     1       2.448   6.897  19.560  0.00  0.00    +0.000 A 
ATOM      9  C   UNL     1       2.488   7.421  18.265  0.00  0.00    +0.000 A 
ATOM     10  C   UNL     1       1.905   8.655  17.972  0.00  0.00    +0.000 A 
ATOM     11  C   UNL     1       1.242   9.361  18.970  0.00  0.00    +0.000 A 
ATOM     12 CL   UNL     1       0.547  10.891  18.605  0.00  0.00    +0.000 Cl
ATOM     13  C   UNL     1       1.152   8.836  20.255  0.00  0.00    +0.000 A 
ATOM     14  C   UNL     1       1.753   7.603  20.546  0.00  0.00    +0.000 A 
ENDBRANCH   7   8
ENDBRANCH   2   7
BRANCH   5  15
ATOM     15  C   UNL     1       4.227   3.734  16.602  0.00  0.00    +0.000 C 
BRANCH  15  16
ATOM     16  C   UNL     1       5.311   4.741  16.891  0.00  0.00    +0.000 A 
ATOM     17  C   UNL     1       5.598   5.443  18.054  0.00  0.00    +0.000 A 
ATOM     18  C   UNL     1       6.763   6.197  17.841  0.00  0.00    +0.000 A 
ATOM     19  C   UNL     1       7.139   5.989  16.538  0.00  0.00    +0.000 A 
ATOM     20  N   UNL     1       6.263   5.100  15.923  0.00  0.00    +0.000 N 
ATOM     21  C   UNL     1       6.327   4.642  14.588  0.00  0.00    +0.000 A 
ATOM     22  N   UNL     1       5.416   3.871  14.030  0.00  0.00    +0.000 NA
ATOM     23  C   UNL     1       5.801   3.569  12.738  0.00  0.00    +0.000 A 
ATOM     24  C   UNL     1       7.003   4.109  12.334  0.00  0.00    +0.000 A 
ATOM     25  S   UNL     1       7.659   5.058  13.601  0.00  0.00    +0.000 S 
ENDBRANCH  15  16
ENDBRANCH   5  15
TORSDOF 4
ENDMDL
MODEL 3
REMARK VINA RESULT:      -7.3      2.553      5.148
REMARK  Name = 
REMARK  5 active torsions:
REMARK  status: ('A' for Active; 'I' for Inactive)
REMARK    1  A    between atoms: C_1  and  C_2
REMARK    2  A    between atoms: C_2  and  O_3
REMARK    3  A    between atoms: O_3  and  C_4
REMARK    4  A    between atoms: N_13  and  C_14
REMARK    5  A    between atoms: C_14  and  C_15
REMARK                            x       y       z     vdW  Elec       q    Type
REMARK                         _______ _______ _______ _____ _____    ______ ____
ROOT
ATOM      1  C   UNL     1       1.418   2.528  20.922  0.00  0.00    +0.000 C 
ATOM      2  C   UNL     1       2.139   3.672  20.189  0.00  0.00    +0.000 C 
ATOM      3  C   UNL     1       1.557   4.081  18.837  0.00  0.00    +0.000 C 
ATOM      4  C   UNL     1       1.797   5.585  18.780  0.00  0.00    +0.000 C 
ATOM      5  N   UNL     1       1.504   6.048  20.140  0.00  0.00    +0.000 NA
ATOM      6  C   UNL     1       1.930   4.957  21.039  0.00  0.00    +0.000 C 
ENDROOT
BRANCH   2   7
ATOM      7  O   UNL     1       3.566   3.466  20.100  0.00  0.00    +0.000 OA
BRANCH   7   8
ATOM      8  C   UNL     1       4.279   3.834  18.993  0.00  0.00    +0.000 A 
ATOM      9  C   UNL     1       4.218   3.234  17.733  0.00  0.00    +0.000 A 
ATOM     10  C   UNL     1       5.050   3.659  16.695  0.00  0.00    +0.000 A 
ATOM     11  C   UNL     1       5.928   4.716  16.902  0.00  0.00    +0.000 A 
ATOM     12 CL   UNL     1       6.965   5.217  15.624  0.00  0.00    +0.000 Cl
ATOM     13  C   UNL     1       5.973   5.357  18.136  0.00  0.00    +0.000 A 
ATOM     14  C   UNL     1       5.145   4.916  19.178  0.00  0.00    +0.000 A 
ENDBRANCH   7   8
ENDBRANCH   2   7
BRANCH   5  15
ATOM     15  C   UNL     1       2.198   7.325  20.401  0.00  0.00    +0.000 C 
BRANCH  15  16
ATOM     16  C   UNL     1       1.846   8.446  19.457  0.00  0.00    +0.000 A 
ATOM     17  C   UNL     1       2.183   8.638  18.123  0.00  0.00    +0.000 A 
ATOM     18  C   UNL     1       1.538   9.797  17.664  0.00  0.00    +0.000 A 
ATOM     19  C   UNL     1       0.861  10.326  18.735  0.00  0.00    +0.000 A 
ATOM     20  N   UNL     1       1.035   9.521  19.856  0.00  0.00    +0.000 N 
ATOM     21  C   UNL     1       0.490   9.738  21.142  0.00  0.00    +0.000 A 
ATOM     22  N   UNL     1       0.762   8.991  22.192  0.00  0.00    +0.000 NA
ATOM     23  C   UNL     1       0.033   9.442  23.276  0.00  0.00    +0.000 A 
ATOM     24  C   UNL     1      -0.788  10.521  23.032  0.00  0.00    +0.000 A 
ATOM     25  S   UNL     1      -0.618  11.014  21.399  0.00  0.00    +0.000 S 
ENDBRANCH  15  16
ENDBRANCH   5  15
TORSDOF 4
ENDMDL
MODEL 4
REMARK VINA RESULT:      -7.2      1.040      1.417
REMARK  Name = 
REMARK  5 active torsions:
REMARK  status: ('A' for Active; 'I' for Inactive)
REMARK    1  A    between atoms: C_1  and  C_2
REMARK    2  A    between atoms: C_2  and  O_3
REMARK    3  A    between atoms: O_3  and  C_4
REMARK    4  A    between atoms: N_13  and  C_14
REMARK    5  A    between atoms: C_14  and  C_15
REMARK                            x       y       z     vdW  Elec       q    Type
REMARK                         _______ _______ _______ _____ _____    ______ ____
ROOT
ATOM      1  C   UNL     1       7.662   7.191  17.409  0.00  0.00    +0.000 C 
ATOM      2  C   UNL     1       6.734   6.075  16.898  0.00  0.00    +0.000 C 
ATOM      3  C   UNL     1       7.252   4.645  17.046  0.00  0.00    +0.000 C 
ATOM      4  C   UNL     1       5.993   3.832  17.320  0.00  0.00    +0.000 C 
ATOM      5  N   UNL     1       5.209   4.676  18.227  0.00  0.00    +0.000 NA
ATOM      6  C   UNL     1       5.483   6.069  17.820  0.00  0.00    +0.000 C 
ENDROOT
BRANCH   2   7
ATOM      7  O   UNL     1       6.255   6.318  15.556  0.00  0.00    +0.000 OA
BRANCH   7   8
ATOM      8  C   UNL     1       6.339   5.366  14.579  0.00  0.00    +0.000 A 
ATOM      9  C   UNL     1       7.440   5.121  13.755  0.00  0.00    +0.000 A 
ATOM     10  C   UNL     1       7.379   4.162  12.742  0.00  0.00    +0.000 A 
ATOM     11  C   UNL     1       6.221   3.412  12.569  0.00  0.00    +0.000 A 
ATOM     12 CL   UNL     1       6.147   2.250  11.303  0.00  0.00    +0.000 Cl
ATOM     13  C   UNL     1       5.128   3.610  13.407  0.00  0.00    +0.000 A 
ATOM     14  C   UNL     1       5.191   4.584  14.413  0.00  0.00    +0.000 A 
ENDBRANCH   7   8
ENDBRANCH   2   7
BRANCH   5  15
ATOM     15  C   UNL     1       3.780   4.314  18.147  0.00  0.00    +0.000 C 
BRANCH  15  16
ATOM     16  C   UNL     1       3.124   4.017  19.471  0.00  0.00    +0.000 A 
ATOM     17  C   UNL     1       3.097   2.848  20.220  0.00  0.00    +0.000 A 
ATOM     18  C   UNL     1       2.422   3.106  21.423  0.00  0.00    +0.000 A 
ATOM     19  C   UNL     1       1.999   4.411  21.370  0.00  0.00    +0.000 A 
ATOM     20  N   UNL     1       2.410   4.998  20.178  0.00  0.00    +0.000 N 
ATOM     21  C   UNL     1       2.166   6.329  19.767  0.00  0.00    +0.000 A 
ATOM     22  N   UNL     1       2.500   6.807  18.586  0.00  0.00    +0.000 NA
ATOM     23  C   UNL     1       2.165   8.146  18.522  0.00  0.00    +0.000 A 
ATOM     24  C   UNL     1       1.587   8.668  19.659  0.00  0.00    +0.000 A 
ATOM     25  S   UNL     1       1.423   7.435  20.838  0.00  0.00    +0.000 S 
ENDBRANCH  15  16
ENDBRANCH   5  15
TORSDOF 4
ENDMDL
MODEL 5
REMARK VINA RESULT:      -7.0      2.212      4.332
REMARK  Name = 
REMARK  5 active torsions:
REMARK  status: ('A' for Active; 'I' for Inactive)
REMARK    1  A    between atoms: C_1  and  C_2
REMARK    2  A    between atoms: C_2  and  O_3
REMARK    3  A    between atoms: O_3  and  C_4
REMARK    4  A    between atoms: N_13  and  C_14
REMARK    5  A    between atoms: C_14  and  C_15
REMARK                            x       y       z     vdW  Elec       q    Type
REMARK                         _______ _______ _______ _____ _____    ______ ____
ROOT
ATOM      1  C   UNL     1       3.849   2.718  19.400  0.00  0.00    +0.000 C 
ATOM      2  C   UNL     1       3.573   4.185  19.027  0.00  0.00    +0.000 C 
ATOM      3  C   UNL     1       2.423   4.429  18.052  0.00  0.00    +0.000 C 
ATOM      4  C   UNL     1       1.832   5.755  18.515  0.00  0.00    +0.000 C 
ATOM      5  N   UNL     1       1.859   5.670  19.979  0.00  0.00    +0.000 NA
ATOM      6  C   UNL     1       3.068   4.892  20.316  0.00  0.00    +0.000 C 
ENDROOT
BRANCH   2   7
ATOM      7  O   UNL     1       4.765   4.889  18.613  0.00  0.00    +0.000 OA
BRANCH   7   8
ATOM      8  C   UNL     1       5.186   4.886  17.312  0.00  0.00    +0.000 A 
ATOM      9  C   UNL     1       4.990   5.905  16.377  0.00  0.00    +0.000 A 
ATOM     10  C   UNL     1       5.408   5.755  15.053  0.00  0.00    +0.000 A 
ATOM     11  C   UNL     1       6.061   4.591  14.662  0.00  0.00    +0.000 A 
ATOM     12 CL   UNL     1       6.552   4.405  13.025  0.00  0.00    +0.000 Cl
ATOM     13  C   UNL     1       6.307   3.583  15.589  0.00  0.00    +0.000 A 
ATOM     14  C   UNL     1       5.871   3.734  16.913  0.00  0.00    +0.000 A 
ENDBRANCH   7   8
ENDBRANCH   2   7
BRANCH   5  15
ATOM     15  C   UNL     1       1.853   7.025  20.565  0.00  0.00    +0.000 C 
BRANCH  15  16
ATOM     16  C   UNL     1       1.782   8.151  19.567  0.00  0.00    +0.000 A 
ATOM     17  C   UNL     1       2.280   8.239  18.274  0.00  0.00    +0.000 A 
ATOM     18  C   UNL     1       1.878   9.467  17.725  0.00  0.00    +0.000 A 
ATOM     19  C   UNL     1       1.188  10.134  18.706  0.00  0.00    +0.000 A 
ATOM     20  N   UNL     1       1.115   9.353  19.855  0.00  0.00    +0.000 N 
ATOM     21  C   UNL     1       0.483   9.700  21.070  0.00  0.00    +0.000 A 
ATOM     22  N   UNL     1       0.524   8.959  22.159  0.00  0.00    +0.000 NA
ATOM     23  C   UNL     1      -0.231   9.558  23.149  0.00  0.00    +0.000 A 
ATOM     24  C   UNL     1      -0.841  10.742  22.797  0.00  0.00    +0.000 A 
ATOM     25  S   UNL     1      -0.428  11.142  21.182  0.00  0.00    +0.000 S 
ENDBRANCH  15  16
ENDBRANCH   5  15
TORSDOF 4
ENDMDL
MODEL 6
REMARK VINA RESULT:      -7.0      1.178      1.385
REMARK  Name = 
REMARK  5 active torsions:
REMARK  status: ('A' for Active; 'I' for Inactive)
REMARK    1  A    between atoms: C_1  and  C_2
REMARK    2  A    between atoms: C_2  and  O_3
REMARK    3  A    between atoms: O_3  and  C_4
REMARK    4  A    between atoms: N_13  and  C_14
REMARK    5  A    between atoms: C_14  and  C_15
REMARK                            x       y       z     vdW  Elec       q    Type
REMARK                         _______ _______ _______ _____ _____    ______ ____
ROOT
ATOM      1  C   UNL     1       7.492   6.943  16.981  0.00  0.00    +0.000 C 
ATOM      2  C   UNL     1       6.484   5.856  16.570  0.00  0.00    +0.000 C 
ATOM      3  C   UNL     1       6.941   4.409  16.750  0.00  0.00    +0.000 C 
ATOM      4  C   UNL     1       5.663   3.671  17.129  0.00  0.00    +0.000 C 
ATOM      5  N   UNL     1       4.974   4.589  18.042  0.00  0.00    +0.000 NA
ATOM      6  C   UNL     1       5.290   5.949  17.561  0.00  0.00    +0.000 C 
ENDROOT
BRANCH   2   7
ATOM      7  O   UNL     1       5.940   6.069  15.249  0.00  0.00    +0.000 OA
BRANCH   7   8
ATOM      8  C   UNL     1       6.157   5.183  14.230  0.00  0.00    +0.000 A 
ATOM      9  C   UNL     1       5.277   4.186  13.801  0.00  0.00    +0.000 A 
ATOM     10  C   UNL     1       5.642   3.294  12.791  0.00  0.00    +0.000 A 
ATOM     11  C   UNL     1       6.883   3.416  12.176  0.00  0.00    +0.000 A 
ATOM     12 CL   UNL     1       7.333   2.298  10.949  0.00  0.00    +0.000 Cl
ATOM     13  C   UNL     1       7.756   4.429  12.558  0.00  0.00    +0.000 A 
ATOM     14  C   UNL     1       7.389   5.313  13.583  0.00  0.00    +0.000 A 
ENDBRANCH   7   8
ENDBRANCH   2   7
BRANCH   5  15
ATOM     15  C   UNL     1       3.528   4.296  18.058  0.00  0.00    +0.000 C 
BRANCH  15  16
ATOM     16  C   UNL     1       2.951   4.008  19.421  0.00  0.00    +0.000 A 
ATOM     17  C   UNL     1       2.932   2.832  20.159  0.00  0.00    +0.000 A 
ATOM     18  C   UNL     1       2.349   3.102  21.408  0.00  0.00    +0.000 A 
ATOM     19  C   UNL     1       1.973   4.422  21.395  0.00  0.00    +0.000 A 
ATOM     20  N   UNL     1       2.324   5.007  20.183  0.00  0.00    +0.000 N 
ATOM     21  C   UNL     1       2.103   6.350  19.801  0.00  0.00    +0.000 A 
ATOM     22  N   UNL     1       2.374   6.829  18.605  0.00  0.00    +0.000 NA
ATOM     23  C   UNL     1       2.086   8.180  18.575  0.00  0.00    +0.000 A 
ATOM     24  C   UNL     1       1.606   8.710  19.753  0.00  0.00    +0.000 A 
ATOM     25  S   UNL     1       1.476   7.471  20.930  0.00  0.00    +0.000 S 
ENDBRANCH  15  16
ENDBRANCH   5  15
TORSDOF 4
ENDMDL
MODEL 7
REMARK VINA RESULT:      -7.0      2.174      4.177
REMARK  Name = 
REMARK  5 active torsions:
REMARK  status: ('A' for Active; 'I' for Inactive)
REMARK    1  A    between atoms: C_1  and  C_2
REMARK    2  A    between atoms: C_2  and  O_3
REMARK    3  A    between atoms: O_3  and  C_4
REMARK    4  A    between atoms: N_13  and  C_14
REMARK    5  A    between atoms: C_14  and  C_15
REMARK                            x       y       z     vdW  Elec       q    Type
REMARK                         _______ _______ _______ _____ _____    ______ ____
ROOT
ATOM      1  C   UNL     1       4.346   2.809  19.542  0.00  0.00    +0.000 C 
ATOM      2  C   UNL     1       3.806   4.186  19.118  0.00  0.00    +0.000 C 
ATOM      3  C   UNL     1       2.583   4.180  18.202  0.00  0.00    +0.000 C 
ATOM      4  C   UNL     1       1.799   5.412  18.637  0.00  0.00    +0.000 C 
ATOM      5  N   UNL     1       1.914   5.414  20.099  0.00  0.00    +0.000 NA
ATOM      6  C   UNL     1       3.254   4.870  20.400  0.00  0.00    +0.000 C 
ENDROOT
BRANCH   2   7
ATOM      7  O   UNL     1       4.838   5.055  18.601  0.00  0.00    +0.000 OA
BRANCH   7   8
ATOM      8  C   UNL     1       5.322   4.920  17.329  0.00  0.00    +0.000 A 
ATOM      9  C   UNL     1       6.049   3.835  16.832  0.00  0.00    +0.000 A 
ATOM     10  C   UNL     1       6.550   3.844  15.529  0.00  0.00    +0.000 A 
ATOM     11  C   UNL     1       6.296   4.929  14.698  0.00  0.00    +0.000 A 
ATOM     12 CL   UNL     1       6.938   4.941  13.102  0.00  0.00    +0.000 Cl
ATOM     13  C   UNL     1       5.537   6.000  15.159  0.00  0.00    +0.000 A 
ATOM     14  C   UNL     1       5.048   5.991  16.473  0.00  0.00    +0.000 A 
ENDBRANCH   7   8
ENDBRANCH   2   7
BRANCH   5  15
ATOM     15  C   UNL     1       1.708   6.780  20.621  0.00  0.00    +0.000 C 
BRANCH  15  16
ATOM     16  C   UNL     1       1.790   7.875  19.590  0.00  0.00    +0.000 A 
ATOM     17  C   UNL     1       2.364   7.879  18.326  0.00  0.00    +0.000 A 
ATOM     18  C   UNL     1       2.100   9.119  17.721  0.00  0.00    +0.000 A 
ATOM     19  C   UNL     1       1.418   9.873  18.643  0.00  0.00    +0.000 A 
ATOM     20  N   UNL     1       1.215   9.138  19.806  0.00  0.00    +0.000 N 
ATOM     21  C   UNL     1       0.548   9.576  20.974  0.00  0.00    +0.000 A 
ATOM     22  N   UNL     1       0.465   8.870  22.082  0.00  0.00    +0.000 NA
ATOM     23  C   UNL     1      -0.288   9.562  23.011  0.00  0.00    +0.000 A 
ATOM     24  C   UNL     1      -0.773  10.782  22.592  0.00  0.00    +0.000 A 
ATOM     25  S   UNL     1      -0.239  11.093  20.993  0.00  0.00    +0.000 S 
ENDBRANCH  15  16
ENDBRANCH   5  15
TORSDOF 4
ENDMDL
MODEL 8
REMARK VINA RESULT:      -6.9      2.847      4.789
REMARK  Name = 
REMARK  5 active torsions:
REMARK  status: ('A' for Active; 'I' for Inactive)
REMARK    1  A    between atoms: C_1  and  C_2
REMARK    2  A    between atoms: C_2  and  O_3
REMARK    3  A    between atoms: O_3  and  C_4
REMARK    4  A    between atoms: N_13  and  C_14
REMARK    5  A    between atoms: C_14  and  C_15
REMARK                            x       y       z     vdW  Elec       q    Type
REMARK                         _______ _______ _______ _____ _____    ______ ____
ROOT
ATOM      1  C   UNL     1       3.585   1.908  18.953  0.00  0.00    +0.000 C 
ATOM      2  C   UNL     1       3.059   3.325  18.663  0.00  0.00    +0.000 C 
ATOM      3  C   UNL     1       1.552   3.456  18.453  0.00  0.00    +0.000 C 
ATOM      4  C   UNL     1       1.222   4.821  19.044  0.00  0.00    +0.000 C 
ATOM      5  N   UNL     1       2.041   4.895  20.259  0.00  0.00    +0.000 NA
ATOM      6  C   UNL     1       3.286   4.164  19.951  0.00  0.00    +0.000 C 
ENDROOT
BRANCH   2   7
ATOM      7  O   UNL     1       3.791   3.985  17.607  0.00  0.00    +0.000 OA
BRANCH   7   8
ATOM      8  C   UNL     1       4.901   4.741  17.865  0.00  0.00    +0.000 A 
ATOM      9  C   UNL     1       5.715   4.653  18.997  0.00  0.00    +0.000 A 
ATOM     10  C   UNL     1       6.786   5.531  19.181  0.00  0.00    +0.000 A 
ATOM     11  C   UNL     1       7.072   6.484  18.210  0.00  0.00    +0.000 A 
ATOM     12 CL   UNL     1       8.378   7.576  18.456  0.00  0.00    +0.000 Cl
ATOM     13  C   UNL     1       6.301   6.559  17.055  0.00  0.00    +0.000 A 
ATOM     14  C   UNL     1       5.219   5.684  16.884  0.00  0.00    +0.000 A 
ENDBRANCH   7   8
ENDBRANCH   2   7
BRANCH   5  15
ATOM     15  C   UNL     1       2.267   6.305  20.632  0.00  0.00    +0.000 C 
BRANCH  15  16
ATOM     16  C   UNL     1       2.213   7.284  19.488  0.00  0.00    +0.000 A 
ATOM     17  C   UNL     1       2.705   7.182  18.194  0.00  0.00    +0.000 A 
ATOM     18  C   UNL     1       2.324   8.331  17.481  0.00  0.00    +0.000 A 
ATOM     19  C   UNL     1       1.652   9.141  18.363  0.00  0.00    +0.000 A 
ATOM     20  N   UNL     1       1.571   8.527  19.609  0.00  0.00    +0.000 N 
ATOM     21  C   UNL     1       0.952   9.051  20.766  0.00  0.00    +0.000 A 
ATOM     22  N   UNL     1       0.984   8.467  21.946  0.00  0.00    +0.000 NA
ATOM     23  C   UNL     1       0.246   9.211  22.847  0.00  0.00    +0.000 A 
ATOM     24  C   UNL     1      -0.343  10.348  22.336  0.00  0.00    +0.000 A 
ATOM     25  S   UNL     1       0.069  10.513  20.680  0.00  0.00    +0.000 S 
ENDBRANCH  15  16
ENDBRANCH   5  15
TORSDOF 4
ENDMDL
MODEL 9
REMARK VINA RESULT:      -6.9      3.097      5.380
REMARK  Name = 
REMARK  5 active torsions:
REMARK  status: ('A' for Active; 'I' for Inactive)
REMARK    1  A    between atoms: C_1  and  C_2
REMARK    2  A    between atoms: C_2  and  O_3
REMARK    3  A    between atoms: O_3  and  C_4
REMARK    4  A    between atoms: N_13  and  C_14
REMARK    5  A    between atoms: C_14  and  C_15
REMARK                            x       y       z     vdW  Elec       q    Type
REMARK                         _______ _______ _______ _____ _____    ______ ____
ROOT
ATOM      1  C   UNL     1       1.851   4.348  19.539  0.00  0.00    +0.000 C 
ATOM      2  C   UNL     1       2.453   5.756  19.392  0.00  0.00    +0.000 C 
ATOM      3  C   UNL     1       1.997   6.563  18.178  0.00  0.00    +0.000 C 
ATOM      4  C   UNL     1       1.976   8.000  18.686  0.00  0.00    +0.000 C 
ATOM      5  N   UNL     1       1.425   7.894  20.041  0.00  0.00    +0.000 NA
ATOM      6  C   UNL     1       1.909   6.606  20.575  0.00  0.00    +0.000 C 
ENDROOT
BRANCH   2   7
ATOM      7  O   UNL     1       3.893   5.761  19.510  0.00  0.00    +0.000 OA
BRANCH   7   8
ATOM      8  C   UNL     1       4.705   5.629  18.418  0.00  0.00    +0.000 A 
ATOM      9  C   UNL     1       5.506   6.628  17.857  0.00  0.00    +0.000 A 
ATOM     10  C   UNL     1       6.241   6.389  16.694  0.00  0.00    +0.000 A 
ATOM     11  C   UNL     1       6.206   5.133  16.100  0.00  0.00    +0.000 A 
ATOM     12 CL   UNL     1       7.095   4.856  14.654  0.00  0.00    +0.000 Cl
ATOM     13  C   UNL     1       5.449   4.112  16.667  0.00  0.00    +0.000 A 
ATOM     14  C   UNL     1       4.703   4.362  17.827  0.00  0.00    +0.000 A 
ENDBRANCH   7   8
ENDBRANCH   2   7
BRANCH   5  15
ATOM     15  C   UNL     1       1.843   9.057  20.849  0.00  0.00    +0.000 C 
BRANCH  15  16
ATOM     16  C   UNL     1       0.737   9.721  21.629  0.00  0.00    +0.000 A 
ATOM     17  C   UNL     1       0.004   9.265  22.716  0.00  0.00    +0.000 A 
ATOM     18  C   UNL     1      -0.855  10.294  23.136  0.00  0.00    +0.000 A 
ATOM     19  C   UNL     1      -0.674  11.342  22.268  0.00  0.00    +0.000 A 
ATOM     20  N   UNL     1       0.296  11.020  21.325  0.00  0.00    +0.000 N 
ATOM     21  C   UNL     1       0.755  11.844  20.273  0.00  0.00    +0.000 A 
ATOM     22  N   UNL     1       1.611  11.454  19.351  0.00  0.00    +0.000 NA
ATOM     23  C   UNL     1       1.884  12.510  18.502  0.00  0.00    +0.000 A 
ATOM     24  C   UNL     1       1.236  13.690  18.795  0.00  0.00    +0.000 A 
ATOM     25  S   UNL     1       0.222  13.465  20.159  0.00  0.00    +0.000 S 
ENDBRANCH  15  16
ENDBRANCH   5  15
TORSDOF 4
ENDMDL
