MODEL 1
REMARK VINA RESULT:      -6.5      0.000      0.000
REMARK  Name = 
REMARK  15 active torsions:
REMARK  status: ('A' for Active; 'I' for Inactive)
REMARK    1  A    between atoms: C_1  and  C_2
REMARK    2  A    between atoms: C_2  and  C_3
REMARK    3  A    between atoms: C_3  and  C_4
REMARK    4  A    between atoms: C_4  and  C_5
REMARK    5  A    between atoms: C_5  and  C_6
REMARK    6  A    between atoms: C_6  and  C_7
REMARK    7  A    between atoms: C_7  and  C_8
REMARK    8  A    between atoms: C_8  and  O_9
REMARK    9  A    between atoms: O_9  and  C_10
REMARK   10  A    between atoms: C_10  and  C_12
REMARK   11  A    between atoms: C_12  and  C_13
REMARK   12  A    between atoms: C_13  and  C_14
REMARK   13  A    between atoms: C_15  and  C_16
REMARK   14  A    between atoms: C_18  and  S_19
REMARK   15  A    between atoms: C_21  and  O_22
REMARK                            x       y       z     vdW  Elec       q    Type
REMARK                         _______ _______ _______ _____ _____    ______ ____
ROOT
ATOM      1  C   UNL     1       6.065   4.490  16.948  0.00  0.00    +0.000 C 
ENDROOT
BRANCH   1   2
ATOM      2  C   UNL     1       6.742   5.109  15.754  0.00  0.00    +0.000 C 
ATOM      3  O   UNL     1       6.679   4.663  14.609  0.00  0.00    +0.000 OA
BRANCH   2   4
ATOM      4  O   UNL     1       7.541   6.130  16.159  0.00  0.00    +0.000 OA
BRANCH   4   5
ATOM      5  C   UNL     1       6.937   6.990  17.132  0.00  0.00    +0.000 C 
BRANCH   5   6
ATOM      6  C   UNL     1       7.963   7.522  18.115  0.00  0.00    +0.000 C 
BRANCH   6   7
ATOM      7  C   UNL     1       8.160   9.022  17.918  0.00  0.00    +0.000 C 
BRANCH   7   8
ATOM      8  C   UNL     1       9.073   9.600  18.993  0.00  0.00    +0.000 C 
BRANCH   8   9
ATOM      9  C   UNL     1       9.387  11.067  18.713  0.00  0.00    +0.000 C 
BRANCH   9  10
ATOM     10  C   UNL     1      10.591  11.524  19.530  0.00  0.00    +0.000 C 
BRANCH  10  12
ATOM     11  C   UNL     1      11.682  13.727  19.050  0.00  0.00    +0.000 C 
ATOM     12  C   UNL     1      10.547  13.029  19.776  0.00  0.00    +0.000 C 
ENDBRANCH  10  12
ENDBRANCH   9  10
ENDBRANCH   8   9
ENDBRANCH   7   8
ENDBRANCH   6   7
ENDBRANCH   5   6
ENDBRANCH   4   5
ENDBRANCH   2   4
ENDBRANCH   1   2
BRANCH   1  13
ATOM     13  C   UNL     1       4.645   4.073  16.585  0.00  0.00    +0.000 C 
BRANCH  13  14
ATOM     14  C   UNL     1       3.780   3.816  17.781  0.00  0.00    +0.000 A 
ATOM     15  C   UNL     1       3.056   4.777  18.471  0.00  0.00    +0.000 A 
ATOM     16  C   UNL     1       2.980   6.219  18.048  0.00  0.00    +0.000 C 
ATOM     17  N   UNL     1       2.346   4.477  19.590  0.00  0.00    +0.000 NA
ATOM     18  C   UNL     1       2.347   3.197  20.001  0.00  0.00    +0.000 A 
ATOM     19  N   UNL     1       2.962   2.186  19.377  0.00  0.00    +0.000 NA
ATOM     20  C   UNL     1       3.647   2.537  18.289  0.00  0.00    +0.000 A 
BRANCH  18  21
ATOM     21  S   UNL     1       1.473   2.813  21.493  0.00  0.00    +0.000 S 
ATOM     22  H   UNL     1       1.283   1.523  21.194  0.00  0.00    +0.000 HD
ENDBRANCH  18  21
BRANCH  20  23
ATOM     23  O   UNL     1       4.239   1.488  17.656  0.00  0.00    +0.000 OA
ATOM     24  H   UNL     1       4.454   1.880  16.789  0.00  0.00    +0.000 HD
ENDBRANCH  20  23
ENDBRANCH  13  14
ENDBRANCH   1  13
TORSDOF 13
ENDMDL
MODEL 2
REMARK VINA RESULT:      -6.4      4.533      7.727
REMARK  Name = 
REMARK  15 active torsions:
REMARK  status: ('A' for Active; 'I' for Inactive)
REMARK    1  A    between atoms: C_1  and  C_2
REMARK    2  A    between atoms: C_2  and  C_3
REMARK    3  A    between atoms: C_3  and  C_4
REMARK    4  A    between atoms: C_4  and  C_5
REMARK    5  A    between atoms: C_5  and  C_6
REMARK    6  A    between atoms: C_6  and  C_7
REMARK    7  A    between atoms: C_7  and  C_8
REMARK    8  A    between atoms: C_8  and  O_9
REMARK    9  A    between atoms: O_9  and  C_10
REMARK   10  A    between atoms: C_10  and  C_12
REMARK   11  A    between atoms: C_12  and  C_13
REMARK   12  A    between atoms: C_13  and  C_14
REMARK   13  A    between atoms: C_15  and  C_16
REMARK   14  A    between atoms: C_18  and  S_19
REMARK   15  A    between atoms: C_21  and  O_22
REMARK                            x       y       z     vdW  Elec       q    Type
REMARK                         _______ _______ _______ _____ _____    ______ ____
ROOT
ATOM      1  C   UNL     1       6.360   5.301  19.443  0.00  0.00    +0.000 C 
ENDROOT
BRANCH   1   2
ATOM      2  C   UNL     1       4.893   4.986  19.319  0.00  0.00    +0.000 C 
ATOM      3  O   UNL     1       3.990   5.810  19.454  0.00  0.00    +0.000 OA
BRANCH   2   4
ATOM      4  O   UNL     1       4.723   3.644  19.189  0.00  0.00    +0.000 OA
BRANCH   4   5
ATOM      5  C   UNL     1       4.047   3.258  17.986  0.00  0.00    +0.000 C 
BRANCH   5   6
ATOM      6  C   UNL     1       3.534   1.833  18.072  0.00  0.00    +0.000 C 
BRANCH   6   7
ATOM      7  C   UNL     1       2.024   1.822  18.283  0.00  0.00    +0.000 C 
BRANCH   7   8
ATOM      8  C   UNL     1       1.469   3.240  18.346  0.00  0.00    +0.000 C 
BRANCH   8   9
ATOM      9  C   UNL     1       0.569   3.422  19.565  0.00  0.00    +0.000 C 
BRANCH   9  10
ATOM     10  C   UNL     1       1.180   4.424  20.539  0.00  0.00    +0.000 C 
BRANCH  10  12
ATOM     11  C   UNL     1       1.563   2.408  21.977  0.00  0.00    +0.000 C 
ATOM     12  C   UNL     1       2.136   3.733  21.506  0.00  0.00    +0.000 C 
ENDBRANCH  10  12
ENDBRANCH   9  10
ENDBRANCH   8   9
ENDBRANCH   7   8
ENDBRANCH   6   7
ENDBRANCH   5   6
ENDBRANCH   4   5
ENDBRANCH   2   4
ENDBRANCH   1   2
BRANCH   1  13
ATOM     13  C   UNL     1       6.790   6.233  18.317  0.00  0.00    +0.000 C 
BRANCH  13  14
ATOM     14  C   UNL     1       6.535   5.671  16.952  0.00  0.00    +0.000 A 
ATOM     15  C   UNL     1       5.587   6.139  16.054  0.00  0.00    +0.000 A 
ATOM     16  C   UNL     1       4.731   7.350  16.309  0.00  0.00    +0.000 C 
ATOM     17  N   UNL     1       5.367   5.533  14.858  0.00  0.00    +0.000 NA
ATOM     18  C   UNL     1       6.124   4.463  14.556  0.00  0.00    +0.000 A 
ATOM     19  N   UNL     1       7.102   3.969  15.324  0.00  0.00    +0.000 NA
ATOM     20  C   UNL     1       7.270   4.598  16.486  0.00  0.00    +0.000 A 
BRANCH  18  21
ATOM     21  S   UNL     1       5.800   3.633  13.026  0.00  0.00    +0.000 S 
ATOM     22  H   UNL     1       6.440   4.528  12.265  0.00  0.00    +0.000 HD
ENDBRANCH  18  21
BRANCH  20  23
ATOM     23  O   UNL     1       8.289   4.094  17.236  0.00  0.00    +0.000 OA
ATOM     24  H   UNL     1       7.802   3.656  17.957  0.00  0.00    +0.000 HD
ENDBRANCH  20  23
ENDBRANCH  13  14
ENDBRANCH   1  13
TORSDOF 13
ENDMDL
MODEL 3
REMARK VINA RESULT:      -6.3      4.121      7.021
REMARK  Name = 
REMARK  15 active torsions:
REMARK  status: ('A' for Active; 'I' for Inactive)
REMARK    1  A    between atoms: C_1  and  C_2
REMARK    2  A    between atoms: C_2  and  C_3
REMARK    3  A    between atoms: C_3  and  C_4
REMARK    4  A    between atoms: C_4  and  C_5
REMARK    5  A    between atoms: C_5  and  C_6
REMARK    6  A    between atoms: C_6  and  C_7
REMARK    7  A    between atoms: C_7  and  C_8
REMARK    8  A    between atoms: C_8  and  O_9
REMARK    9  A    between atoms: O_9  and  C_10
REMARK   10  A    between atoms: C_10  and  C_12
REMARK   11  A    between atoms: C_12  and  C_13
REMARK   12  A    between atoms: C_13  and  C_14
REMARK   13  A    between atoms: C_15  and  C_16
REMARK   14  A    between atoms: C_18  and  S_19
REMARK   15  A    between atoms: C_21  and  O_22
REMARK                            x       y       z     vdW  Elec       q    Type
REMARK                         _______ _______ _______ _____ _____    ______ ____
ROOT
ATOM      1  C   UNL     1       6.741   4.879  18.129  0.00  0.00    +0.000 C 
ENDROOT
BRANCH   1   2
ATOM      2  C   UNL     1       6.550   5.500  16.771  0.00  0.00    +0.000 C 
ATOM      3  O   UNL     1       6.083   6.622  16.578  0.00  0.00    +0.000 OA
BRANCH   2   4
ATOM      4  O   UNL     1       6.828   4.585  15.806  0.00  0.00    +0.000 OA
BRANCH   4   5
ATOM      5  C   UNL     1       6.344   4.946  14.507  0.00  0.00    +0.000 C 
BRANCH   5   6
ATOM      6  C   UNL     1       7.407   4.744  13.444  0.00  0.00    +0.000 C 
BRANCH   6   7
ATOM      7  C   UNL     1       6.943   3.717  12.416  0.00  0.00    +0.000 C 
BRANCH   7   8
ATOM      8  C   UNL     1       5.428   3.552  12.452  0.00  0.00    +0.000 C 
BRANCH   8   9
ATOM      9  C   UNL     1       4.921   2.878  11.180  0.00  0.00    +0.000 C 
BRANCH   9  10
ATOM     10  C   UNL     1       3.463   3.245  10.923  0.00  0.00    +0.000 C 
BRANCH  10  12
ATOM     11  C   UNL     1       2.258   4.836   9.409  0.00  0.00    +0.000 C 
ATOM     12  C   UNL     1       3.258   3.697   9.480  0.00  0.00    +0.000 C 
ENDBRANCH  10  12
ENDBRANCH   9  10
ENDBRANCH   8   9
ENDBRANCH   7   8
ENDBRANCH   6   7
ENDBRANCH   5   6
ENDBRANCH   4   5
ENDBRANCH   2   4
ENDBRANCH   1   2
BRANCH   1  13
ATOM     13  C   UNL     1       5.712   5.434  19.106  0.00  0.00    +0.000 C 
BRANCH  13  14
ATOM     14  C   UNL     1       4.369   4.780  18.987  0.00  0.00    +0.000 A 
ATOM     15  C   UNL     1       3.208   5.403  18.552  0.00  0.00    +0.000 A 
ATOM     16  C   UNL     1       3.166   6.822  18.055  0.00  0.00    +0.000 C 
ATOM     17  N   UNL     1       2.011   4.762  18.537  0.00  0.00    +0.000 NA
ATOM     18  C   UNL     1       1.988   3.478  18.939  0.00  0.00    +0.000 A 
ATOM     19  N   UNL     1       3.057   2.771  19.320  0.00  0.00    +0.000 NA
ATOM     20  C   UNL     1       4.204   3.450  19.322  0.00  0.00    +0.000 A 
BRANCH  18  21
ATOM     21  S   UNL     1       0.419   2.657  18.977  0.00  0.00    +0.000 S 
ATOM     22  H   UNL     1       0.823   1.662  19.775  0.00  0.00    +0.000 HD
ENDBRANCH  18  21
BRANCH  20  23
ATOM     23  O   UNL     1       5.281   2.701  19.686  0.00  0.00    +0.000 OA
ATOM     24  H   UNL     1       6.001   3.355  19.628  0.00  0.00    +0.000 HD
ENDBRANCH  20  23
ENDBRANCH  13  14
ENDBRANCH   1  13
TORSDOF 13
ENDMDL
MODEL 4
REMARK VINA RESULT:      -6.1      4.132      7.057
REMARK  Name = 
REMARK  15 active torsions:
REMARK  status: ('A' for Active; 'I' for Inactive)
REMARK    1  A    between atoms: C_1  and  C_2
REMARK    2  A    between atoms: C_2  and  C_3
REMARK    3  A    between atoms: C_3  and  C_4
REMARK    4  A    between atoms: C_4  and  C_5
REMARK    5  A    between atoms: C_5  and  C_6
REMARK    6  A    between atoms: C_6  and  C_7
REMARK    7  A    between atoms: C_7  and  C_8
REMARK    8  A    between atoms: C_8  and  O_9
REMARK    9  A    between atoms: O_9  and  C_10
REMARK   10  A    between atoms: C_10  and  C_12
REMARK   11  A    between atoms: C_12  and  C_13
REMARK   12  A    between atoms: C_13  and  C_14
REMARK   13  A    between atoms: C_15  and  C_16
REMARK   14  A    between atoms: C_18  and  S_19
REMARK   15  A    between atoms: C_21  and  O_22
REMARK                            x       y       z     vdW  Elec       q    Type
REMARK                         _______ _______ _______ _____ _____    ______ ____
ROOT
ATOM      1  C   UNL     1       4.959   4.308  18.756  0.00  0.00    +0.000 C 
ENDROOT
BRANCH   1   2
ATOM      2  C   UNL     1       4.057   3.318  18.067  0.00  0.00    +0.000 C 
ATOM      3  O   UNL     1       3.766   3.354  16.872  0.00  0.00    +0.000 OA
BRANCH   2   4
ATOM      4  O   UNL     1       3.505   2.485  18.988  0.00  0.00    +0.000 OA
BRANCH   4   5
ATOM      5  C   UNL     1       2.162   2.828  19.349  0.00  0.00    +0.000 C 
BRANCH   5   6
ATOM      6  C   UNL     1       2.003   2.937  20.854  0.00  0.00    +0.000 C 
BRANCH   6   7
ATOM      7  C   UNL     1       2.192   4.381  21.305  0.00  0.00    +0.000 C 
BRANCH   7   8
ATOM      8  C   UNL     1       1.455   5.345  20.383  0.00  0.00    +0.000 C 
BRANCH   8   9
ATOM      9  C   UNL     1       2.336   6.537  20.019  0.00  0.00    +0.000 C 
BRANCH   9  10
ATOM     10  C   UNL     1       1.634   7.847  20.359  0.00  0.00    +0.000 C 
BRANCH  10  12
ATOM     11  C   UNL     1       2.466   8.240  18.029  0.00  0.00    +0.000 C 
ATOM     12  C   UNL     1       1.594   8.776  19.150  0.00  0.00    +0.000 C 
ENDBRANCH  10  12
ENDBRANCH   9  10
ENDBRANCH   8   9
ENDBRANCH   7   8
ENDBRANCH   6   7
ENDBRANCH   5   6
ENDBRANCH   4   5
ENDBRANCH   2   4
ENDBRANCH   1   2
BRANCH   1  13
ATOM     13  C   UNL     1       6.267   4.446  17.987  0.00  0.00    +0.000 C 
BRANCH  13  14
ATOM     14  C   UNL     1       6.795   5.848  17.962  0.00  0.00    +0.000 A 
ATOM     15  C   UNL     1       6.364   6.854  17.109  0.00  0.00    +0.000 A 
ATOM     16  C   UNL     1       5.229   6.685  16.136  0.00  0.00    +0.000 C 
ATOM     17  N   UNL     1       6.940   8.084  17.099  0.00  0.00    +0.000 NA
ATOM     18  C   UNL     1       7.939   8.309  17.971  0.00  0.00    +0.000 A 
ATOM     19  N   UNL     1       8.389   7.429  18.872  0.00  0.00    +0.000 NA
ATOM     20  C   UNL     1       7.793   6.237  18.834  0.00  0.00    +0.000 A 
BRANCH  18  21
ATOM     21  S   UNL     1       8.732   9.892  17.920  0.00  0.00    +0.000 S 
ATOM     22  H   UNL     1       8.623  10.124  19.233  0.00  0.00    +0.000 HD
ENDBRANCH  18  21
BRANCH  20  23
ATOM     23  O   UNL     1       8.249   5.370  19.778  0.00  0.00    +0.000 OA
ATOM     24  H   UNL     1       9.097   5.087  19.390  0.00  0.00    +0.000 HD
ENDBRANCH  20  23
ENDBRANCH  13  14
ENDBRANCH   1  13
TORSDOF 13
ENDMDL
MODEL 5
REMARK VINA RESULT:      -6.1      3.968      7.893
REMARK  Name = 
REMARK  15 active torsions:
REMARK  status: ('A' for Active; 'I' for Inactive)
REMARK    1  A    between atoms: C_1  and  C_2
REMARK    2  A    between atoms: C_2  and  C_3
REMARK    3  A    between atoms: C_3  and  C_4
REMARK    4  A    between atoms: C_4  and  C_5
REMARK    5  A    between atoms: C_5  and  C_6
REMARK    6  A    between atoms: C_6  and  C_7
REMARK    7  A    between atoms: C_7  and  C_8
REMARK    8  A    between atoms: C_8  and  O_9
REMARK    9  A    between atoms: O_9  and  C_10
REMARK   10  A    between atoms: C_10  and  C_12
REMARK   11  A    between atoms: C_12  and  C_13
REMARK   12  A    between atoms: C_13  and  C_14
REMARK   13  A    between atoms: C_15  and  C_16
REMARK   14  A    between atoms: C_18  and  S_19
REMARK   15  A    between atoms: C_21  and  O_22
REMARK                            x       y       z     vdW  Elec       q    Type
REMARK                         _______ _______ _______ _____ _____    ______ ____
ROOT
ATOM      1  C   UNL     1       5.388   4.207  18.565  0.00  0.00    +0.000 C 
ENDROOT
BRANCH   1   2
ATOM      2  C   UNL     1       4.295   3.851  17.594  0.00  0.00    +0.000 C 
ATOM      3  O   UNL     1       3.886   2.707  17.394  0.00  0.00    +0.000 OA
BRANCH   2   4
ATOM      4  O   UNL     1       3.943   4.949  16.876  0.00  0.00    +0.000 OA
BRANCH   4   5
ATOM      5  C   UNL     1       3.570   6.074  17.681  0.00  0.00    +0.000 C 
BRANCH   5   6
ATOM      6  C   UNL     1       2.246   5.838  18.383  0.00  0.00    +0.000 C 
BRANCH   6   7
ATOM      7  C   UNL     1       2.291   6.392  19.804  0.00  0.00    +0.000 C 
BRANCH   7   8
ATOM      8  C   UNL     1       2.248   5.267  20.832  0.00  0.00    +0.000 C 
BRANCH   8   9
ATOM      9  C   UNL     1       1.040   4.364  20.605  0.00  0.00    +0.000 C 
BRANCH   9  10
ATOM     10  C   UNL     1       1.341   2.940  21.062  0.00  0.00    +0.000 C 
BRANCH  10  12
ATOM     11  C   UNL     1       0.747   2.396  18.689  0.00  0.00    +0.000 C 
ATOM     12  C   UNL     1       1.629   2.032  19.870  0.00  0.00    +0.000 C 
ENDBRANCH  10  12
ENDBRANCH   9  10
ENDBRANCH   8   9
ENDBRANCH   7   8
ENDBRANCH   6   7
ENDBRANCH   5   6
ENDBRANCH   4   5
ENDBRANCH   2   4
ENDBRANCH   1   2
BRANCH   1  13
ATOM     13  C   UNL     1       6.711   4.368  17.826  0.00  0.00    +0.000 C 
BRANCH  13  14
ATOM     14  C   UNL     1       7.286   5.747  17.934  0.00  0.00    +0.000 A 
ATOM     15  C   UNL     1       8.032   6.226  19.001  0.00  0.00    +0.000 A 
ATOM     16  C   UNL     1       8.437   5.376  20.176  0.00  0.00    +0.000 C 
ATOM     17  N   UNL     1       8.463   7.513  19.059  0.00  0.00    +0.000 NA
ATOM     18  C   UNL     1       8.161   8.315  18.022  0.00  0.00    +0.000 A 
ATOM     19  N   UNL     1       7.501   7.938  16.922  0.00  0.00    +0.000 NA
ATOM     20  C   UNL     1       7.096   6.668  16.922  0.00  0.00    +0.000 A 
BRANCH  18  21
ATOM     21  S   UNL     1       8.669  10.009  18.120  0.00  0.00    +0.000 S 
ATOM     22  H   UNL     1       7.432  10.511  18.030  0.00  0.00    +0.000 HD
ENDBRANCH  18  21
BRANCH  20  23
ATOM     23  O   UNL     1       6.452   6.301  15.780  0.00  0.00    +0.000 OA
ATOM     24  H   UNL     1       6.022   5.471  16.057  0.00  0.00    +0.000 HD
ENDBRANCH  20  23
ENDBRANCH  13  14
ENDBRANCH   1  13
TORSDOF 13
ENDMDL
MODEL 6
REMARK VINA RESULT:      -6.1      3.720      6.933
REMARK  Name = 
REMARK  15 active torsions:
REMARK  status: ('A' for Active; 'I' for Inactive)
REMARK    1  A    between atoms: C_1  and  C_2
REMARK    2  A    between atoms: C_2  and  C_3
REMARK    3  A    between atoms: C_3  and  C_4
REMARK    4  A    between atoms: C_4  and  C_5
REMARK    5  A    between atoms: C_5  and  C_6
REMARK    6  A    between atoms: C_6  and  C_7
REMARK    7  A    between atoms: C_7  and  C_8
REMARK    8  A    between atoms: C_8  and  O_9
REMARK    9  A    between atoms: O_9  and  C_10
REMARK   10  A    between atoms: C_10  and  C_12
REMARK   11  A    between atoms: C_12  and  C_13
REMARK   12  A    between atoms: C_13  and  C_14
REMARK   13  A    between atoms: C_15  and  C_16
REMARK   14  A    between atoms: C_18  and  S_19
REMARK   15  A    between atoms: C_21  and  O_22
REMARK                            x       y       z     vdW  Elec       q    Type
REMARK                         _______ _______ _______ _____ _____    ______ ____
ROOT
ATOM      1  C   UNL     1       5.636   6.168  16.491  0.00  0.00    +0.000 C 
ENDROOT
BRANCH   1   2
ATOM      2  C   UNL     1       7.136   6.254  16.401  0.00  0.00    +0.000 C 
ATOM      3  O   UNL     1       7.808   7.190  16.834  0.00  0.00    +0.000 OA
BRANCH   2   4
ATOM      4  O   UNL     1       7.609   5.228  15.646  0.00  0.00    +0.000 OA
BRANCH   4   5
ATOM      5  C   UNL     1       6.765   4.884  14.540  0.00  0.00    +0.000 C 
BRANCH   5   6
ATOM      6  C   UNL     1       7.527   4.108  13.482  0.00  0.00    +0.000 C 
BRANCH   6   7
ATOM      7  C   UNL     1       6.919   4.351  12.104  0.00  0.00    +0.000 C 
BRANCH   7   8
ATOM      8  C   UNL     1       6.747   3.041  11.344  0.00  0.00    +0.000 C 
BRANCH   8   9
ATOM      9  C   UNL     1       5.418   2.376  11.693  0.00  0.00    +0.000 C 
BRANCH   9  10
ATOM     10  C   UNL     1       4.276   3.384  11.611  0.00  0.00    +0.000 C 
BRANCH  10  12
ATOM     11  C   UNL     1       2.981   4.276   9.661  0.00  0.00    +0.000 C 
ATOM     12  C   UNL     1       3.322   3.038  10.471  0.00  0.00    +0.000 C 
ENDBRANCH  10  12
ENDBRANCH   9  10
ENDBRANCH   8   9
ENDBRANCH   7   8
ENDBRANCH   6   7
ENDBRANCH   5   6
ENDBRANCH   4   5
ENDBRANCH   2   4
ENDBRANCH   1   2
BRANCH   1  13
ATOM     13  C   UNL     1       5.203   6.118  17.951  0.00  0.00    +0.000 C 
BRANCH  13  14
ATOM     14  C   UNL     1       4.036   5.209  18.192  0.00  0.00    +0.000 A 
ATOM     15  C   UNL     1       2.778   5.612  18.615  0.00  0.00    +0.000 A 
ATOM     16  C   UNL     1       2.391   7.053  18.811  0.00  0.00    +0.000 C 
ATOM     17  N   UNL     1       1.787   4.721  18.879  0.00  0.00    +0.000 NA
ATOM     18  C   UNL     1       2.060   3.417  18.690  0.00  0.00    +0.000 A 
ATOM     19  N   UNL     1       3.217   2.929  18.231  0.00  0.00    +0.000 NA
ATOM     20  C   UNL     1       4.155   3.847  17.995  0.00  0.00    +0.000 A 
BRANCH  18  21
ATOM     21  S   UNL     1       0.791   2.247  19.090  0.00  0.00    +0.000 S 
ATOM     22  H   UNL     1      -0.026   3.143  19.655  0.00  0.00    +0.000 HD
ENDBRANCH  18  21
BRANCH  20  23
ATOM     23  O   UNL     1       5.313   3.329  17.501  0.00  0.00    +0.000 OA
ATOM     24  H   UNL     1       4.988   2.827  16.731  0.00  0.00    +0.000 HD
ENDBRANCH  20  23
ENDBRANCH  13  14
ENDBRANCH   1  13
TORSDOF 13
ENDMDL
MODEL 7
REMARK VINA RESULT:      -6.0      4.561      7.026
REMARK  Name = 
REMARK  15 active torsions:
REMARK  status: ('A' for Active; 'I' for Inactive)
REMARK    1  A    between atoms: C_1  and  C_2
REMARK    2  A    between atoms: C_2  and  C_3
REMARK    3  A    between atoms: C_3  and  C_4
REMARK    4  A    between atoms: C_4  and  C_5
REMARK    5  A    between atoms: C_5  and  C_6
REMARK    6  A    between atoms: C_6  and  C_7
REMARK    7  A    between atoms: C_7  and  C_8
REMARK    8  A    between atoms: C_8  and  O_9
REMARK    9  A    between atoms: O_9  and  C_10
REMARK   10  A    between atoms: C_10  and  C_12
REMARK   11  A    between atoms: C_12  and  C_13
REMARK   12  A    between atoms: C_13  and  C_14
REMARK   13  A    between atoms: C_15  and  C_16
REMARK   14  A    between atoms: C_18  and  S_19
REMARK   15  A    between atoms: C_21  and  O_22
REMARK                            x       y       z     vdW  Elec       q    Type
REMARK                         _______ _______ _______ _____ _____    ______ ____
ROOT
ATOM      1  C   UNL     1       4.541   3.471  18.627  0.00  0.00    +0.000 C 
ENDROOT
BRANCH   1   2
ATOM      2  C   UNL     1       5.803   4.182  18.218  0.00  0.00    +0.000 C 
ATOM      3  O   UNL     1       6.534   4.803  18.990  0.00  0.00    +0.000 OA
BRANCH   2   4
ATOM      4  O   UNL     1       5.924   4.160  16.865  0.00  0.00    +0.000 OA
BRANCH   4   5
ATOM      5  C   UNL     1       6.793   5.173  16.343  0.00  0.00    +0.000 C 
BRANCH   5   6
ATOM      6  C   UNL     1       7.110   4.929  14.879  0.00  0.00    +0.000 C 
BRANCH   6   7
ATOM      7  C   UNL     1       6.009   4.100  14.227  0.00  0.00    +0.000 C 
BRANCH   7   8
ATOM      8  C   UNL     1       6.363   3.756  12.785  0.00  0.00    +0.000 C 
BRANCH   8   9
ATOM      9  C   UNL     1       5.346   2.788  12.187  0.00  0.00    +0.000 C 
BRANCH   9  10
ATOM     10  C   UNL     1       4.855   3.294  10.835  0.00  0.00    +0.000 C 
BRANCH  10  12
ATOM     11  C   UNL     1       2.883   4.136   9.537  0.00  0.00    +0.000 C 
ATOM     12  C   UNL     1       3.381   3.685  10.899  0.00  0.00    +0.000 C 
ENDBRANCH  10  12
ENDBRANCH   9  10
ENDBRANCH   8   9
ENDBRANCH   7   8
ENDBRANCH   6   7
ENDBRANCH   5   6
ENDBRANCH   4   5
ENDBRANCH   2   4
ENDBRANCH   1   2
BRANCH   1  13
ATOM     13  C   UNL     1       3.333   4.140  17.983  0.00  0.00    +0.000 C 
BRANCH  13  14
ATOM     14  C   UNL     1       2.787   5.279  18.789  0.00  0.00    +0.000 A 
ATOM     15  C   UNL     1       3.019   6.624  18.540  0.00  0.00    +0.000 A 
ATOM     16  C   UNL     1       3.799   7.125  17.354  0.00  0.00    +0.000 C 
ATOM     17  N   UNL     1       2.545   7.599  19.358  0.00  0.00    +0.000 NA
ATOM     18  C   UNL     1       1.811   7.217  20.418  0.00  0.00    +0.000 A 
ATOM     19  N   UNL     1       1.481   5.955  20.714  0.00  0.00    +0.000 NA
ATOM     20  C   UNL     1       1.978   5.039  19.883  0.00  0.00    +0.000 A 
BRANCH  18  21
ATOM     21  S   UNL     1       1.241   8.481  21.520  0.00  0.00    +0.000 S 
ATOM     22  H   UNL     1       2.436   8.704  22.078  0.00  0.00    +0.000 HD
ENDBRANCH  18  21
BRANCH  20  23
ATOM     23  O   UNL     1       1.604   3.767  20.188  0.00  0.00    +0.000 OA
ATOM     24  H   UNL     1       1.219   3.884  21.076  0.00  0.00    +0.000 HD
ENDBRANCH  20  23
ENDBRANCH  13  14
ENDBRANCH   1  13
TORSDOF 13
ENDMDL
MODEL 8
REMARK VINA RESULT:      -6.0      3.906      6.925
REMARK  Name = 
REMARK  15 active torsions:
REMARK  status: ('A' for Active; 'I' for Inactive)
REMARK    1  A    between atoms: C_1  and  C_2
REMARK    2  A    between atoms: C_2  and  C_3
REMARK    3  A    between atoms: C_3  and  C_4
REMARK    4  A    between atoms: C_4  and  C_5
REMARK    5  A    between atoms: C_5  and  C_6
REMARK    6  A    between atoms: C_6  and  C_7
REMARK    7  A    between atoms: C_7  and  C_8
REMARK    8  A    between atoms: C_8  and  O_9
REMARK    9  A    between atoms: O_9  and  C_10
REMARK   10  A    between atoms: C_10  and  C_12
REMARK   11  A    between atoms: C_12  and  C_13
REMARK   12  A    between atoms: C_13  and  C_14
REMARK   13  A    between atoms: C_15  and  C_16
REMARK   14  A    between atoms: C_18  and  S_19
REMARK   15  A    between atoms: C_21  and  O_22
REMARK                            x       y       z     vdW  Elec       q    Type
REMARK                         _______ _______ _______ _____ _____    ______ ____
ROOT
ATOM      1  C   UNL     1       5.679   6.116  17.778  0.00  0.00    +0.000 C 
ENDROOT
BRANCH   1   2
ATOM      2  C   UNL     1       6.613   5.216  17.014  0.00  0.00    +0.000 C 
ATOM      3  O   UNL     1       7.734   4.888  17.399  0.00  0.00    +0.000 OA
BRANCH   2   4
ATOM      4  O   UNL     1       6.093   4.954  15.786  0.00  0.00    +0.000 OA
BRANCH   4   5
ATOM      5  C   UNL     1       6.751   5.646  14.717  0.00  0.00    +0.000 C 
BRANCH   5   6
ATOM      6  C   UNL     1       7.016   4.725  13.542  0.00  0.00    +0.000 C 
BRANCH   6   7
ATOM      7  C   UNL     1       6.114   3.497  13.614  0.00  0.00    +0.000 C 
BRANCH   7   8
ATOM      8  C   UNL     1       5.719   3.025  12.219  0.00  0.00    +0.000 C 
BRANCH   8   9
ATOM      9  C   UNL     1       4.416   3.679  11.769  0.00  0.00    +0.000 C 
BRANCH   9  10
ATOM     10  C   UNL     1       4.231   3.526  10.263  0.00  0.00    +0.000 C 
BRANCH  10  12
ATOM     11  C   UNL     1       2.436   4.818   9.086  0.00  0.00    +0.000 C 
ATOM     12  C   UNL     1       2.753   3.568   9.886  0.00  0.00    +0.000 C 
ENDBRANCH  10  12
ENDBRANCH   9  10
ENDBRANCH   8   9
ENDBRANCH   7   8
ENDBRANCH   6   7
ENDBRANCH   5   6
ENDBRANCH   4   5
ENDBRANCH   2   4
ENDBRANCH   1   2
BRANCH   1  13
ATOM     13  C   UNL     1       4.234   5.805  17.407  0.00  0.00    +0.000 C 
BRANCH  13  14
ATOM     14  C   UNL     1       3.497   5.053  18.473  0.00  0.00    +0.000 A 
ATOM     15  C   UNL     1       2.690   5.623  19.447  0.00  0.00    +0.000 A 
ATOM     16  C   UNL     1       2.379   7.094  19.509  0.00  0.00    +0.000 C 
ATOM     17  N   UNL     1       2.108   4.880  20.424  0.00  0.00    +0.000 NA
ATOM     18  C   UNL     1       2.321   3.552  20.403  0.00  0.00    +0.000 A 
ATOM     19  N   UNL     1       3.031   2.898  19.477  0.00  0.00    +0.000 NA
ATOM     20  C   UNL     1       3.584   3.676  18.547  0.00  0.00    +0.000 A 
BRANCH  18  21
ATOM     21  S   UNL     1       1.613   2.587  21.710  0.00  0.00    +0.000 S 
ATOM     22  H   UNL     1       2.702   2.619  22.486  0.00  0.00    +0.000 HD
ENDBRANCH  18  21
BRANCH  20  23
ATOM     23  O   UNL     1       4.277   2.986  17.601  0.00  0.00    +0.000 OA
ATOM     24  H   UNL     1       4.637   3.709  17.056  0.00  0.00    +0.000 HD
ENDBRANCH  20  23
ENDBRANCH  13  14
ENDBRANCH   1  13
TORSDOF 13
ENDMDL
MODEL 9
REMARK VINA RESULT:      -6.0      4.032      6.558
REMARK  Name = 
REMARK  15 active torsions:
REMARK  status: ('A' for Active; 'I' for Inactive)
REMARK    1  A    between atoms: C_1  and  C_2
REMARK    2  A    between atoms: C_2  and  C_3
REMARK    3  A    between atoms: C_3  and  C_4
REMARK    4  A    between atoms: C_4  and  C_5
REMARK    5  A    between atoms: C_5  and  C_6
REMARK    6  A    between atoms: C_6  and  C_7
REMARK    7  A    between atoms: C_7  and  C_8
REMARK    8  A    between atoms: C_8  and  O_9
REMARK    9  A    between atoms: O_9  and  C_10
REMARK   10  A    between atoms: C_10  and  C_12
REMARK   11  A    between atoms: C_12  and  C_13
REMARK   12  A    between atoms: C_13  and  C_14
REMARK   13  A    between atoms: C_15  and  C_16
REMARK   14  A    between atoms: C_18  and  S_19
REMARK   15  A    between atoms: C_21  and  O_22
REMARK                            x       y       z     vdW  Elec       q    Type
REMARK                         _______ _______ _______ _____ _____    ______ ____
ROOT
ATOM      1  C   UNL     1       5.847   5.777  18.729  0.00  0.00    +0.000 C 
ENDROOT
BRANCH   1   2
ATOM      2  C   UNL     1       6.938   4.911  18.158  0.00  0.00    +0.000 C 
ATOM      3  O   UNL     1       8.114   4.944  18.519  0.00  0.00    +0.000 OA
BRANCH   2   4
ATOM      4  O   UNL     1       6.460   4.212  17.096  0.00  0.00    +0.000 OA
BRANCH   4   5
ATOM      5  C   UNL     1       7.301   4.267  15.937  0.00  0.00    +0.000 C 
BRANCH   5   6
ATOM      6  C   UNL     1       6.881   5.383  15.000  0.00  0.00    +0.000 C 
BRANCH   6   7
ATOM      7  C   UNL     1       6.987   4.927  13.548  0.00  0.00    +0.000 C 
BRANCH   7   8
ATOM      8  C   UNL     1       6.070   3.740  13.278  0.00  0.00    +0.000 C 
BRANCH   8   9
ATOM      9  C   UNL     1       6.442   3.048  11.970  0.00  0.00    +0.000 C 
BRANCH   9  10
ATOM     10  C   UNL     1       5.232   2.330  11.379  0.00  0.00    +0.000 C 
BRANCH  10  12
ATOM     11  C   UNL     1       3.412   3.637  10.259  0.00  0.00    +0.000 C 
ATOM     12  C   UNL     1       3.959   3.144  11.587  0.00  0.00    +0.000 C 
ENDBRANCH  10  12
ENDBRANCH   9  10
ENDBRANCH   8   9
ENDBRANCH   7   8
ENDBRANCH   6   7
ENDBRANCH   5   6
ENDBRANCH   4   5
ENDBRANCH   2   4
ENDBRANCH   1   2
BRANCH   1  13
ATOM     13  C   UNL     1       4.501   5.377  18.137  0.00  0.00    +0.000 C 
BRANCH  13  14
ATOM     14  C   UNL     1       3.610   4.673  19.114  0.00  0.00    +0.000 A 
ATOM     15  C   UNL     1       2.670   5.285  19.931  0.00  0.00    +0.000 A 
ATOM     16  C   UNL     1       2.361   6.757  19.880  0.00  0.00    +0.000 C 
ATOM     17  N   UNL     1       1.946   4.586  20.843  0.00  0.00    +0.000 NA
ATOM     18  C   UNL     1       2.151   3.259  20.914  0.00  0.00    +0.000 A 
ATOM     19  N   UNL     1       2.988   2.565  20.135  0.00  0.00    +0.000 NA
ATOM     20  C   UNL     1       3.677   3.301  19.263  0.00  0.00    +0.000 A 
BRANCH  18  21
ATOM     21  S   UNL     1       1.253   2.354  22.143  0.00  0.00    +0.000 S 
ATOM     22  H   UNL     1       0.788   1.429  21.296  0.00  0.00    +0.000 HD
ENDBRANCH  18  21
BRANCH  20  23
ATOM     23  O   UNL     1       4.500   2.569  18.462  0.00  0.00    +0.000 OA
ATOM     24  H   UNL     1       4.356   1.669  18.807  0.00  0.00    +0.000 HD
ENDBRANCH  20  23
ENDBRANCH  13  14
ENDBRANCH   1  13
TORSDOF 13
ENDMDL
