MODEL 1
REMARK VINA RESULT:      -7.1      0.000      0.000
REMARK  Name = 
REMARK  1 active torsions:
REMARK  status: ('A' for Active; 'I' for Inactive)
REMARK    1  A    between atoms: O_1  and  C_2
REMARK                            x       y       z     vdW  Elec       q    Type
REMARK                         _______ _______ _______ _____ _____    ______ ____
ROOT
ATOM      1  C   UNL     1       7.149   5.885  17.255  0.00  0.00    +0.000 A 
ATOM      2  C   UNL     1       7.865   6.218  18.391  0.00  0.00    +0.000 A 
ATOM      3  C   UNL     1       7.408   5.714  19.587  0.00  0.00    +0.000 A 
ATOM      4  N   UNL     1       6.316   4.929  19.702  0.00  0.00    +0.000 NA
ATOM      5  C   UNL     1       5.600   4.592  18.596  0.00  0.00    +0.000 A 
ATOM      6  C   UNL     1       6.005   5.069  17.328  0.00  0.00    +0.000 A 
ATOM      7  C   UNL     1       5.277   4.730  16.176  0.00  0.00    +0.000 A 
ATOM      8  C   UNL     1       4.154   3.924  16.266  0.00  0.00    +0.000 A 
ATOM      9  C   UNL     1       3.741   3.446  17.509  0.00  0.00    +0.000 A 
ATOM     10  C   UNL     1       2.605   2.631  17.595  0.00  0.00    +0.000 A 
ATOM     11  C   UNL     1       2.185   2.150  18.826  0.00  0.00    +0.000 A 
ATOM     12  C   UNL     1       2.923   2.505  19.933  0.00  0.00    +0.000 A 
ATOM     13  N   UNL     1       4.023   3.288  19.885  0.00  0.00    +0.000 NA
ATOM     14  C   UNL     1       4.455   3.771  18.689  0.00  0.00    +0.000 A 
ENDROOT
BRANCH   1  15
ATOM     15  O   UNL     1       7.558   6.359  16.035  0.00  0.00    +0.000 OA
ATOM     16  H   UNL     1       7.629   5.620  15.409  0.00  0.00    +0.000 HD
ENDBRANCH   1  15
TORSDOF 1
ENDMDL
MODEL 2
REMARK VINA RESULT:      -7.1      1.418      1.547
REMARK  Name = 
REMARK  1 active torsions:
REMARK  status: ('A' for Active; 'I' for Inactive)
REMARK    1  A    between atoms: O_1  and  C_2
REMARK                            x       y       z     vdW  Elec       q    Type
REMARK                         _______ _______ _______ _____ _____    ______ ____
ROOT
ATOM      1  C   UNL     1       6.603   4.666  17.065  0.00  0.00    +0.000 A 
ATOM      2  C   UNL     1       7.504   5.272  17.922  0.00  0.00    +0.000 A 
ATOM      3  C   UNL     1       7.054   5.582  19.184  0.00  0.00    +0.000 A 
ATOM      4  N   UNL     1       5.801   5.330  19.616  0.00  0.00    +0.000 NA
ATOM      5  C   UNL     1       4.901   4.735  18.787  0.00  0.00    +0.000 A 
ATOM      6  C   UNL     1       5.286   4.384  17.473  0.00  0.00    +0.000 A 
ATOM      7  C   UNL     1       4.370   3.768  16.605  0.00  0.00    +0.000 A 
ATOM      8  C   UNL     1       3.078   3.497  17.024  0.00  0.00    +0.000 A 
ATOM      9  C   UNL     1       2.682   3.838  18.318  0.00  0.00    +0.000 A 
ATOM     10  C   UNL     1       1.375   3.560  18.737  0.00  0.00    +0.000 A 
ATOM     11  C   UNL     1       0.971   3.894  20.020  0.00  0.00    +0.000 A 
ATOM     12  C   UNL     1       1.896   4.498  20.842  0.00  0.00    +0.000 A 
ATOM     13  N   UNL     1       3.164   4.778  20.469  0.00  0.00    +0.000 NA
ATOM     14  C   UNL     1       3.584   4.460  19.216  0.00  0.00    +0.000 A 
ENDROOT
BRANCH   1  15
ATOM     15  O   UNL     1       6.997   4.335  15.793  0.00  0.00    +0.000 OA
ATOM     16  H   UNL     1       6.451   3.600  15.468  0.00  0.00    +0.000 HD
ENDBRANCH   1  15
TORSDOF 1
ENDMDL
MODEL 3
REMARK VINA RESULT:      -7.1      1.892      4.561
REMARK  Name = 
REMARK  1 active torsions:
REMARK  status: ('A' for Active; 'I' for Inactive)
REMARK    1  A    between atoms: O_1  and  C_2
REMARK                            x       y       z     vdW  Elec       q    Type
REMARK                         _______ _______ _______ _____ _____    ______ ____
ROOT
ATOM      1  C   UNL     1       3.056   2.992  17.900  0.00  0.00    +0.000 A 
ATOM      2  C   UNL     1       3.040   2.089  18.949  0.00  0.00    +0.000 A 
ATOM      3  C   UNL     1       4.047   2.196  19.880  0.00  0.00    +0.000 A 
ATOM      4  N   UNL     1       5.029   3.120  19.820  0.00  0.00    +0.000 NA
ATOM      5  C   UNL     1       5.060   4.016  18.796  0.00  0.00    +0.000 A 
ATOM      6  C   UNL     1       4.059   3.972  17.798  0.00  0.00    +0.000 A 
ATOM      7  C   UNL     1       4.076   4.890  16.735  0.00  0.00    +0.000 A 
ATOM      8  C   UNL     1       5.072   5.849  16.650  0.00  0.00    +0.000 A 
ATOM      9  C   UNL     1       6.066   5.905  17.627  0.00  0.00    +0.000 A 
ATOM     10  C   UNL     1       7.070   6.878  17.537  0.00  0.00    +0.000 A 
ATOM     11  C   UNL     1       8.064   6.942  18.502  0.00  0.00    +0.000 A 
ATOM     12  C   UNL     1       8.015   6.025  19.528  0.00  0.00    +0.000 A 
ATOM     13  N   UNL     1       7.061   5.076  19.644  0.00  0.00    +0.000 NA
ATOM     14  C   UNL     1       6.076   4.992  18.711  0.00  0.00    +0.000 A 
ENDROOT
BRANCH   1  15
ATOM     15  O   UNL     1       2.076   2.931  16.942  0.00  0.00    +0.000 OA
ATOM     16  H   UNL     1       1.359   2.353  17.250  0.00  0.00    +0.000 HD
ENDBRANCH   1  15
TORSDOF 1
ENDMDL
MODEL 4
REMARK VINA RESULT:      -6.8      2.548      4.782
REMARK  Name = 
REMARK  1 active torsions:
REMARK  status: ('A' for Active; 'I' for Inactive)
REMARK    1  A    between atoms: O_1  and  C_2
REMARK                            x       y       z     vdW  Elec       q    Type
REMARK                         _______ _______ _______ _____ _____    ______ ____
ROOT
ATOM      1  C   UNL     1       1.258   3.165  19.137  0.00  0.00    +0.000 A 
ATOM      2  C   UNL     1       0.940   3.509  20.439  0.00  0.00    +0.000 A 
ATOM      3  C   UNL     1       1.894   4.195  21.154  0.00  0.00    +0.000 A 
ATOM      4  N   UNL     1       3.101   4.539  20.658  0.00  0.00    +0.000 NA
ATOM      5  C   UNL     1       3.430   4.209  19.380  0.00  0.00    +0.000 A 
ATOM      6  C   UNL     1       2.503   3.503  18.578  0.00  0.00    +0.000 A 
ATOM      7  C   UNL     1       2.828   3.156  17.257  0.00  0.00    +0.000 A 
ATOM      8  C   UNL     1       4.059   3.499  16.722  0.00  0.00    +0.000 A 
ATOM      9  C   UNL     1       4.985   4.193  17.501  0.00  0.00    +0.000 A 
ATOM     10  C   UNL     1       6.228   4.539  16.955  0.00  0.00    +0.000 A 
ATOM     11  C   UNL     1       7.155   5.229  17.719  0.00  0.00    +0.000 A 
ATOM     12  C   UNL     1       6.802   5.552  19.010  0.00  0.00    +0.000 A 
ATOM     13  N   UNL     1       5.612   5.235  19.566  0.00  0.00    +0.000 NA
ATOM     14  C   UNL     1       4.686   4.558  18.837  0.00  0.00    +0.000 A 
ENDROOT
BRANCH   1  15
ATOM     15  O   UNL     1       0.345   2.479  18.377  0.00  0.00    +0.000 OA
ATOM     16  H   UNL     1       0.337   2.844  17.477  0.00  0.00    +0.000 HD
ENDBRANCH   1  15
TORSDOF 1
ENDMDL
MODEL 5
REMARK VINA RESULT:      -6.8      2.641      4.832
REMARK  Name = 
REMARK  1 active torsions:
REMARK  status: ('A' for Active; 'I' for Inactive)
REMARK    1  A    between atoms: O_1  and  C_2
REMARK                            x       y       z     vdW  Elec       q    Type
REMARK                         _______ _______ _______ _____ _____    ______ ____
ROOT
ATOM      1  C   UNL     1       2.137   3.789  20.037  0.00  0.00    +0.000 A 
ATOM      2  C   UNL     1       2.518   2.615  20.664  0.00  0.00    +0.000 A 
ATOM      3  C   UNL     1       3.836   2.243  20.543  0.00  0.00    +0.000 A 
ATOM      4  N   UNL     1       4.757   2.951  19.856  0.00  0.00    +0.000 NA
ATOM      5  C   UNL     1       4.400   4.108  19.234  0.00  0.00    +0.000 A 
ATOM      6  C   UNL     1       3.063   4.560  19.311  0.00  0.00    +0.000 A 
ATOM      7  C   UNL     1       2.679   5.752  18.675  0.00  0.00    +0.000 A 
ATOM      8  C   UNL     1       3.604   6.499  17.965  0.00  0.00    +0.000 A 
ATOM      9  C   UNL     1       4.927   6.066  17.879  0.00  0.00    +0.000 A 
ATOM     10  C   UNL     1       5.859   6.826  17.160  0.00  0.00    +0.000 A 
ATOM     11  C   UNL     1       7.176   6.405  17.068  0.00  0.00    +0.000 A 
ATOM     12  C   UNL     1       7.515   5.231  17.703  0.00  0.00    +0.000 A 
ATOM     13  N   UNL     1       6.642   4.476  18.405  0.00  0.00    +0.000 NA
ATOM     14  C   UNL     1       5.344   4.868  18.509  0.00  0.00    +0.000 A 
ENDROOT
BRANCH   1  15
ATOM     15  O   UNL     1       0.834   4.209  20.123  0.00  0.00    +0.000 OA
ATOM     16  H   UNL     1       0.254   3.439  20.233  0.00  0.00    +0.000 HD
ENDBRANCH   1  15
TORSDOF 1
ENDMDL
MODEL 6
REMARK VINA RESULT:      -6.7      2.217      2.933
REMARK  Name = 
REMARK  1 active torsions:
REMARK  status: ('A' for Active; 'I' for Inactive)
REMARK    1  A    between atoms: O_1  and  C_2
REMARK                            x       y       z     vdW  Elec       q    Type
REMARK                         _______ _______ _______ _____ _____    ______ ____
ROOT
ATOM      1  C   UNL     1       5.044   5.978  16.217  0.00  0.00    +0.000 A 
ATOM      2  C   UNL     1       5.698   4.946  15.567  0.00  0.00    +0.000 A 
ATOM      3  C   UNL     1       5.431   3.668  15.999  0.00  0.00    +0.000 A 
ATOM      4  N   UNL     1       4.580   3.378  17.006  0.00  0.00    +0.000 NA
ATOM      5  C   UNL     1       3.929   4.380  17.656  0.00  0.00    +0.000 A 
ATOM      6  C   UNL     1       4.148   5.723  17.271  0.00  0.00    +0.000 A 
ATOM      7  C   UNL     1       3.483   6.769  17.931  0.00  0.00    +0.000 A 
ATOM      8  C   UNL     1       2.603   6.499  18.967  0.00  0.00    +0.000 A 
ATOM      9  C   UNL     1       2.376   5.180  19.359  0.00  0.00    +0.000 A 
ATOM     10  C   UNL     1       1.485   4.912  20.406  0.00  0.00    +0.000 A 
ATOM     11  C   UNL     1       1.253   3.605  20.804  0.00  0.00    +0.000 A 
ATOM     12  C   UNL     1       1.924   2.607  20.135  0.00  0.00    +0.000 A 
ATOM     13  N   UNL     1       2.788   2.830  19.121  0.00  0.00    +0.000 NA
ATOM     14  C   UNL     1       3.033   4.104  18.712  0.00  0.00    +0.000 A 
ENDROOT
BRANCH   1  15
ATOM     15  O   UNL     1       5.272   7.274  15.828  0.00  0.00    +0.000 OA
ATOM     16  H   UNL     1       5.759   7.739  16.528  0.00  0.00    +0.000 HD
ENDBRANCH   1  15
TORSDOF 1
ENDMDL
MODEL 7
REMARK VINA RESULT:      -6.6      1.742      1.946
REMARK  Name = 
REMARK  1 active torsions:
REMARK  status: ('A' for Active; 'I' for Inactive)
REMARK    1  A    between atoms: O_1  and  C_2
REMARK                            x       y       z     vdW  Elec       q    Type
REMARK                         _______ _______ _______ _____ _____    ______ ____
ROOT
ATOM      1  C   UNL     1       6.053   6.386  17.249  0.00  0.00    +0.000 A 
ATOM      2  C   UNL     1       7.270   5.752  17.431  0.00  0.00    +0.000 A 
ATOM      3  C   UNL     1       7.282   4.650  18.254  0.00  0.00    +0.000 A 
ATOM      4  N   UNL     1       6.188   4.169  18.881  0.00  0.00    +0.000 NA
ATOM      5  C   UNL     1       4.984   4.780  18.713  0.00  0.00    +0.000 A 
ATOM      6  C   UNL     1       4.887   5.919  17.881  0.00  0.00    +0.000 A 
ATOM      7  C   UNL     1       3.651   6.560  17.696  0.00  0.00    +0.000 A 
ATOM      8  C   UNL     1       2.512   6.086  18.326  0.00  0.00    +0.000 A 
ATOM      9  C   UNL     1       2.591   4.964  19.151  0.00  0.00    +0.000 A 
ATOM     10  C   UNL     1       1.436   4.488  19.784  0.00  0.00    +0.000 A 
ATOM     11  C   UNL     1       1.503   3.374  20.606  0.00  0.00    +0.000 A 
ATOM     12  C   UNL     1       2.732   2.772  20.764  0.00  0.00    +0.000 A 
ATOM     13  N   UNL     1       3.864   3.205  20.167  0.00  0.00    +0.000 NA
ATOM     14  C   UNL     1       3.824   4.296  19.356  0.00  0.00    +0.000 A 
ENDROOT
BRANCH   1  15
ATOM     15  O   UNL     1       5.981   7.491  16.438  0.00  0.00    +0.000 OA
ATOM     16  H   UNL     1       6.496   8.213  16.832  0.00  0.00    +0.000 HD
ENDBRANCH   1  15
TORSDOF 1
ENDMDL
MODEL 8
REMARK VINA RESULT:      -6.6      3.034      5.099
REMARK  Name = 
REMARK  1 active torsions:
REMARK  status: ('A' for Active; 'I' for Inactive)
REMARK    1  A    between atoms: O_1  and  C_2
REMARK                            x       y       z     vdW  Elec       q    Type
REMARK                         _______ _______ _______ _____ _____    ______ ____
ROOT
ATOM      1  C   UNL     1       1.584   3.911  19.695  0.00  0.00    +0.000 A 
ATOM      2  C   UNL     1       1.467   2.532  19.729  0.00  0.00    +0.000 A 
ATOM      3  C   UNL     1       2.273   1.817  18.874  0.00  0.00    +0.000 A 
ATOM      4  N   UNL     1       3.152   2.383  18.021  0.00  0.00    +0.000 NA
ATOM      5  C   UNL     1       3.281   3.737  17.975  0.00  0.00    +0.000 A 
ATOM      6  C   UNL     1       2.488   4.544  18.823  0.00  0.00    +0.000 A 
ATOM      7  C   UNL     1       2.609   5.943  18.788  0.00  0.00    +0.000 A 
ATOM      8  C   UNL     1       3.505   6.550  17.923  0.00  0.00    +0.000 A 
ATOM      9  C   UNL     1       4.293   5.767  17.080  0.00  0.00    +0.000 A 
ATOM     10  C   UNL     1       5.199   6.385  16.208  0.00  0.00    +0.000 A 
ATOM     11  C   UNL     1       5.987   5.617  15.365  0.00  0.00    +0.000 A 
ATOM     12  C   UNL     1       5.840   4.250  15.427  0.00  0.00    +0.000 A 
ATOM     13  N   UNL     1       4.978   3.622  16.256  0.00  0.00    +0.000 NA
ATOM     14  C   UNL     1       4.194   4.353  17.092  0.00  0.00    +0.000 A 
ENDROOT
BRANCH   1  15
ATOM     15  O   UNL     1       0.805   4.676  20.526  0.00  0.00    +0.000 OA
ATOM     16  H   UNL     1       0.988   5.615  20.364  0.00  0.00    +0.000 HD
ENDBRANCH   1  15
TORSDOF 1
ENDMDL
MODEL 9
REMARK VINA RESULT:      -6.6      2.963      4.817
REMARK  Name = 
REMARK  1 active torsions:
REMARK  status: ('A' for Active; 'I' for Inactive)
REMARK    1  A    between atoms: O_1  and  C_2
REMARK                            x       y       z     vdW  Elec       q    Type
REMARK                         _______ _______ _______ _____ _____    ______ ____
ROOT
ATOM      1  C   UNL     1       1.947   5.138  20.295  0.00  0.00    +0.000 A 
ATOM      2  C   UNL     1       1.788   3.837  20.740  0.00  0.00    +0.000 A 
ATOM      3  C   UNL     1       2.462   2.855  20.052  0.00  0.00    +0.000 A 
ATOM      4  N   UNL     1       3.252   3.095  18.984  0.00  0.00    +0.000 NA
ATOM      5  C   UNL     1       3.420   4.367  18.533  0.00  0.00    +0.000 A 
ATOM      6  C   UNL     1       2.761   5.434  19.187  0.00  0.00    +0.000 A 
ATOM      7  C   UNL     1       2.925   6.753  18.734  0.00  0.00    +0.000 A 
ATOM      8  C   UNL     1       3.732   7.027  17.642  0.00  0.00    +0.000 A 
ATOM      9  C   UNL     1       4.387   5.985  16.985  0.00  0.00    +0.000 A 
ATOM     10  C   UNL     1       5.202   6.267  15.882  0.00  0.00    +0.000 A 
ATOM     11  C   UNL     1       5.858   5.240  15.222  0.00  0.00    +0.000 A 
ATOM     12  C   UNL     1       5.674   3.960  15.694  0.00  0.00    +0.000 A 
ATOM     13  N   UNL     1       4.895   3.654  16.755  0.00  0.00    +0.000 NA
ATOM     14  C   UNL     1       4.242   4.644  17.419  0.00  0.00    +0.000 A 
ENDROOT
BRANCH   1  15
ATOM     15  O   UNL     1       1.299   6.158  20.944  0.00  0.00    +0.000 OA
ATOM     16  H   UNL     1       1.741   6.999  20.743  0.00  0.00    +0.000 HD
ENDBRANCH   1  15
TORSDOF 1
ENDMDL
