MODEL 1
REMARK VINA RESULT:      -7.9      0.000      0.000
REMARK  Name = 
REMARK  1 active torsions:
REMARK  status: ('A' for Active; 'I' for Inactive)
REMARK    1  A    between atoms: C_12  and  C_13
REMARK                            x       y       z     vdW  Elec       q    Type
REMARK                         _______ _______ _______ _____ _____    ______ ____
ROOT
ATOM      1  O   UNL     1       7.372   6.427  17.193  0.00  0.00    +0.000 OA
ATOM      2  C   UNL     1       6.850   5.742  16.317  0.00  0.00    +0.000 C 
ATOM      3  N   UNL     1       7.504   5.430  15.157  0.00  0.00    +0.000 N 
ATOM      4  C   UNL     1       6.894   4.710  14.128  0.00  0.00    +0.000 A 
ATOM      5  C   UNL     1       7.630   4.307  13.017  0.00  0.00    +0.000 A 
ATOM      6  C   UNL     1       6.986   3.633  11.976  0.00  0.00    +0.000 A 
ATOM      7  C   UNL     1       5.611   3.394  12.035  0.00  0.00    +0.000 A 
ATOM      8  C   UNL     1       4.880   3.786  13.156  0.00  0.00    +0.000 A 
ATOM      9  C   UNL     1       5.532   4.413  14.214  0.00  0.00    +0.000 A 
ATOM     10  O   UNL     1       4.795   4.691  15.335  0.00  0.00    +0.000 OA
ATOM     11  C   UNL     1       5.500   5.115  16.455  0.00  0.00    +0.000 C 
ATOM     12  C   UNL     1       5.070   4.850  17.700  0.00  0.00    +0.000 C 
ATOM     13  H   UNL     1       8.460   5.746  15.076  0.00  0.00    +0.000 HD
ENDROOT
BRANCH  12  14
ATOM     14  C   UNL     1       3.903   4.004  17.969  0.00  0.00    +0.000 A 
ATOM     15  C   UNL     1       4.074   2.616  18.040  0.00  0.00    +0.000 A 
ATOM     16  C   UNL     1       2.981   1.782  18.279  0.00  0.00    +0.000 A 
ATOM     17  C   UNL     1       1.708   2.323  18.453  0.00  0.00    +0.000 A 
ATOM     18  C   UNL     1       1.526   3.705  18.397  0.00  0.00    +0.000 A 
ATOM     19  C   UNL     1       2.617   4.544  18.160  0.00  0.00    +0.000 A 
ATOM     20 CL   UNL     1       2.322   6.248  18.102  0.00  0.00    +0.000 Cl
ENDBRANCH  12  14
TORSDOF 1
ENDMDL
MODEL 2
REMARK VINA RESULT:      -7.9      3.656      6.477
REMARK  Name = 
REMARK  1 active torsions:
REMARK  status: ('A' for Active; 'I' for Inactive)
REMARK    1  A    between atoms: C_12  and  C_13
REMARK                            x       y       z     vdW  Elec       q    Type
REMARK                         _______ _______ _______ _____ _____    ______ ____
ROOT
ATOM      1  O   UNL     1       2.638   3.678  21.027  0.00  0.00    +0.000 OA
ATOM      2  C   UNL     1       2.618   4.715  20.368  0.00  0.00    +0.000 C 
ATOM      3  N   UNL     1       2.025   5.856  20.833  0.00  0.00    +0.000 N 
ATOM      4  C   UNL     1       1.938   7.017  20.062  0.00  0.00    +0.000 A 
ATOM      5  C   UNL     1       1.437   8.194  20.614  0.00  0.00    +0.000 A 
ATOM      6  C   UNL     1       1.312   9.329  19.809  0.00  0.00    +0.000 A 
ATOM      7  C   UNL     1       1.654   9.276  18.456  0.00  0.00    +0.000 A 
ATOM      8  C   UNL     1       2.169   8.100  17.911  0.00  0.00    +0.000 A 
ATOM      9  C   UNL     1       2.340   6.985  18.725  0.00  0.00    +0.000 A 
ATOM     10  O   UNL     1       2.941   5.884  18.172  0.00  0.00    +0.000 OA
ATOM     11  C   UNL     1       3.299   4.865  19.046  0.00  0.00    +0.000 C 
ATOM     12  C   UNL     1       4.358   4.073  18.807  0.00  0.00    +0.000 C 
ATOM     13  H   UNL     1       1.648   5.823  21.769  0.00  0.00    +0.000 HD
ENDROOT
BRANCH  12  14
ATOM     14  C   UNL     1       5.274   4.294  17.683  0.00  0.00    +0.000 A 
ATOM     15  C   UNL     1       4.919   3.814  16.417  0.00  0.00    +0.000 A 
ATOM     16  C   UNL     1       5.776   3.995  15.329  0.00  0.00    +0.000 A 
ATOM     17  C   UNL     1       6.991   4.658  15.494  0.00  0.00    +0.000 A 
ATOM     18  C   UNL     1       7.351   5.151  16.748  0.00  0.00    +0.000 A 
ATOM     19  C   UNL     1       6.496   4.974  17.838  0.00  0.00    +0.000 A 
ATOM     20 CL   UNL     1       7.002   5.610  19.367  0.00  0.00    +0.000 Cl
ENDBRANCH  12  14
TORSDOF 1
ENDMDL
MODEL 3
REMARK VINA RESULT:      -7.6      1.999      3.786
REMARK  Name = 
REMARK  1 active torsions:
REMARK  status: ('A' for Active; 'I' for Inactive)
REMARK    1  A    between atoms: C_12  and  C_13
REMARK                            x       y       z     vdW  Elec       q    Type
REMARK                         _______ _______ _______ _____ _____    ______ ____
ROOT
ATOM      1  O   UNL     1       5.011   4.415  14.329  0.00  0.00    +0.000 OA
ATOM      2  C   UNL     1       5.370   4.721  15.463  0.00  0.00    +0.000 C 
ATOM      3  N   UNL     1       6.354   5.644  15.686  0.00  0.00    +0.000 N 
ATOM      4  C   UNL     1       6.814   5.947  16.969  0.00  0.00    +0.000 A 
ATOM      5  C   UNL     1       7.730   6.978  17.164  0.00  0.00    +0.000 A 
ATOM      6  C   UNL     1       8.215   7.229  18.449  0.00  0.00    +0.000 A 
ATOM      7  C   UNL     1       7.811   6.433  19.524  0.00  0.00    +0.000 A 
ATOM      8  C   UNL     1       6.882   5.412  19.327  0.00  0.00    +0.000 A 
ATOM      9  C   UNL     1       6.363   5.195  18.055  0.00  0.00    +0.000 A 
ATOM     10  O   UNL     1       5.381   4.247  17.926  0.00  0.00    +0.000 OA
ATOM     11  C   UNL     1       4.724   4.193  16.703  0.00  0.00    +0.000 C 
ATOM     12  C   UNL     1       3.441   3.804  16.610  0.00  0.00    +0.000 C 
ATOM     13  H   UNL     1       6.739   6.102  14.872  0.00  0.00    +0.000 HD
ENDROOT
BRANCH  12  14
ATOM     14  C   UNL     1       2.612   3.524  17.787  0.00  0.00    +0.000 A 
ATOM     15  C   UNL     1       2.330   2.192  18.115  0.00  0.00    +0.000 A 
ATOM     16  C   UNL     1       1.531   1.892  19.220  0.00  0.00    +0.000 A 
ATOM     17  C   UNL     1       1.009   2.916  20.009  0.00  0.00    +0.000 A 
ATOM     18  C   UNL     1       1.292   4.246  19.700  0.00  0.00    +0.000 A 
ATOM     19  C   UNL     1       2.092   4.551  18.596  0.00  0.00    +0.000 A 
ATOM     20 CL   UNL     1       2.404   6.222  18.267  0.00  0.00    +0.000 Cl
ENDBRANCH  12  14
TORSDOF 1
ENDMDL
MODEL 4
REMARK VINA RESULT:      -7.6      3.908      6.612
REMARK  Name = 
REMARK  1 active torsions:
REMARK  status: ('A' for Active; 'I' for Inactive)
REMARK    1  A    between atoms: C_12  and  C_13
REMARK                            x       y       z     vdW  Elec       q    Type
REMARK                         _______ _______ _______ _____ _____    ______ ____
ROOT
ATOM      1  O   UNL     1       2.195   4.470  21.496  0.00  0.00    +0.000 OA
ATOM      2  C   UNL     1       2.290   5.416  20.717  0.00  0.00    +0.000 C 
ATOM      3  N   UNL     1       1.657   6.606  20.945  0.00  0.00    +0.000 N 
ATOM      4  C   UNL     1       1.705   7.661  20.032  0.00  0.00    +0.000 A 
ATOM      5  C   UNL     1       1.151   8.898  20.353  0.00  0.00    +0.000 A 
ATOM      6  C   UNL     1       1.164   9.923  19.405  0.00  0.00    +0.000 A 
ATOM      7  C   UNL     1       1.699   9.700  18.133  0.00  0.00    +0.000 A 
ATOM      8  C   UNL     1       2.266   8.465  17.820  0.00  0.00    +0.000 A 
ATOM      9  C   UNL     1       2.296   7.461  18.782  0.00  0.00    +0.000 A 
ATOM     10  O   UNL     1       2.950   6.299  18.464  0.00  0.00    +0.000 OA
ATOM     11  C   UNL     1       3.158   5.398  19.500  0.00  0.00    +0.000 C 
ATOM     12  C   UNL     1       4.226   4.582  19.520  0.00  0.00    +0.000 C 
ATOM     13  H   UNL     1       1.148   6.691  21.813  0.00  0.00    +0.000 HD
ENDROOT
BRANCH  12  14
ATOM     14  C   UNL     1       5.299   4.661  18.523  0.00  0.00    +0.000 A 
ATOM     15  C   UNL     1       6.511   5.264  18.879  0.00  0.00    +0.000 A 
ATOM     16  C   UNL     1       7.547   5.369  17.949  0.00  0.00    +0.000 A 
ATOM     17  C   UNL     1       7.384   4.871  16.657  0.00  0.00    +0.000 A 
ATOM     18  C   UNL     1       6.186   4.257  16.293  0.00  0.00    +0.000 A 
ATOM     19  C   UNL     1       5.148   4.149  17.221  0.00  0.00    +0.000 A 
ATOM     20 CL   UNL     1       3.686   3.378  16.705  0.00  0.00    +0.000 Cl
ENDBRANCH  12  14
TORSDOF 1
ENDMDL
MODEL 5
REMARK VINA RESULT:      -7.5      1.723      2.207
REMARK  Name = 
REMARK  1 active torsions:
REMARK  status: ('A' for Active; 'I' for Inactive)
REMARK    1  A    between atoms: C_12  and  C_13
REMARK                            x       y       z     vdW  Elec       q    Type
REMARK                         _______ _______ _______ _____ _____    ______ ____
ROOT
ATOM      1  O   UNL     1       7.088   5.522  19.981  0.00  0.00    +0.000 OA
ATOM      2  C   UNL     1       6.585   5.241  18.896  0.00  0.00    +0.000 C 
ATOM      3  N   UNL     1       7.332   5.149  17.754  0.00  0.00    +0.000 N 
ATOM      4  C   UNL     1       6.758   4.897  16.507  0.00  0.00    +0.000 A 
ATOM      5  C   UNL     1       7.562   4.691  15.389  0.00  0.00    +0.000 A 
ATOM      6  C   UNL     1       6.966   4.492  14.142  0.00  0.00    +0.000 A 
ATOM      7  C   UNL     1       5.575   4.533  14.011  0.00  0.00    +0.000 A 
ATOM      8  C   UNL     1       4.772   4.725  15.135  0.00  0.00    +0.000 A 
ATOM      9  C   UNL     1       5.367   4.874  16.384  0.00  0.00    +0.000 A 
ATOM     10  O   UNL     1       4.538   4.962  17.472  0.00  0.00    +0.000 OA
ATOM     11  C   UNL     1       5.141   4.891  18.722  0.00  0.00    +0.000 C 
ATOM     12  C   UNL     1       4.503   4.372  19.784  0.00  0.00    +0.000 C 
ATOM     13  H   UNL     1       8.329   5.273  17.854  0.00  0.00    +0.000 HD
ENDROOT
BRANCH  12  14
ATOM     14  C   UNL     1       3.182   3.742  19.682  0.00  0.00    +0.000 A 
ATOM     15  C   UNL     1       3.095   2.426  19.211  0.00  0.00    +0.000 A 
ATOM     16  C   UNL     1       1.851   1.803  19.087  0.00  0.00    +0.000 A 
ATOM     17  C   UNL     1       0.686   2.485  19.434  0.00  0.00    +0.000 A 
ATOM     18  C   UNL     1       0.760   3.792  19.915  0.00  0.00    +0.000 A 
ATOM     19  C   UNL     1       2.002   4.418  20.042  0.00  0.00    +0.000 A 
ATOM     20 CL   UNL     1       2.025   6.041  20.645  0.00  0.00    +0.000 Cl
ENDBRANCH  12  14
TORSDOF 1
ENDMDL
MODEL 6
REMARK VINA RESULT:      -7.5      2.092      2.765
REMARK  Name = 
REMARK  1 active torsions:
REMARK  status: ('A' for Active; 'I' for Inactive)
REMARK    1  A    between atoms: C_12  and  C_13
REMARK                            x       y       z     vdW  Elec       q    Type
REMARK                         _______ _______ _______ _____ _____    ______ ____
ROOT
ATOM      1  O   UNL     1       7.248   5.481  20.015  0.00  0.00    +0.000 OA
ATOM      2  C   UNL     1       6.688   5.208  18.956  0.00  0.00    +0.000 C 
ATOM      3  N   UNL     1       7.382   5.053  17.788  0.00  0.00    +0.000 N 
ATOM      4  C   UNL     1       6.746   4.812  16.569  0.00  0.00    +0.000 A 
ATOM      5  C   UNL     1       7.492   4.539  15.426  0.00  0.00    +0.000 A 
ATOM      6  C   UNL     1       6.836   4.352  14.207  0.00  0.00    +0.000 A 
ATOM      7  C   UNL     1       5.446   4.469  14.129  0.00  0.00    +0.000 A 
ATOM      8  C   UNL     1       4.701   4.728  15.279  0.00  0.00    +0.000 A 
ATOM      9  C   UNL     1       5.352   4.865  16.501  0.00  0.00    +0.000 A 
ATOM     10  O   UNL     1       4.574   5.020  17.619  0.00  0.00    +0.000 OA
ATOM     11  C   UNL     1       5.221   4.938  18.845  0.00  0.00    +0.000 C 
ATOM     12  C   UNL     1       4.597   4.476  19.942  0.00  0.00    +0.000 C 
ATOM     13  H   UNL     1       8.388   5.122  17.847  0.00  0.00    +0.000 HD
ENDROOT
BRANCH  12  14
ATOM     14  C   UNL     1       3.241   3.920  19.904  0.00  0.00    +0.000 A 
ATOM     15  C   UNL     1       2.166   4.730  20.293  0.00  0.00    +0.000 A 
ATOM     16  C   UNL     1       0.864   4.226  20.283  0.00  0.00    +0.000 A 
ATOM     17  C   UNL     1       0.622   2.912  19.884  0.00  0.00    +0.000 A 
ATOM     18  C   UNL     1       1.682   2.099  19.483  0.00  0.00    +0.000 A 
ATOM     19  C   UNL     1       2.986   2.600  19.489  0.00  0.00    +0.000 A 
ATOM     20 CL   UNL     1       4.256   1.539  18.981  0.00  0.00    +0.000 Cl
ENDBRANCH  12  14
TORSDOF 1
ENDMDL
MODEL 7
REMARK VINA RESULT:      -7.5      3.001      6.324
REMARK  Name = 
REMARK  1 active torsions:
REMARK  status: ('A' for Active; 'I' for Inactive)
REMARK    1  A    between atoms: C_12  and  C_13
REMARK                            x       y       z     vdW  Elec       q    Type
REMARK                         _______ _______ _______ _____ _____    ______ ____
ROOT
ATOM      1  O   UNL     1       2.511   8.276  18.592  0.00  0.00    +0.000 OA
ATOM      2  C   UNL     1       2.705   7.090  18.849  0.00  0.00    +0.000 C 
ATOM      3  N   UNL     1       1.834   6.364  19.614  0.00  0.00    +0.000 N 
ATOM      4  C   UNL     1       2.082   5.036  19.967  0.00  0.00    +0.000 A 
ATOM      5  C   UNL     1       1.117   4.294  20.643  0.00  0.00    +0.000 A 
ATOM      6  C   UNL     1       1.407   2.983  21.030  0.00  0.00    +0.000 A 
ATOM      7  C   UNL     1       2.665   2.433  20.772  0.00  0.00    +0.000 A 
ATOM      8  C   UNL     1       3.623   3.174  20.081  0.00  0.00    +0.000 A 
ATOM      9  C   UNL     1       3.316   4.461  19.652  0.00  0.00    +0.000 A 
ATOM     10  O   UNL     1       4.251   5.115  18.893  0.00  0.00    +0.000 OA
ATOM     11  C   UNL     1       3.848   6.302  18.294  0.00  0.00    +0.000 C 
ATOM     12  C   UNL     1       4.364   6.711  17.123  0.00  0.00    +0.000 C 
ATOM     13  H   UNL     1       0.994   6.835  19.917  0.00  0.00    +0.000 HD
ENDROOT
BRANCH  12  14
ATOM     14  C   UNL     1       5.294   5.891  16.340  0.00  0.00    +0.000 A 
ATOM     15  C   UNL     1       4.779   5.030  15.363  0.00  0.00    +0.000 A 
ATOM     16  C   UNL     1       5.636   4.224  14.610  0.00  0.00    +0.000 A 
ATOM     17  C   UNL     1       7.012   4.271  14.824  0.00  0.00    +0.000 A 
ATOM     18  C   UNL     1       7.539   5.132  15.786  0.00  0.00    +0.000 A 
ATOM     19  C   UNL     1       6.686   5.941  16.539  0.00  0.00    +0.000 A 
ATOM     20 CL   UNL     1       7.403   6.988  17.717  0.00  0.00    +0.000 Cl
ENDBRANCH  12  14
TORSDOF 1
ENDMDL
MODEL 8
REMARK VINA RESULT:      -7.4      2.413      4.173
REMARK  Name = 
REMARK  1 active torsions:
REMARK  status: ('A' for Active; 'I' for Inactive)
REMARK    1  A    between atoms: C_12  and  C_13
REMARK                            x       y       z     vdW  Elec       q    Type
REMARK                         _______ _______ _______ _____ _____    ______ ____
ROOT
ATOM      1  O   UNL     1       4.827   4.366  14.518  0.00  0.00    +0.000 OA
ATOM      2  C   UNL     1       5.251   4.699  15.622  0.00  0.00    +0.000 C 
ATOM      3  N   UNL     1       6.233   5.639  15.766  0.00  0.00    +0.000 N 
ATOM      4  C   UNL     1       6.767   5.973  17.013  0.00  0.00    +0.000 A 
ATOM      5  C   UNL     1       7.678   7.020  17.132  0.00  0.00    +0.000 A 
ATOM      6  C   UNL     1       8.237   7.302  18.381  0.00  0.00    +0.000 A 
ATOM      7  C   UNL     1       7.912   6.521  19.493  0.00  0.00    +0.000 A 
ATOM      8  C   UNL     1       6.988   5.484  19.372  0.00  0.00    +0.000 A 
ATOM      9  C   UNL     1       6.394   5.235  18.138  0.00  0.00    +0.000 A 
ATOM     10  O   UNL     1       5.421   4.272  18.088  0.00  0.00    +0.000 OA
ATOM     11  C   UNL     1       4.690   4.185  16.909  0.00  0.00    +0.000 C 
ATOM     12  C   UNL     1       3.410   3.778  16.902  0.00  0.00    +0.000 C 
ATOM     13  H   UNL     1       6.560   6.087  14.923  0.00  0.00    +0.000 HD
ENDROOT
BRANCH  12  14
ATOM     14  C   UNL     1       2.660   3.508  18.134  0.00  0.00    +0.000 A 
ATOM     15  C   UNL     1       1.795   4.492  18.628  0.00  0.00    +0.000 A 
ATOM     16  C   UNL     1       1.078   4.273  19.807  0.00  0.00    +0.000 A 
ATOM     17  C   UNL     1       1.216   3.071  20.500  0.00  0.00    +0.000 A 
ATOM     18  C   UNL     1       2.065   2.079  20.012  0.00  0.00    +0.000 A 
ATOM     19  C   UNL     1       2.783   2.293  18.833  0.00  0.00    +0.000 A 
ATOM     20 CL   UNL     1       3.820   1.021  18.281  0.00  0.00    +0.000 Cl
ENDBRANCH  12  14
TORSDOF 1
ENDMDL
MODEL 9
REMARK VINA RESULT:      -7.4      5.155      7.559
REMARK  Name = 
REMARK  1 active torsions:
REMARK  status: ('A' for Active; 'I' for Inactive)
REMARK    1  A    between atoms: C_12  and  C_13
REMARK                            x       y       z     vdW  Elec       q    Type
REMARK                         _______ _______ _______ _____ _____    ______ ____
ROOT
ATOM      1  O   UNL     1       2.702   8.478  17.057  0.00  0.00    +0.000 OA
ATOM      2  C   UNL     1       2.184   8.484  18.172  0.00  0.00    +0.000 C 
ATOM      3  N   UNL     1       1.378   9.506  18.589  0.00  0.00    +0.000 N 
ATOM      4  C   UNL     1       0.842   9.554  19.878  0.00  0.00    +0.000 A 
ATOM      5  C   UNL     1      -0.071  10.546  20.226  0.00  0.00    +0.000 A 
ATOM      6  C   UNL     1      -0.554  10.604  21.536  0.00  0.00    +0.000 A 
ATOM      7  C   UNL     1      -0.100   9.696  22.496  0.00  0.00    +0.000 A 
ATOM      8  C   UNL     1       0.803   8.695  22.140  0.00  0.00    +0.000 A 
ATOM      9  C   UNL     1       1.245   8.608  20.823  0.00  0.00    +0.000 A 
ATOM     10  O   UNL     1       2.054   7.551  20.497  0.00  0.00    +0.000 OA
ATOM     11  C   UNL     1       2.309   7.356  19.145  0.00  0.00    +0.000 C 
ATOM     12  C   UNL     1       2.531   6.131  18.640  0.00  0.00    +0.000 C 
ATOM     13  H   UNL     1       1.184  10.235  17.917  0.00  0.00    +0.000 HD
ENDROOT
BRANCH  12  14
ATOM     14  C   UNL     1       2.406   4.910  19.443  0.00  0.00    +0.000 A 
ATOM     15  C   UNL     1       1.141   4.531  19.908  0.00  0.00    +0.000 A 
ATOM     16  C   UNL     1       0.991   3.383  20.689  0.00  0.00    +0.000 A 
ATOM     17  C   UNL     1       2.100   2.602  21.010  0.00  0.00    +0.000 A 
ATOM     18  C   UNL     1       3.364   2.962  20.543  0.00  0.00    +0.000 A 
ATOM     19  C   UNL     1       3.519   4.108  19.761  0.00  0.00    +0.000 A 
ATOM     20 CL   UNL     1       5.114   4.499  19.214  0.00  0.00    +0.000 Cl
ENDBRANCH  12  14
TORSDOF 1
ENDMDL
