MODEL 1
REMARK VINA RESULT:      -6.1      0.000      0.000
REMARK  Name = 
REMARK  0 active torsions:
REMARK  status: ('A' for Active; 'I' for Inactive)
REMARK                            x       y       z     vdW  Elec       q    Type
REMARK                         _______ _______ _______ _____ _____    ______ ____
ROOT
ATOM      1  N   UNL     1       6.810   4.211  18.229  0.00  0.00    +0.000 N 
ATOM      2  C   UNL     1       5.455   4.172  18.419  0.00  0.00    +0.000 C 
ATOM      3  N   UNL     1       5.000   3.529  19.448  0.00  0.00    +0.000 NA
ATOM      4  C   UNL     1       3.623   3.472  19.689  0.00  0.00    +0.000 A 
ATOM      5  C   UNL     1       3.189   2.747  20.804  0.00  0.00    +0.000 A 
ATOM      6  C   UNL     1       1.835   2.675  21.135  0.00  0.00    +0.000 A 
ATOM      7  C   UNL     1       0.897   3.336  20.346  0.00  0.00    +0.000 A 
ATOM      8  C   UNL     1       1.317   4.054  19.227  0.00  0.00    +0.000 A 
ATOM      9  C   UNL     1       2.680   4.123  18.891  0.00  0.00    +0.000 A 
ATOM     10  C   UNL     1       3.109   4.924  17.703  0.00  0.00    +0.000 C 
ATOM     11  C   UNL     1       4.592   4.856  17.383  0.00  0.00    +0.000 C 
ATOM     12  H   UNL     1       7.296   3.518  18.788  0.00  0.00    +0.000 HD
ATOM     13  H   UNL     1       7.143   4.281  17.276  0.00  0.00    +0.000 HD
ENDROOT
TORSDOF 0
ENDMDL
MODEL 2
REMARK VINA RESULT:      -5.9      1.304      1.331
REMARK  Name = 
REMARK  0 active torsions:
REMARK  status: ('A' for Active; 'I' for Inactive)
REMARK                            x       y       z     vdW  Elec       q    Type
REMARK                         _______ _______ _______ _____ _____    ______ ____
ROOT
ATOM      1  N   UNL     1       7.121   5.109  19.213  0.00  0.00    +0.000 N 
ATOM      2  C   UNL     1       5.819   4.901  18.849  0.00  0.00    +0.000 C 
ATOM      3  N   UNL     1       5.229   3.828  19.274  0.00  0.00    +0.000 NA
ATOM      4  C   UNL     1       3.894   3.578  18.937  0.00  0.00    +0.000 A 
ATOM      5  C   UNL     1       3.317   2.394  19.406  0.00  0.00    +0.000 A 
ATOM      6  C   UNL     1       1.980   2.092  19.147  0.00  0.00    +0.000 A 
ATOM      7  C   UNL     1       1.203   2.980  18.409  0.00  0.00    +0.000 A 
ATOM      8  C   UNL     1       1.770   4.160  17.927  0.00  0.00    +0.000 A 
ATOM      9  C   UNL     1       3.118   4.463  18.185  0.00  0.00    +0.000 A 
ATOM     10  C   UNL     1       3.696   5.748  17.683  0.00  0.00    +0.000 C 
ATOM     11  C   UNL     1       5.181   5.930  17.943  0.00  0.00    +0.000 C 
ATOM     12  H   UNL     1       7.557   4.269  19.578  0.00  0.00    +0.000 HD
ATOM     13  H   UNL     1       7.704   5.634  18.573  0.00  0.00    +0.000 HD
ENDROOT
TORSDOF 0
ENDMDL
MODEL 3
REMARK VINA RESULT:      -5.8      2.172      4.654
REMARK  Name = 
REMARK  0 active torsions:
REMARK  status: ('A' for Active; 'I' for Inactive)
REMARK                            x       y       z     vdW  Elec       q    Type
REMARK                         _______ _______ _______ _____ _____    ______ ____
ROOT
ATOM      1  N   UNL     1       4.072   2.462  19.532  0.00  0.00    +0.000 N 
ATOM      2  C   UNL     1       4.547   3.587  18.915  0.00  0.00    +0.000 C 
ATOM      3  N   UNL     1       5.686   4.065  19.308  0.00  0.00    +0.000 NA
ATOM      4  C   UNL     1       6.217   5.208  18.699  0.00  0.00    +0.000 A 
ATOM      5  C   UNL     1       7.439   5.691  19.179  0.00  0.00    +0.000 A 
ATOM      6  C   UNL     1       8.053   6.801  18.598  0.00  0.00    +0.000 A 
ATOM      7  C   UNL     1       7.443   7.443  17.524  0.00  0.00    +0.000 A 
ATOM      8  C   UNL     1       6.220   6.976  17.043  0.00  0.00    +0.000 A 
ATOM      9  C   UNL     1       5.599   5.861  17.630  0.00  0.00    +0.000 A 
ATOM     10  C   UNL     1       4.302   5.361  17.078  0.00  0.00    +0.000 C 
ATOM     11  C   UNL     1       3.679   4.206  17.844  0.00  0.00    +0.000 C 
ATOM     12  H   UNL     1       4.556   2.267  20.403  0.00  0.00    +0.000 HD
ATOM     13  H   UNL     1       3.068   2.349  19.582  0.00  0.00    +0.000 HD
ENDROOT
TORSDOF 0
ENDMDL
MODEL 4
REMARK VINA RESULT:      -5.8      3.294      4.566
REMARK  Name = 
REMARK  0 active torsions:
REMARK  status: ('A' for Active; 'I' for Inactive)
REMARK                            x       y       z     vdW  Elec       q    Type
REMARK                         _______ _______ _______ _____ _____    ______ ____
ROOT
ATOM      1  N   UNL     1       7.868   5.468  13.498  0.00  0.00    +0.000 N 
ATOM      2  C   UNL     1       7.149   5.137  14.614  0.00  0.00    +0.000 C 
ATOM      3  N   UNL     1       7.563   5.577  15.761  0.00  0.00    +0.000 NA
ATOM      4  C   UNL     1       6.853   5.273  16.928  0.00  0.00    +0.000 A 
ATOM      5  C   UNL     1       7.358   5.758  18.139  0.00  0.00    +0.000 A 
ATOM      6  C   UNL     1       6.687   5.531  19.342  0.00  0.00    +0.000 A 
ATOM      7  C   UNL     1       5.496   4.811  19.341  0.00  0.00    +0.000 A 
ATOM      8  C   UNL     1       4.988   4.314  18.142  0.00  0.00    +0.000 A 
ATOM      9  C   UNL     1       5.665   4.538  16.931  0.00  0.00    +0.000 A 
ATOM     10  C   UNL     1       5.085   4.021  15.653  0.00  0.00    +0.000 C 
ATOM     11  C   UNL     1       5.944   4.245  14.420  0.00  0.00    +0.000 C 
ATOM     12  H   UNL     1       8.791   5.824  13.727  0.00  0.00    +0.000 HD
ATOM     13  H   UNL     1       7.856   4.814  12.727  0.00  0.00    +0.000 HD
ENDROOT
TORSDOF 0
ENDMDL
MODEL 5
REMARK VINA RESULT:      -5.7      1.999      3.103
REMARK  Name = 
REMARK  0 active torsions:
REMARK  status: ('A' for Active; 'I' for Inactive)
REMARK                            x       y       z     vdW  Elec       q    Type
REMARK                         _______ _______ _______ _____ _____    ______ ____
ROOT
ATOM      1  N   UNL     1       8.540   5.385  20.021  0.00  0.00    +0.000 N 
ATOM      2  C   UNL     1       7.390   5.626  19.319  0.00  0.00    +0.000 C 
ATOM      3  N   UNL     1       6.284   5.120  19.765  0.00  0.00    +0.000 NA
ATOM      4  C   UNL     1       5.081   5.350  19.086  0.00  0.00    +0.000 A 
ATOM      5  C   UNL     1       3.922   4.762  19.603  0.00  0.00    +0.000 A 
ATOM      6  C   UNL     1       2.679   4.976  19.007  0.00  0.00    +0.000 A 
ATOM      7  C   UNL     1       2.585   5.787  17.879  0.00  0.00    +0.000 A 
ATOM      8  C   UNL     1       3.735   6.371  17.350  0.00  0.00    +0.000 A 
ATOM      9  C   UNL     1       4.989   6.153  17.947  0.00  0.00    +0.000 A 
ATOM     10  C   UNL     1       6.204   6.814  17.379  0.00  0.00    +0.000 C 
ATOM     11  C   UNL     1       7.514   6.437  18.049  0.00  0.00    +0.000 C 
ATOM     12  H   UNL     1       8.432   4.625  20.686  0.00  0.00    +0.000 HD
ATOM     13  H   UNL     1       9.406   5.357  19.498  0.00  0.00    +0.000 HD
ENDROOT
TORSDOF 0
ENDMDL
MODEL 6
REMARK VINA RESULT:      -5.7      1.552      1.753
REMARK  Name = 
REMARK  0 active torsions:
REMARK  status: ('A' for Active; 'I' for Inactive)
REMARK                            x       y       z     vdW  Elec       q    Type
REMARK                         _______ _______ _______ _____ _____    ______ ____
ROOT
ATOM      1  N   UNL     1       5.821   3.673  16.364  0.00  0.00    +0.000 N 
ATOM      2  C   UNL     1       4.922   3.979  17.349  0.00  0.00    +0.000 C 
ATOM      3  N   UNL     1       3.855   3.250  17.451  0.00  0.00    +0.000 NA
ATOM      4  C   UNL     1       2.913   3.518  18.450  0.00  0.00    +0.000 A 
ATOM      5  C   UNL     1       1.771   2.712  18.498  0.00  0.00    +0.000 A 
ATOM      6  C   UNL     1       0.804   2.890  19.489  0.00  0.00    +0.000 A 
ATOM      7  C   UNL     1       0.975   3.886  20.447  0.00  0.00    +0.000 A 
ATOM      8  C   UNL     1       2.105   4.702  20.404  0.00  0.00    +0.000 A 
ATOM      9  C   UNL     1       3.076   4.526  19.404  0.00  0.00    +0.000 A 
ATOM     10  C   UNL     1       4.294   5.394  19.395  0.00  0.00    +0.000 C 
ATOM     11  C   UNL     1       5.232   5.175  18.220  0.00  0.00    +0.000 C 
ATOM     12  H   UNL     1       5.427   3.054  15.663  0.00  0.00    +0.000 HD
ATOM     13  H   UNL     1       6.369   4.434  15.983  0.00  0.00    +0.000 HD
ENDROOT
TORSDOF 0
ENDMDL
MODEL 7
REMARK VINA RESULT:      -5.7      1.758      2.784
REMARK  Name = 
REMARK  0 active torsions:
REMARK  status: ('A' for Active; 'I' for Inactive)
REMARK                            x       y       z     vdW  Elec       q    Type
REMARK                         _______ _______ _______ _____ _____    ______ ____
ROOT
ATOM      1  N   UNL     1       8.295   5.667  19.831  0.00  0.00    +0.000 N 
ATOM      2  C   UNL     1       7.242   5.216  19.082  0.00  0.00    +0.000 C 
ATOM      3  N   UNL     1       6.065   5.210  19.625  0.00  0.00    +0.000 NA
ATOM      4  C   UNL     1       4.956   4.767  18.894  0.00  0.00    +0.000 A 
ATOM      5  C   UNL     1       3.714   4.764  19.538  0.00  0.00    +0.000 A 
ATOM      6  C   UNL     1       2.555   4.374  18.865  0.00  0.00    +0.000 A 
ATOM      7  C   UNL     1       2.631   3.982  17.531  0.00  0.00    +0.000 A 
ATOM      8  C   UNL     1       3.865   3.972  16.882  0.00  0.00    +0.000 A 
ATOM      9  C   UNL     1       5.033   4.360  17.560  0.00  0.00    +0.000 A 
ATOM     10  C   UNL     1       6.341   4.370  16.834  0.00  0.00    +0.000 C 
ATOM     11  C   UNL     1       7.548   4.720  17.687  0.00  0.00    +0.000 C 
ATOM     12  H   UNL     1       8.070   5.719  20.819  0.00  0.00    +0.000 HD
ATOM     13  H   UNL     1       9.206   5.275  19.634  0.00  0.00    +0.000 HD
ENDROOT
TORSDOF 0
ENDMDL
MODEL 8
REMARK VINA RESULT:      -5.7      1.333      1.670
REMARK  Name = 
REMARK  0 active torsions:
REMARK  status: ('A' for Active; 'I' for Inactive)
REMARK                            x       y       z     vdW  Elec       q    Type
REMARK                         _______ _______ _______ _____ _____    ______ ____
ROOT
ATOM      1  N   UNL     1       7.692   4.967  18.584  0.00  0.00    +0.000 N 
ATOM      2  C   UNL     1       6.452   4.522  18.216  0.00  0.00    +0.000 C 
ATOM      3  N   UNL     1       5.666   4.068  19.143  0.00  0.00    +0.000 NA
ATOM      4  C   UNL     1       4.384   3.612  18.816  0.00  0.00    +0.000 A 
ATOM      5  C   UNL     1       3.589   3.114  19.853  0.00  0.00    +0.000 A 
ATOM      6  C   UNL     1       2.285   2.678  19.616  0.00  0.00    +0.000 A 
ATOM      7  C   UNL     1       1.762   2.738  18.327  0.00  0.00    +0.000 A 
ATOM      8  C   UNL     1       2.548   3.224  17.283  0.00  0.00    +0.000 A 
ATOM      9  C   UNL     1       3.864   3.659  17.521  0.00  0.00    +0.000 A 
ATOM     10  C   UNL     1       4.677   4.204  16.391  0.00  0.00    +0.000 C 
ATOM     11  C   UNL     1       6.111   4.561  16.744  0.00  0.00    +0.000 C 
ATOM     12  H   UNL     1       7.950   4.661  19.516  0.00  0.00    +0.000 HD
ATOM     13  H   UNL     1       8.435   4.885  17.901  0.00  0.00    +0.000 HD
ENDROOT
TORSDOF 0
ENDMDL
MODEL 9
REMARK VINA RESULT:      -5.7      1.737      3.667
REMARK  Name = 
REMARK  0 active torsions:
REMARK  status: ('A' for Active; 'I' for Inactive)
REMARK                            x       y       z     vdW  Elec       q    Type
REMARK                         _______ _______ _______ _____ _____    ______ ____
ROOT
ATOM      1  N   UNL     1       3.839   0.910  18.253  0.00  0.00    +0.000 N 
ATOM      2  C   UNL     1       3.434   2.216  18.297  0.00  0.00    +0.000 C 
ATOM      3  N   UNL     1       4.252   3.125  17.867  0.00  0.00    +0.000 NA
ATOM      4  C   UNL     1       3.876   4.473  17.881  0.00  0.00    +0.000 A 
ATOM      5  C   UNL     1       4.808   5.411  17.424  0.00  0.00    +0.000 A 
ATOM      6  C   UNL     1       4.495   6.770  17.370  0.00  0.00    +0.000 A 
ATOM      7  C   UNL     1       3.236   7.204  17.776  0.00  0.00    +0.000 A 
ATOM      8  C   UNL     1       2.302   6.279  18.242  0.00  0.00    +0.000 A 
ATOM      9  C   UNL     1       2.618   4.911  18.301  0.00  0.00    +0.000 A 
ATOM     10  C   UNL     1       1.590   3.935  18.777  0.00  0.00    +0.000 C 
ATOM     11  C   UNL     1       2.069   2.497  18.883  0.00  0.00    +0.000 C 
ATOM     12  H   UNL     1       4.841   0.823  18.114  0.00  0.00    +0.000 HD
ATOM     13  H   UNL     1       3.463   0.284  18.954  0.00  0.00    +0.000 HD
ENDROOT
TORSDOF 0
ENDMDL
