MODEL 1
REMARK VINA RESULT:      -8.2      0.000      0.000
REMARK  Name = 
REMARK  8 active torsions:
REMARK  status: ('A' for Active; 'I' for Inactive)
REMARK    1  A    between atoms: C_1  and  C_2
REMARK    2  A    between atoms: C_2  and  C_4
REMARK    3  A    between atoms: C_8  and  N_9
REMARK    4  A    between atoms: C_10  and  C_12
REMARK    5  A    between atoms: C_12  and  N_13
REMARK    6  A    between atoms: N_13  and  C_14
REMARK    7  A    between atoms: N_13  and  S_20
REMARK    8  A    between atoms: S_20  and  C_21
REMARK                            x       y       z     vdW  Elec       q    Type
REMARK                         _______ _______ _______ _____ _____    ______ ____
ROOT
ATOM      1  N   UNL     1       5.774   5.168  15.681  0.00  0.00    +0.000 N 
ATOM      2  C   UNL     1       5.194   6.390  16.025  0.00  0.00    +0.000 C 
ATOM      3  O   UNL     1       4.742   7.216  15.230  0.00  0.00    +0.000 OA
ATOM      4  H   UNL     1       6.169   4.645  16.454  0.00  0.00    +0.000 HD
ENDROOT
BRANCH   1   9
ATOM      5  C   UNL     1       5.959   3.552  12.311  0.00  0.00    +0.000 A 
ATOM      6  C   UNL     1       7.203   3.999  11.862  0.00  0.00    +0.000 A 
ATOM      7  C   UNL     1       7.956   4.864  12.649  0.00  0.00    +0.000 A 
ATOM      8  C   UNL     1       7.471   5.272  13.896  0.00  0.00    +0.000 A 
ATOM      9  C   UNL     1       6.229   4.846  14.365  0.00  0.00    +0.000 A 
ATOM     10  C   UNL     1       5.453   4.009  13.549  0.00  0.00    +0.000 A 
BRANCH   5  12
ATOM     11  C   UNL     1       3.829   2.927  10.971  0.00  0.00    +0.000 C 
ATOM     12  C   UNL     1       5.188   2.547  11.514  0.00  0.00    +0.000 C 
ATOM     13  O   UNL     1       5.682   1.442  11.301  0.00  0.00    +0.000 OA
ENDBRANCH   5  12
ENDBRANCH   1   9
BRANCH   2  14
ATOM     14  C   UNL     1       5.158   6.717  17.500  0.00  0.00    +0.000 C 
BRANCH  14  15
ATOM     15  N   UNL     1       5.342   5.658  18.540  0.00  0.00    +0.000 NA
BRANCH  15  16
ATOM     16  C   UNL     1       4.565   4.335  18.399  0.00  0.00    +0.000 C 
ATOM     17  C   UNL     1       4.260   3.616  19.716  0.00  0.00    +0.000 C 
ATOM     18  C   UNL     1       2.967   4.050  20.406  0.00  0.00    +0.000 C 
ATOM     19  C   UNL     1       1.764   4.049  19.482  0.00  0.00    +0.000 C 
ATOM     20  C   UNL     1       2.036   4.788  18.175  0.00  0.00    +0.000 C 
ATOM     21  C   UNL     1       3.325   4.338  17.494  0.00  0.00    +0.000 C 
ENDBRANCH  15  16
BRANCH  15  22
ATOM     22  S   UNL     1       7.051   5.370  18.796  0.00  0.00    +0.000 S 
ATOM     23  C   UNL     1       7.794   6.887  18.217  0.00  0.00    +0.000 C 
ATOM     24  O   UNL     1       7.280   5.299  20.223  0.00  0.00    +0.000 OA
ATOM     25  O   UNL     1       7.451   4.300  17.913  0.00  0.00    +0.000 OA
ENDBRANCH  15  22
ENDBRANCH  14  15
ENDBRANCH   2  14
TORSDOF 6
ENDMDL
MODEL 2
REMARK VINA RESULT:      -7.9      3.824      7.285
REMARK  Name = 
REMARK  8 active torsions:
REMARK  status: ('A' for Active; 'I' for Inactive)
REMARK    1  A    between atoms: C_1  and  C_2
REMARK    2  A    between atoms: C_2  and  C_4
REMARK    3  A    between atoms: C_8  and  N_9
REMARK    4  A    between atoms: C_10  and  C_12
REMARK    5  A    between atoms: C_12  and  N_13
REMARK    6  A    between atoms: N_13  and  C_14
REMARK    7  A    between atoms: N_13  and  S_20
REMARK    8  A    between atoms: S_20  and  C_21
REMARK                            x       y       z     vdW  Elec       q    Type
REMARK                         _______ _______ _______ _____ _____    ______ ____
ROOT
ATOM      1  N   UNL     1       2.859   7.666  17.986  0.00  0.00    +0.000 N 
ATOM      2  C   UNL     1       2.676   6.284  17.929  0.00  0.00    +0.000 C 
ATOM      3  O   UNL     1       1.614   5.694  18.134  0.00  0.00    +0.000 OA
ATOM      4  H   UNL     1       3.816   7.980  17.872  0.00  0.00    +0.000 HD
ENDROOT
BRANCH   1   9
ATOM      5  C   UNL     1       0.892   9.413  20.647  0.00  0.00    +0.000 A 
ATOM      6  C   UNL     1      -0.015  10.146  19.880  0.00  0.00    +0.000 A 
ATOM      7  C   UNL     1       0.052  10.097  18.491  0.00  0.00    +0.000 A 
ATOM      8  C   UNL     1       1.019   9.302  17.867  0.00  0.00    +0.000 A 
ATOM      9  C   UNL     1       1.940   8.565  18.610  0.00  0.00    +0.000 A 
ATOM     10  C   UNL     1       1.898   8.652  20.010  0.00  0.00    +0.000 A 
BRANCH   5  12
ATOM     11  C   UNL     1      -0.611   9.271  22.756  0.00  0.00    +0.000 C 
ATOM     12  C   UNL     1       0.765   9.385  22.138  0.00  0.00    +0.000 C 
ATOM     13  O   UNL     1       1.781   9.437  22.828  0.00  0.00    +0.000 OA
ENDBRANCH   5  12
ENDBRANCH   1   9
BRANCH   2  14
ATOM     14  C   UNL     1       3.907   5.464  17.619  0.00  0.00    +0.000 C 
BRANCH  14  15
ATOM     15  N   UNL     1       4.687   4.784  18.700  0.00  0.00    +0.000 NA
BRANCH  15  16
ATOM     16  C   UNL     1       4.468   3.279  18.939  0.00  0.00    +0.000 C 
ATOM     17  C   UNL     1       3.773   2.925  20.257  0.00  0.00    +0.000 C 
ATOM     18  C   UNL     1       2.245   2.918  20.203  0.00  0.00    +0.000 C 
ATOM     19  C   UNL     1       1.691   2.106  19.048  0.00  0.00    +0.000 C 
ATOM     20  C   UNL     1       2.347   2.465  17.718  0.00  0.00    +0.000 C 
ATOM     21  C   UNL     1       3.872   2.460  17.786  0.00  0.00    +0.000 C 
ENDBRANCH  15  16
BRANCH  15  22
ATOM     22  S   UNL     1       6.389   5.162  18.527  0.00  0.00    +0.000 S 
ATOM     23  C   UNL     1       6.356   6.740  17.690  0.00  0.00    +0.000 C 
ATOM     24  O   UNL     1       6.929   5.391  19.849  0.00  0.00    +0.000 OA
ATOM     25  O   UNL     1       6.965   4.185  17.635  0.00  0.00    +0.000 OA
ENDBRANCH  15  22
ENDBRANCH  14  15
ENDBRANCH   2  14
TORSDOF 6
ENDMDL
MODEL 3
REMARK VINA RESULT:      -7.9      4.448      8.074
REMARK  Name = 
REMARK  8 active torsions:
REMARK  status: ('A' for Active; 'I' for Inactive)
REMARK    1  A    between atoms: C_1  and  C_2
REMARK    2  A    between atoms: C_2  and  C_4
REMARK    3  A    between atoms: C_8  and  N_9
REMARK    4  A    between atoms: C_10  and  C_12
REMARK    5  A    between atoms: C_12  and  N_13
REMARK    6  A    between atoms: N_13  and  C_14
REMARK    7  A    between atoms: N_13  and  S_20
REMARK    8  A    between atoms: S_20  and  C_21
REMARK                            x       y       z     vdW  Elec       q    Type
REMARK                         _______ _______ _______ _____ _____    ______ ____
ROOT
ATOM      1  N   UNL     1       1.904   7.409  19.457  0.00  0.00    +0.000 N 
ATOM      2  C   UNL     1       2.754   7.240  18.364  0.00  0.00    +0.000 C 
ATOM      3  O   UNL     1       3.317   8.147  17.748  0.00  0.00    +0.000 OA
ATOM      4  H   UNL     1       1.460   6.562  19.793  0.00  0.00    +0.000 HD
ENDROOT
BRANCH   1   9
ATOM      5  C   UNL     1       0.216  10.059  21.490  0.00  0.00    +0.000 A 
ATOM      6  C   UNL     1      -0.103  10.997  20.506  0.00  0.00    +0.000 A 
ATOM      7  C   UNL     1       0.276  10.774  19.186  0.00  0.00    +0.000 A 
ATOM      8  C   UNL     1       0.963   9.605  18.846  0.00  0.00    +0.000 A 
ATOM      9  C   UNL     1       1.300   8.656  19.810  0.00  0.00    +0.000 A 
ATOM     10  C   UNL     1       0.956   8.905  21.147  0.00  0.00    +0.000 A 
BRANCH   5  12
ATOM     11  C   UNL     1      -1.475  11.127  23.140  0.00  0.00    +0.000 C 
ATOM     12  C   UNL     1      -0.271  10.246  22.892  0.00  0.00    +0.000 C 
ATOM     13  O   UNL     1       0.305   9.666  23.811  0.00  0.00    +0.000 OA
ENDBRANCH   5  12
ENDBRANCH   1   9
BRANCH   2  14
ATOM     14  C   UNL     1       2.961   5.818  17.897  0.00  0.00    +0.000 C 
BRANCH  14  15
ATOM     15  N   UNL     1       3.773   4.845  18.690  0.00  0.00    +0.000 NA
BRANCH  15  16
ATOM     16  C   UNL     1       3.216   3.428  18.922  0.00  0.00    +0.000 C 
ATOM     17  C   UNL     1       3.584   2.796  20.268  0.00  0.00    +0.000 C 
ATOM     18  C   UNL     1       2.631   3.123  21.418  0.00  0.00    +0.000 C 
ATOM     19  C   UNL     1       1.173   2.888  21.074  0.00  0.00    +0.000 C 
ATOM     20  C   UNL     1       0.777   3.536  19.751  0.00  0.00    +0.000 C 
ATOM     21  C   UNL     1       1.731   3.194  18.611  0.00  0.00    +0.000 C 
ENDBRANCH  15  16
BRANCH  15  22
ATOM     22  S   UNL     1       5.410   4.793  18.067  0.00  0.00    +0.000 S 
ATOM     23  C   UNL     1       5.230   3.824  16.577  0.00  0.00    +0.000 C 
ATOM     24  O   UNL     1       5.772   6.134  17.662  0.00  0.00    +0.000 OA
ATOM     25  O   UNL     1       6.211   4.044  19.005  0.00  0.00    +0.000 OA
ENDBRANCH  15  22
ENDBRANCH  14  15
ENDBRANCH   2  14
TORSDOF 6
ENDMDL
MODEL 4
REMARK VINA RESULT:      -7.9      4.355      7.146
REMARK  Name = 
REMARK  8 active torsions:
REMARK  status: ('A' for Active; 'I' for Inactive)
REMARK    1  A    between atoms: C_1  and  C_2
REMARK    2  A    between atoms: C_2  and  C_4
REMARK    3  A    between atoms: C_8  and  N_9
REMARK    4  A    between atoms: C_10  and  C_12
REMARK    5  A    between atoms: C_12  and  N_13
REMARK    6  A    between atoms: N_13  and  C_14
REMARK    7  A    between atoms: N_13  and  S_20
REMARK    8  A    between atoms: S_20  and  C_21
REMARK                            x       y       z     vdW  Elec       q    Type
REMARK                         _______ _______ _______ _____ _____    ______ ____
ROOT
ATOM      1  N   UNL     1       2.348   8.436  17.545  0.00  0.00    +0.000 N 
ATOM      2  C   UNL     1       2.763   7.396  18.378  0.00  0.00    +0.000 C 
ATOM      3  O   UNL     1       2.350   7.186  19.520  0.00  0.00    +0.000 OA
ATOM      4  H   UNL     1       2.850   8.512  16.667  0.00  0.00    +0.000 HD
ENDROOT
BRANCH   1   9
ATOM      5  C   UNL     1      -0.474  10.751  18.367  0.00  0.00    +0.000 A 
ATOM      6  C   UNL     1       0.217  11.923  18.680  0.00  0.00    +0.000 A 
ATOM      7  C   UNL     1       1.607  11.936  18.661  0.00  0.00    +0.000 A 
ATOM      8  C   UNL     1       2.310  10.777  18.315  0.00  0.00    +0.000 A 
ATOM      9  C   UNL     1       1.645   9.592  18.005  0.00  0.00    +0.000 A 
ATOM     10  C   UNL     1       0.244   9.571  18.068  0.00  0.00    +0.000 A 
BRANCH   5  12
ATOM     11  C   UNL     1      -2.661   9.774  17.374  0.00  0.00    +0.000 C 
ATOM     12  C   UNL     1      -1.968  10.756  18.292  0.00  0.00    +0.000 C 
ATOM     13  O   UNL     1      -2.603  11.544  18.991  0.00  0.00    +0.000 OA
ENDBRANCH   5  12
ENDBRANCH   1   9
BRANCH   2  14
ATOM     14  C   UNL     1       3.830   6.483  17.820  0.00  0.00    +0.000 C 
BRANCH  14  15
ATOM     15  N   UNL     1       4.452   5.407  18.652  0.00  0.00    +0.000 NA
BRANCH  15  16
ATOM     16  C   UNL     1       3.867   3.985  18.585  0.00  0.00    +0.000 C 
ATOM     17  C   UNL     1       3.486   3.373  19.936  0.00  0.00    +0.000 C 
ATOM     18  C   UNL     1       2.072   3.698  20.419  0.00  0.00    +0.000 C 
ATOM     19  C   UNL     1       1.006   3.436  19.372  0.00  0.00    +0.000 C 
ATOM     20  C   UNL     1       1.350   4.064  18.025  0.00  0.00    +0.000 C 
ATOM     21  C   UNL     1       2.761   3.724  17.552  0.00  0.00    +0.000 C 
ENDBRANCH  15  16
BRANCH  15  22
ATOM     22  S   UNL     1       6.186   5.396  18.405  0.00  0.00    +0.000 S 
ATOM     23  C   UNL     1       6.470   6.943  17.558  0.00  0.00    +0.000 C 
ATOM     24  O   UNL     1       6.820   5.498  19.702  0.00  0.00    +0.000 OA
ATOM     25  O   UNL     1       6.492   4.316  17.497  0.00  0.00    +0.000 OA
ENDBRANCH  15  22
ENDBRANCH  14  15
ENDBRANCH   2  14
TORSDOF 6
ENDMDL
MODEL 5
REMARK VINA RESULT:      -7.8      4.634      8.512
REMARK  Name = 
REMARK  8 active torsions:
REMARK  status: ('A' for Active; 'I' for Inactive)
REMARK    1  A    between atoms: C_1  and  C_2
REMARK    2  A    between atoms: C_2  and  C_4
REMARK    3  A    between atoms: C_8  and  N_9
REMARK    4  A    between atoms: C_10  and  C_12
REMARK    5  A    between atoms: C_12  and  N_13
REMARK    6  A    between atoms: N_13  and  C_14
REMARK    7  A    between atoms: N_13  and  S_20
REMARK    8  A    between atoms: S_20  and  C_21
REMARK                            x       y       z     vdW  Elec       q    Type
REMARK                         _______ _______ _______ _____ _____    ______ ____
ROOT
ATOM      1  N   UNL     1       2.423   7.321  19.368  0.00  0.00    +0.000 N 
ATOM      2  C   UNL     1       2.274   6.071  19.969  0.00  0.00    +0.000 C 
ATOM      3  O   UNL     1       1.290   5.697  20.609  0.00  0.00    +0.000 OA
ATOM      4  H   UNL     1       3.330   7.495  18.951  0.00  0.00    +0.000 HD
ENDROOT
BRANCH   1   9
ATOM      5  C   UNL     1       0.412   9.778  21.350  0.00  0.00    +0.000 A 
ATOM      6  C   UNL     1      -0.167  10.540  20.334  0.00  0.00    +0.000 A 
ATOM      7  C   UNL     1       0.139  10.271  19.004  0.00  0.00    +0.000 A 
ATOM      8  C   UNL     1       1.015   9.228  18.688  0.00  0.00    +0.000 A 
ATOM      9  C   UNL     1       1.613   8.457  19.683  0.00  0.00    +0.000 A 
ATOM     10  C   UNL     1       1.336   8.759  21.025  0.00  0.00    +0.000 A 
BRANCH   5  12
ATOM     11  C   UNL     1      -1.246  10.780  23.074  0.00  0.00    +0.000 C 
ATOM     12  C   UNL     1       0.014   9.999  22.775  0.00  0.00    +0.000 C 
ATOM     13  O   UNL     1       0.708   9.526  23.674  0.00  0.00    +0.000 OA
ENDBRANCH   5  12
ENDBRANCH   1   9
BRANCH   2  14
ATOM     14  C   UNL     1       3.447   5.127  19.836  0.00  0.00    +0.000 C 
BRANCH  14  15
ATOM     15  N   UNL     1       3.534   4.142  18.714  0.00  0.00    +0.000 NA
BRANCH  15  16
ATOM     16  C   UNL     1       4.887   3.939  18.008  0.00  0.00    +0.000 C 
ATOM     17  C   UNL     1       4.857   4.100  16.485  0.00  0.00    +0.000 C 
ATOM     18  C   UNL     1       5.053   5.529  15.981  0.00  0.00    +0.000 C 
ATOM     19  C   UNL     1       6.261   6.218  16.587  0.00  0.00    +0.000 C 
ATOM     20  C   UNL     1       6.295   6.098  18.107  0.00  0.00    +0.000 C 
ATOM     21  C   UNL     1       6.106   4.664  18.596  0.00  0.00    +0.000 C 
ENDBRANCH  15  16
BRANCH  15  22
ATOM     22  S   UNL     1       2.840   2.613  19.215  0.00  0.00    +0.000 S 
ATOM     23  C   UNL     1       1.158   2.735  18.625  0.00  0.00    +0.000 C 
ATOM     24  O   UNL     1       3.484   1.564  18.454  0.00  0.00    +0.000 OA
ATOM     25  O   UNL     1       2.817   2.595  20.658  0.00  0.00    +0.000 OA
ENDBRANCH  15  22
ENDBRANCH  14  15
ENDBRANCH   2  14
TORSDOF 6
ENDMDL
MODEL 6
REMARK VINA RESULT:      -7.8      4.680      8.484
REMARK  Name = 
REMARK  8 active torsions:
REMARK  status: ('A' for Active; 'I' for Inactive)
REMARK    1  A    between atoms: C_1  and  C_2
REMARK    2  A    between atoms: C_2  and  C_4
REMARK    3  A    between atoms: C_8  and  N_9
REMARK    4  A    between atoms: C_10  and  C_12
REMARK    5  A    between atoms: C_12  and  N_13
REMARK    6  A    between atoms: N_13  and  C_14
REMARK    7  A    between atoms: N_13  and  S_20
REMARK    8  A    between atoms: S_20  and  C_21
REMARK                            x       y       z     vdW  Elec       q    Type
REMARK                         _______ _______ _______ _____ _____    ______ ____
ROOT
ATOM      1  N   UNL     1       2.337   7.309  19.185  0.00  0.00    +0.000 N 
ATOM      2  C   UNL     1       2.242   6.099  19.874  0.00  0.00    +0.000 C 
ATOM      3  O   UNL     1       1.360   5.803  20.682  0.00  0.00    +0.000 OA
ATOM      4  H   UNL     1       3.171   7.420  18.620  0.00  0.00    +0.000 HD
ENDROOT
BRANCH   1   9
ATOM      5  C   UNL     1       0.524   9.820  21.287  0.00  0.00    +0.000 A 
ATOM      6  C   UNL     1       0.039  10.693  20.311  0.00  0.00    +0.000 A 
ATOM      7  C   UNL     1       0.345  10.476  18.972  0.00  0.00    +0.000 A 
ATOM      8  C   UNL     1       1.127   9.377  18.604  0.00  0.00    +0.000 A 
ATOM      9  C   UNL     1       1.630   8.494  19.558  0.00  0.00    +0.000 A 
ATOM     10  C   UNL     1       1.356   8.740  20.912  0.00  0.00    +0.000 A 
BRANCH   5  12
ATOM     11  C   UNL     1      -1.157  10.735  23.036  0.00  0.00    +0.000 C 
ATOM     12  C   UNL     1       0.120   9.991  22.717  0.00  0.00    +0.000 C 
ATOM     13  O   UNL     1       0.824   9.508  23.603  0.00  0.00    +0.000 OA
ENDBRANCH   5  12
ENDBRANCH   1   9
BRANCH   2  14
ATOM     14  C   UNL     1       3.343   5.098  19.612  0.00  0.00    +0.000 C 
BRANCH  14  15
ATOM     15  N   UNL     1       3.433   4.356  18.316  0.00  0.00    +0.000 NA
BRANCH  15  16
ATOM     16  C   UNL     1       4.824   4.074  17.718  0.00  0.00    +0.000 C 
ATOM     17  C   UNL     1       4.986   4.454  16.243  0.00  0.00    +0.000 C 
ATOM     18  C   UNL     1       5.411   5.901  15.991  0.00  0.00    +0.000 C 
ATOM     19  C   UNL     1       6.616   6.324  16.809  0.00  0.00    +0.000 C 
ATOM     20  C   UNL     1       6.461   5.983  18.288  0.00  0.00    +0.000 C 
ATOM     21  C   UNL     1       6.046   4.533  18.525  0.00  0.00    +0.000 C 
ENDBRANCH  15  16
BRANCH  15  22
ATOM     22  S   UNL     1       2.467   2.897  18.401  0.00  0.00    +0.000 S 
ATOM     23  C   UNL     1       2.443   2.545  20.152  0.00  0.00    +0.000 C 
ATOM     24  O   UNL     1       1.114   3.238  18.016  0.00  0.00    +0.000 OA
ATOM     25  O   UNL     1       3.200   1.848  17.735  0.00  0.00    +0.000 OA
ENDBRANCH  15  22
ENDBRANCH  14  15
ENDBRANCH   2  14
TORSDOF 6
ENDMDL
MODEL 7
REMARK VINA RESULT:      -7.8      4.123      7.656
REMARK  Name = 
REMARK  8 active torsions:
REMARK  status: ('A' for Active; 'I' for Inactive)
REMARK    1  A    between atoms: C_1  and  C_2
REMARK    2  A    between atoms: C_2  and  C_4
REMARK    3  A    between atoms: C_8  and  N_9
REMARK    4  A    between atoms: C_10  and  C_12
REMARK    5  A    between atoms: C_12  and  N_13
REMARK    6  A    between atoms: N_13  and  C_14
REMARK    7  A    between atoms: N_13  and  S_20
REMARK    8  A    between atoms: S_20  and  C_21
REMARK                            x       y       z     vdW  Elec       q    Type
REMARK                         _______ _______ _______ _____ _____    ______ ____
ROOT
ATOM      1  N   UNL     1       2.105   8.149  17.873  0.00  0.00    +0.000 N 
ATOM      2  C   UNL     1       2.885   7.149  18.453  0.00  0.00    +0.000 C 
ATOM      3  O   UNL     1       2.749   6.708  19.596  0.00  0.00    +0.000 OA
ATOM      4  H   UNL     1       2.405   8.451  16.953  0.00  0.00    +0.000 HD
ENDROOT
BRANCH   1   9
ATOM      5  C   UNL     1       0.450   9.832  20.776  0.00  0.00    +0.000 A 
ATOM      6  C   UNL     1      -0.531  10.587  20.131  0.00  0.00    +0.000 A 
ATOM      7  C   UNL     1      -0.617  10.574  18.743  0.00  0.00    +0.000 A 
ATOM      8  C   UNL     1       0.271   9.792  17.998  0.00  0.00    +0.000 A 
ATOM      9  C   UNL     1       1.264   9.034  18.616  0.00  0.00    +0.000 A 
ATOM     10  C   UNL     1       1.376   9.085  20.014  0.00  0.00    +0.000 A 
BRANCH   5  12
ATOM     11  C   UNL     1      -0.757  10.127  23.053  0.00  0.00    +0.000 C 
ATOM     12  C   UNL     1       0.487   9.766  22.271  0.00  0.00    +0.000 C 
ATOM     13  O   UNL     1       1.519   9.404  22.831  0.00  0.00    +0.000 OA
ENDBRANCH   5  12
ENDBRANCH   1   9
BRANCH   2  14
ATOM     14  C   UNL     1       4.003   6.598  17.598  0.00  0.00    +0.000 C 
BRANCH  14  15
ATOM     15  N   UNL     1       4.942   5.555  18.116  0.00  0.00    +0.000 NA
BRANCH  15  16
ATOM     16  C   UNL     1       4.554   4.071  17.973  0.00  0.00    +0.000 C 
ATOM     17  C   UNL     1       4.481   3.289  19.288  0.00  0.00    +0.000 C 
ATOM     18  C   UNL     1       3.131   3.348  20.002  0.00  0.00    +0.000 C 
ATOM     19  C   UNL     1       1.958   3.023  19.097  0.00  0.00    +0.000 C 
ATOM     20  C   UNL     1       1.994   3.815  17.794  0.00  0.00    +0.000 C 
ATOM     21  C   UNL     1       3.345   3.740  17.088  0.00  0.00    +0.000 C 
ENDBRANCH  15  16
BRANCH  15  22
ATOM     22  S   UNL     1       6.555   5.855  17.503  0.00  0.00    +0.000 S 
ATOM     23  C   UNL     1       7.543   5.867  18.991  0.00  0.00    +0.000 C 
ATOM     24  O   UNL     1       6.959   4.698  16.732  0.00  0.00    +0.000 OA
ATOM     25  O   UNL     1       6.568   7.182  16.936  0.00  0.00    +0.000 OA
ENDBRANCH  15  22
ENDBRANCH  14  15
ENDBRANCH   2  14
TORSDOF 6
ENDMDL
MODEL 8
REMARK VINA RESULT:      -7.6      4.972      8.646
REMARK  Name = 
REMARK  8 active torsions:
REMARK  status: ('A' for Active; 'I' for Inactive)
REMARK    1  A    between atoms: C_1  and  C_2
REMARK    2  A    between atoms: C_2  and  C_4
REMARK    3  A    between atoms: C_8  and  N_9
REMARK    4  A    between atoms: C_10  and  C_12
REMARK    5  A    between atoms: C_12  and  N_13
REMARK    6  A    between atoms: N_13  and  C_14
REMARK    7  A    between atoms: N_13  and  S_20
REMARK    8  A    between atoms: S_20  and  C_21
REMARK                            x       y       z     vdW  Elec       q    Type
REMARK                         _______ _______ _______ _____ _____    ______ ____
ROOT
ATOM      1  N   UNL     1       2.174   7.390  20.396  0.00  0.00    +0.000 N 
ATOM      2  C   UNL     1       2.823   6.773  19.327  0.00  0.00    +0.000 C 
ATOM      3  O   UNL     1       3.072   7.300  18.241  0.00  0.00    +0.000 OA
ATOM      4  H   UNL     1       1.976   6.787  21.187  0.00  0.00    +0.000 HD
ENDROOT
BRANCH   1   9
ATOM      5  C   UNL     1       0.011  10.300  21.323  0.00  0.00    +0.000 A 
ATOM      6  C   UNL     1      -0.286  10.831  20.066  0.00  0.00    +0.000 A 
ATOM      7  C   UNL     1       0.260  10.256  18.923  0.00  0.00    +0.000 A 
ATOM      8  C   UNL     1       1.095   9.140  19.035  0.00  0.00    +0.000 A 
ATOM      9  C   UNL     1       1.413   8.594  20.278  0.00  0.00    +0.000 A 
ATOM     10  C   UNL     1       0.895   9.203  21.432  0.00  0.00    +0.000 A 
BRANCH   5  12
ATOM     11  C   UNL     1      -1.650  11.976  22.399  0.00  0.00    +0.000 C 
ATOM     12  C   UNL     1      -0.649  10.852  22.547  0.00  0.00    +0.000 C 
ATOM     13  O   UNL     1      -0.379  10.369  23.645  0.00  0.00    +0.000 OA
ENDBRANCH   5  12
ENDBRANCH   1   9
BRANCH   2  14
ATOM     14  C   UNL     1       3.215   5.328  19.531  0.00  0.00    +0.000 C 
BRANCH  14  15
ATOM     15  N   UNL     1       3.281   4.367  18.388  0.00  0.00    +0.000 NA
BRANCH  15  16
ATOM     16  C   UNL     1       4.657   4.014  17.793  0.00  0.00    +0.000 C 
ATOM     17  C   UNL     1       4.812   4.302  16.296  0.00  0.00    +0.000 C 
ATOM     18  C   UNL     1       5.268   5.720  15.953  0.00  0.00    +0.000 C 
ATOM     19  C   UNL     1       6.493   6.160  16.732  0.00  0.00    +0.000 C 
ATOM     20  C   UNL     1       6.348   5.911  18.230  0.00  0.00    +0.000 C 
ATOM     21  C   UNL     1       5.900   4.490  18.558  0.00  0.00    +0.000 C 
ENDBRANCH  15  16
BRANCH  15  22
ATOM     22  S   UNL     1       2.365   2.925  18.775  0.00  0.00    +0.000 S 
ATOM     23  C   UNL     1       3.477   1.613  18.291  0.00  0.00    +0.000 C 
ATOM     24  O   UNL     1       2.228   2.859  20.214  0.00  0.00    +0.000 OA
ATOM     25  O   UNL     1       1.214   2.891  17.904  0.00  0.00    +0.000 OA
ENDBRANCH  15  22
ENDBRANCH  14  15
ENDBRANCH   2  14
TORSDOF 6
ENDMDL
MODEL 9
REMARK VINA RESULT:      -7.6      4.467      7.888
REMARK  Name = 
REMARK  8 active torsions:
REMARK  status: ('A' for Active; 'I' for Inactive)
REMARK    1  A    between atoms: C_1  and  C_2
REMARK    2  A    between atoms: C_2  and  C_4
REMARK    3  A    between atoms: C_8  and  N_9
REMARK    4  A    between atoms: C_10  and  C_12
REMARK    5  A    between atoms: C_12  and  N_13
REMARK    6  A    between atoms: N_13  and  C_14
REMARK    7  A    between atoms: N_13  and  S_20
REMARK    8  A    between atoms: S_20  and  C_21
REMARK                            x       y       z     vdW  Elec       q    Type
REMARK                         _______ _______ _______ _____ _____    ______ ____
ROOT
ATOM      1  N   UNL     1       1.874   8.303  18.046  0.00  0.00    +0.000 N 
ATOM      2  C   UNL     1       2.497   7.288  18.773  0.00  0.00    +0.000 C 
ATOM      3  O   UNL     1       2.159   6.899  19.893  0.00  0.00    +0.000 OA
ATOM      4  H   UNL     1       2.331   8.553  17.176  0.00  0.00    +0.000 HD
ENDROOT
BRANCH   1   9
ATOM      5  C   UNL     1       0.040  10.322  20.608  0.00  0.00    +0.000 A 
ATOM      6  C   UNL     1      -0.925  10.952  19.819  0.00  0.00    +0.000 A 
ATOM      7  C   UNL     1      -0.941  10.745  18.444  0.00  0.00    +0.000 A 
ATOM      8  C   UNL     1       0.000   9.894  17.856  0.00  0.00    +0.000 A 
ATOM      9  C   UNL     1       0.978   9.257  18.619  0.00  0.00    +0.000 A 
ATOM     10  C   UNL     1       1.019   9.504  20.000  0.00  0.00    +0.000 A 
BRANCH   5  12
ATOM     11  C   UNL     1       0.105   9.223  22.955  0.00  0.00    +0.000 C 
ATOM     12  C   UNL     1       0.004  10.464  22.096  0.00  0.00    +0.000 C 
ATOM     13  O   UNL     1      -0.089  11.585  22.591  0.00  0.00    +0.000 OA
ENDBRANCH   5  12
ENDBRANCH   1   9
BRANCH   2  14
ATOM     14  C   UNL     1       3.702   6.649  18.123  0.00  0.00    +0.000 C 
BRANCH  14  15
ATOM     15  N   UNL     1       4.430   5.514  18.771  0.00  0.00    +0.000 NA
BRANCH  15  16
ATOM     16  C   UNL     1       3.963   4.074  18.487  0.00  0.00    +0.000 C 
ATOM     17  C   UNL     1       3.661   3.231  19.730  0.00  0.00    +0.000 C 
ATOM     18  C   UNL     1       2.235   3.357  20.266  0.00  0.00    +0.000 C 
ATOM     19  C   UNL     1       1.174   3.171  19.198  0.00  0.00    +0.000 C 
ATOM     20  C   UNL     1       1.438   4.026  17.962  0.00  0.00    +0.000 C 
ATOM     21  C   UNL     1       2.863   3.884  17.434  0.00  0.00    +0.000 C 
ENDBRANCH  15  16
BRANCH  15  22
ATOM     22  S   UNL     1       6.153   5.690  18.509  0.00  0.00    +0.000 S 
ATOM     23  C   UNL     1       6.511   4.367  17.363  0.00  0.00    +0.000 C 
ATOM     24  O   UNL     1       6.370   6.935  17.804  0.00  0.00    +0.000 OA
ATOM     25  O   UNL     1       6.817   5.403  19.758  0.00  0.00    +0.000 OA
ENDBRANCH  15  22
ENDBRANCH  14  15
ENDBRANCH   2  14
TORSDOF 6
ENDMDL
