MODEL 1
REMARK VINA RESULT:      -7.6      0.000      0.000
REMARK  Name = 
REMARK  10 active torsions:
REMARK  status: ('A' for Active; 'I' for Inactive)
REMARK    1  A    between atoms: C_1  and  N_2
REMARK    2  A    between atoms: N_2  and  C_3
REMARK    3  A    between atoms: N_2  and  C_4
REMARK    4  A    between atoms: C_7  and  C_8
REMARK    5  A    between atoms: C_14  and  O_15
REMARK    6  A    between atoms: O_15  and  C_16
REMARK    7  A    between atoms: C_16  and  C_17
REMARK    8  A    between atoms: C_17  and  O_18
REMARK    9  A    between atoms: O_18  and  C_19
REMARK   10  A    between atoms: C_19  and  C_20
REMARK                            x       y       z     vdW  Elec       q    Type
REMARK                         _______ _______ _______ _____ _____    ______ ____
ROOT
ATOM      1  C   UNL     1       8.072   8.258  18.106  0.00  0.00    +0.000 A 
ATOM      2  C   UNL     1       8.339   7.357  19.060  0.00  0.00    +0.000 A 
ATOM      3  C   UNL     1       7.929   5.972  18.874  0.00  0.00    +0.000 A 
ATOM      4  O   UNL     1       8.419   5.083  19.562  0.00  0.00    +0.000 OA
ATOM      5  C   UNL     1       6.894   5.744  17.897  0.00  0.00    +0.000 A 
ATOM      6  C   UNL     1       6.170   4.555  17.987  0.00  0.00    +0.000 A 
ATOM      7  C   UNL     1       5.045   4.359  17.199  0.00  0.00    +0.000 A 
ATOM      8  C   UNL     1       4.699   5.342  16.272  0.00  0.00    +0.000 A 
ATOM      9  C   UNL     1       5.471   6.537  16.162  0.00  0.00    +0.000 A 
ATOM     10  C   UNL     1       6.564   6.758  17.009  0.00  0.00    +0.000 A 
ATOM     11  O   UNL     1       7.248   7.975  16.998  0.00  0.00    +0.000 OA
ENDROOT
BRANCH   1  15
ATOM     12  C   UNL     1       9.331  12.333  19.070  0.00  0.00    +0.000 A 
ATOM     13  C   UNL     1       9.766  11.230  19.802  0.00  0.00    +0.000 A 
ATOM     14  C   UNL     1       9.433   9.920  19.420  0.00  0.00    +0.000 A 
ATOM     15  C   UNL     1       8.618   9.635  18.301  0.00  0.00    +0.000 A 
ATOM     16  C   UNL     1       8.322  10.712  17.475  0.00  0.00    +0.000 A 
ATOM     17  C   UNL     1       8.676  12.030  17.859  0.00  0.00    +0.000 A 
BRANCH  12  19
ATOM     18  C   UNL     1      10.641  13.951  20.423  0.00  0.00    +0.000 C 
ATOM     19  N   UNL     1       9.541  13.645  19.506  0.00  0.00    +0.000 N 
ATOM     20  C   UNL     1       8.385  14.537  19.572  0.00  0.00    +0.000 C 
ENDBRANCH  12  19
ENDBRANCH   1  15
BRANCH   7  21
ATOM     21  O   UNL     1       4.340   3.254  17.568  0.00  0.00    +0.000 OA
BRANCH  21  22
ATOM     22  C   UNL     1       2.918   3.277  17.624  0.00  0.00    +0.000 C 
BRANCH  22  23
ATOM     23  C   UNL     1       2.499   2.063  18.475  0.00  0.00    +0.000 C 
BRANCH  23  24
ATOM     24  O   UNL     1       1.134   2.151  18.894  0.00  0.00    +0.000 OA
BRANCH  24  25
ATOM     25  C   UNL     1       0.957   3.188  19.872  0.00  0.00    +0.000 C 
BRANCH  25  26
ATOM     26  C   UNL     1       1.772   2.883  21.120  0.00  0.00    +0.000 C 
ATOM     27  F   UNL     1       0.932   2.541  22.133  0.00  0.00    +0.000 F 
ENDBRANCH  25  26
ENDBRANCH  24  25
ENDBRANCH  23  24
ENDBRANCH  22  23
ENDBRANCH  21  22
ENDBRANCH   7  21
TORSDOF 8
ENDMDL
MODEL 2
REMARK VINA RESULT:      -7.5      1.243      1.448
REMARK  Name = 
REMARK  10 active torsions:
REMARK  status: ('A' for Active; 'I' for Inactive)
REMARK    1  A    between atoms: C_1  and  N_2
REMARK    2  A    between atoms: N_2  and  C_3
REMARK    3  A    between atoms: N_2  and  C_4
REMARK    4  A    between atoms: C_7  and  C_8
REMARK    5  A    between atoms: C_14  and  O_15
REMARK    6  A    between atoms: O_15  and  C_16
REMARK    7  A    between atoms: C_16  and  C_17
REMARK    8  A    between atoms: C_17  and  O_18
REMARK    9  A    between atoms: O_18  and  C_19
REMARK   10  A    between atoms: C_19  and  C_20
REMARK                            x       y       z     vdW  Elec       q    Type
REMARK                         _______ _______ _______ _____ _____    ______ ____
ROOT
ATOM      1  C   UNL     1       8.036   8.272  18.112  0.00  0.00    +0.000 A 
ATOM      2  C   UNL     1       8.375   7.384  19.056  0.00  0.00    +0.000 A 
ATOM      3  C   UNL     1       7.966   5.994  18.913  0.00  0.00    +0.000 A 
ATOM      4  O   UNL     1       8.509   5.117  19.576  0.00  0.00    +0.000 OA
ATOM      5  C   UNL     1       6.870   5.745  18.011  0.00  0.00    +0.000 A 
ATOM      6  C   UNL     1       6.164   4.552  18.163  0.00  0.00    +0.000 A 
ATOM      7  C   UNL     1       4.991   4.337  17.455  0.00  0.00    +0.000 A 
ATOM      8  C   UNL     1       4.573   5.306  16.543  0.00  0.00    +0.000 A 
ATOM      9  C   UNL     1       5.325   6.506  16.368  0.00  0.00    +0.000 A 
ATOM     10  C   UNL     1       6.471   6.746  17.136  0.00  0.00    +0.000 A 
ATOM     11  O   UNL     1       7.142   7.969  17.065  0.00  0.00    +0.000 OA
ENDROOT
BRANCH   1  15
ATOM     12  C   UNL     1       9.320  12.368  18.943  0.00  0.00    +0.000 A 
ATOM     13  C   UNL     1       9.812  11.277  19.657  0.00  0.00    +0.000 A 
ATOM     14  C   UNL     1       9.466   9.961  19.313  0.00  0.00    +0.000 A 
ATOM     15  C   UNL     1       8.582   9.655  18.254  0.00  0.00    +0.000 A 
ATOM     16  C   UNL     1       8.222  10.719  17.437  0.00  0.00    +0.000 A 
ATOM     17  C   UNL     1       8.588  12.045  17.782  0.00  0.00    +0.000 A 
BRANCH  12  19
ATOM     18  C   UNL     1       8.422  14.609  19.524  0.00  0.00    +0.000 C 
ATOM     19  N   UNL     1       9.547  13.687  19.348  0.00  0.00    +0.000 N 
ATOM     20  C   UNL     1      10.827  14.299  19.001  0.00  0.00    +0.000 C 
ENDBRANCH  12  19
ENDBRANCH   1  15
BRANCH   7  21
ATOM     21  O   UNL     1       4.322   3.231  17.883  0.00  0.00    +0.000 OA
BRANCH  21  22
ATOM     22  C   UNL     1       4.475   2.753  19.216  0.00  0.00    +0.000 C 
BRANCH  22  23
ATOM     23  C   UNL     1       3.069   2.780  19.848  0.00  0.00    +0.000 C 
BRANCH  23  24
ATOM     24  O   UNL     1       2.188   1.839  19.230  0.00  0.00    +0.000 OA
BRANCH  24  25
ATOM     25  C   UNL     1       1.050   2.495  18.650  0.00  0.00    +0.000 C 
BRANCH  25  26
ATOM     26  C   UNL     1       1.185   4.004  18.782  0.00  0.00    +0.000 C 
ATOM     27  F   UNL     1       1.258   4.559  17.543  0.00  0.00    +0.000 F 
ENDBRANCH  25  26
ENDBRANCH  24  25
ENDBRANCH  23  24
ENDBRANCH  22  23
ENDBRANCH  21  22
ENDBRANCH   7  21
TORSDOF 8
ENDMDL
MODEL 3
REMARK VINA RESULT:      -7.5      1.066      1.196
REMARK  Name = 
REMARK  10 active torsions:
REMARK  status: ('A' for Active; 'I' for Inactive)
REMARK    1  A    between atoms: C_1  and  N_2
REMARK    2  A    between atoms: N_2  and  C_3
REMARK    3  A    between atoms: N_2  and  C_4
REMARK    4  A    between atoms: C_7  and  C_8
REMARK    5  A    between atoms: C_14  and  O_15
REMARK    6  A    between atoms: O_15  and  C_16
REMARK    7  A    between atoms: C_16  and  C_17
REMARK    8  A    between atoms: C_17  and  O_18
REMARK    9  A    between atoms: O_18  and  C_19
REMARK   10  A    between atoms: C_19  and  C_20
REMARK                            x       y       z     vdW  Elec       q    Type
REMARK                         _______ _______ _______ _____ _____    ______ ____
ROOT
ATOM      1  C   UNL     1       8.047   8.292  18.110  0.00  0.00    +0.000 A 
ATOM      2  C   UNL     1       8.373   7.399  19.054  0.00  0.00    +0.000 A 
ATOM      3  C   UNL     1       7.962   6.011  18.902  0.00  0.00    +0.000 A 
ATOM      4  O   UNL     1       8.495   5.131  19.568  0.00  0.00    +0.000 OA
ATOM      5  C   UNL     1       6.874   5.769  17.987  0.00  0.00    +0.000 A 
ATOM      6  C   UNL     1       6.164   4.578  18.127  0.00  0.00    +0.000 A 
ATOM      7  C   UNL     1       4.997   4.369  17.405  0.00  0.00    +0.000 A 
ATOM      8  C   UNL     1       4.593   5.343  16.492  0.00  0.00    +0.000 A 
ATOM      9  C   UNL     1       5.351   6.541  16.329  0.00  0.00    +0.000 A 
ATOM     10  C   UNL     1       6.488   6.775  17.111  0.00  0.00    +0.000 A 
ATOM     11  O   UNL     1       7.163   7.995  17.052  0.00  0.00    +0.000 OA
ENDROOT
BRANCH   1  15
ATOM     12  C   UNL     1       9.321  12.387  18.959  0.00  0.00    +0.000 A 
ATOM     13  C   UNL     1       9.775  11.300  19.703  0.00  0.00    +0.000 A 
ATOM     14  C   UNL     1       9.435   9.983  19.357  0.00  0.00    +0.000 A 
ATOM     15  C   UNL     1       8.596   9.673  18.263  0.00  0.00    +0.000 A 
ATOM     16  C   UNL     1       8.278  10.732  17.422  0.00  0.00    +0.000 A 
ATOM     17  C   UNL     1       8.638  12.058  17.770  0.00  0.00    +0.000 A 
BRANCH  12  19
ATOM     18  C   UNL     1       8.742  14.291  20.445  0.00  0.00    +0.000 C 
ATOM     19  N   UNL     1       9.539  13.709  19.362  0.00  0.00    +0.000 N 
ATOM     20  C   UNL     1      10.057  14.650  18.371  0.00  0.00    +0.000 C 
ENDBRANCH  12  19
ENDBRANCH   1  15
BRANCH   7  21
ATOM     21  O   UNL     1       4.321   3.263  17.822  0.00  0.00    +0.000 OA
BRANCH  21  22
ATOM     22  C   UNL     1       4.481   2.761  19.144  0.00  0.00    +0.000 C 
BRANCH  22  23
ATOM     23  C   UNL     1       3.349   3.385  19.984  0.00  0.00    +0.000 C 
BRANCH  23  24
ATOM     24  O   UNL     1       3.022   2.580  21.120  0.00  0.00    +0.000 OA
BRANCH  24  25
ATOM     25  C   UNL     1       1.664   2.794  21.534  0.00  0.00    +0.000 C 
BRANCH  25  26
ATOM     26  C   UNL     1       0.809   3.215  20.350  0.00  0.00    +0.000 C 
ATOM     27  F   UNL     1       0.414   4.506  20.518  0.00  0.00    +0.000 F 
ENDBRANCH  25  26
ENDBRANCH  24  25
ENDBRANCH  23  24
ENDBRANCH  22  23
ENDBRANCH  21  22
ENDBRANCH   7  21
TORSDOF 8
ENDMDL
MODEL 4
REMARK VINA RESULT:      -7.5      1.128      1.465
REMARK  Name = 
REMARK  10 active torsions:
REMARK  status: ('A' for Active; 'I' for Inactive)
REMARK    1  A    between atoms: C_1  and  N_2
REMARK    2  A    between atoms: N_2  and  C_3
REMARK    3  A    between atoms: N_2  and  C_4
REMARK    4  A    between atoms: C_7  and  C_8
REMARK    5  A    between atoms: C_14  and  O_15
REMARK    6  A    between atoms: O_15  and  C_16
REMARK    7  A    between atoms: C_16  and  C_17
REMARK    8  A    between atoms: C_17  and  O_18
REMARK    9  A    between atoms: O_18  and  C_19
REMARK   10  A    between atoms: C_19  and  C_20
REMARK                            x       y       z     vdW  Elec       q    Type
REMARK                         _______ _______ _______ _____ _____    ______ ____
ROOT
ATOM      1  C   UNL     1       8.039   8.303  18.185  0.00  0.00    +0.000 A 
ATOM      2  C   UNL     1       8.356   7.375  19.098  0.00  0.00    +0.000 A 
ATOM      3  C   UNL     1       7.942   5.995  18.893  0.00  0.00    +0.000 A 
ATOM      4  O   UNL     1       8.468   5.089  19.530  0.00  0.00    +0.000 OA
ATOM      5  C   UNL     1       6.862   5.789  17.960  0.00  0.00    +0.000 A 
ATOM      6  C   UNL     1       6.148   4.595  18.051  0.00  0.00    +0.000 A 
ATOM      7  C   UNL     1       4.987   4.415  17.313  0.00  0.00    +0.000 A 
ATOM      8  C   UNL     1       4.592   5.422  16.432  0.00  0.00    +0.000 A 
ATOM      9  C   UNL     1       5.353   6.624  16.320  0.00  0.00    +0.000 A 
ATOM     10  C   UNL     1       6.485   6.827  17.119  0.00  0.00    +0.000 A 
ATOM     11  O   UNL     1       7.163   8.047  17.110  0.00  0.00    +0.000 OA
ENDROOT
BRANCH   1  15
ATOM     12  C   UNL     1       9.890  12.261  18.335  0.00  0.00    +0.000 A 
ATOM     13  C   UNL     1       8.751  12.003  17.575  0.00  0.00    +0.000 A 
ATOM     14  C   UNL     1       8.111  10.754  17.615  0.00  0.00    +0.000 A 
ATOM     15  C   UNL     1       8.589   9.676  18.393  0.00  0.00    +0.000 A 
ATOM     16  C   UNL     1       9.619   9.974  19.277  0.00  0.00    +0.000 A 
ATOM     17  C   UNL     1      10.250  11.243  19.242  0.00  0.00    +0.000 A 
BRANCH  12  19
ATOM     18  C   UNL     1      11.987  13.428  17.697  0.00  0.00    +0.000 C 
ATOM     19  N   UNL     1      10.615  13.450  18.210  0.00  0.00    +0.000 N 
ATOM     20  C   UNL     1      10.288  14.549  19.116  0.00  0.00    +0.000 C 
ENDBRANCH  12  19
ENDBRANCH   1  15
BRANCH   7  21
ATOM     21  O   UNL     1       4.305   3.296  17.683  0.00  0.00    +0.000 OA
BRANCH  21  22
ATOM     22  C   UNL     1       2.921   3.149  17.382  0.00  0.00    +0.000 C 
BRANCH  22  23
ATOM     23  C   UNL     1       2.365   2.127  18.394  0.00  0.00    +0.000 C 
BRANCH  23  24
ATOM     24  O   UNL     1       2.626   2.518  19.744  0.00  0.00    +0.000 OA
BRANCH  24  25
ATOM     25  C   UNL     1       1.560   3.325  20.267  0.00  0.00    +0.000 C 
BRANCH  25  26
ATOM     26  C   UNL     1       2.112   4.604  20.876  0.00  0.00    +0.000 C 
ATOM     27  F   UNL     1       1.167   5.580  20.807  0.00  0.00    +0.000 F 
ENDBRANCH  25  26
ENDBRANCH  24  25
ENDBRANCH  23  24
ENDBRANCH  22  23
ENDBRANCH  21  22
ENDBRANCH   7  21
TORSDOF 8
ENDMDL
MODEL 5
REMARK VINA RESULT:      -7.4      0.897      1.435
REMARK  Name = 
REMARK  10 active torsions:
REMARK  status: ('A' for Active; 'I' for Inactive)
REMARK    1  A    between atoms: C_1  and  N_2
REMARK    2  A    between atoms: N_2  and  C_3
REMARK    3  A    between atoms: N_2  and  C_4
REMARK    4  A    between atoms: C_7  and  C_8
REMARK    5  A    between atoms: C_14  and  O_15
REMARK    6  A    between atoms: O_15  and  C_16
REMARK    7  A    between atoms: C_16  and  C_17
REMARK    8  A    between atoms: C_17  and  O_18
REMARK    9  A    between atoms: O_18  and  C_19
REMARK   10  A    between atoms: C_19  and  C_20
REMARK                            x       y       z     vdW  Elec       q    Type
REMARK                         _______ _______ _______ _____ _____    ______ ____
ROOT
ATOM      1  C   UNL     1       8.089   8.286  18.182  0.00  0.00    +0.000 A 
ATOM      2  C   UNL     1       8.343   7.333  19.088  0.00  0.00    +0.000 A 
ATOM      3  C   UNL     1       7.964   5.955  18.808  0.00  0.00    +0.000 A 
ATOM      4  O   UNL     1       8.449   5.035  19.456  0.00  0.00    +0.000 OA
ATOM      5  C   UNL     1       6.963   5.769  17.786  0.00  0.00    +0.000 A 
ATOM      6  C   UNL     1       6.258   4.566  17.783  0.00  0.00    +0.000 A 
ATOM      7  C   UNL     1       5.161   4.399  16.950  0.00  0.00    +0.000 A 
ATOM      8  C   UNL     1       4.825   5.431  16.073  0.00  0.00    +0.000 A 
ATOM      9  C   UNL     1       5.579   6.642  16.059  0.00  0.00    +0.000 A 
ATOM     10  C   UNL     1       6.642   6.830  16.951  0.00  0.00    +0.000 A 
ATOM     11  O   UNL     1       7.304   8.056  17.033  0.00  0.00    +0.000 OA
ENDROOT
BRANCH   1  15
ATOM     12  C   UNL     1       9.902  12.240  18.621  0.00  0.00    +0.000 A 
ATOM     13  C   UNL     1       8.882  11.989  17.705  0.00  0.00    +0.000 A 
ATOM     14  C   UNL     1       8.243  10.740  17.645  0.00  0.00    +0.000 A 
ATOM     15  C   UNL     1       8.604   9.656  18.476  0.00  0.00    +0.000 A 
ATOM     16  C   UNL     1       9.498   9.947  19.499  0.00  0.00    +0.000 A 
ATOM     17  C   UNL     1      10.128  11.215  19.562  0.00  0.00    +0.000 A 
BRANCH  12  19
ATOM     18  C   UNL     1      10.336  14.474  17.626  0.00  0.00    +0.000 C 
ATOM     19  N   UNL     1      10.638  13.429  18.608  0.00  0.00    +0.000 N 
ATOM     20  C   UNL     1      12.015  13.386  19.095  0.00  0.00    +0.000 C 
ENDBRANCH  12  19
ENDBRANCH   1  15
BRANCH   7  21
ATOM     21  O   UNL     1       4.466   3.263  17.230  0.00  0.00    +0.000 OA
BRANCH  21  22
ATOM     22  C   UNL     1       3.667   3.164  18.405  0.00  0.00    +0.000 C 
BRANCH  22  23
ATOM     23  C   UNL     1       2.249   2.788  17.933  0.00  0.00    +0.000 C 
BRANCH  23  24
ATOM     24  O   UNL     1       1.239   3.399  18.740  0.00  0.00    +0.000 OA
BRANCH  24  25
ATOM     25  C   UNL     1       1.766   3.809  20.011  0.00  0.00    +0.000 C 
BRANCH  25  26
ATOM     26  C   UNL     1       1.277   2.881  21.111  0.00  0.00    +0.000 C 
ATOM     27  F   UNL     1       2.307   2.604  21.956  0.00  0.00    +0.000 F 
ENDBRANCH  25  26
ENDBRANCH  24  25
ENDBRANCH  23  24
ENDBRANCH  22  23
ENDBRANCH  21  22
ENDBRANCH   7  21
TORSDOF 8
ENDMDL
MODEL 6
REMARK VINA RESULT:      -7.4      6.276      8.086
REMARK  Name = 
REMARK  10 active torsions:
REMARK  status: ('A' for Active; 'I' for Inactive)
REMARK    1  A    between atoms: C_1  and  N_2
REMARK    2  A    between atoms: N_2  and  C_3
REMARK    3  A    between atoms: N_2  and  C_4
REMARK    4  A    between atoms: C_7  and  C_8
REMARK    5  A    between atoms: C_14  and  O_15
REMARK    6  A    between atoms: O_15  and  C_16
REMARK    7  A    between atoms: C_16  and  C_17
REMARK    8  A    between atoms: C_17  and  O_18
REMARK    9  A    between atoms: O_18  and  C_19
REMARK   10  A    between atoms: C_19  and  C_20
REMARK                            x       y       z     vdW  Elec       q    Type
REMARK                         _______ _______ _______ _____ _____    ______ ____
ROOT
ATOM      1  C   UNL     1       1.176   8.736  20.397  0.00  0.00    +0.000 A 
ATOM      2  C   UNL     1       1.740   9.143  19.252  0.00  0.00    +0.000 A 
ATOM      3  C   UNL     1       2.241   8.154  18.307  0.00  0.00    +0.000 A 
ATOM      4  O   UNL     1       2.471   8.469  17.145  0.00  0.00    +0.000 OA
ATOM      5  C   UNL     1       2.496   6.840  18.842  0.00  0.00    +0.000 A 
ATOM      6  C   UNL     1       3.362   6.009  18.132  0.00  0.00    +0.000 A 
ATOM      7  C   UNL     1       3.793   4.811  18.683  0.00  0.00    +0.000 A 
ATOM      8  C   UNL     1       3.288   4.427  19.926  0.00  0.00    +0.000 A 
ATOM      9  C   UNL     1       2.372   5.268  20.625  0.00  0.00    +0.000 A 
ATOM     10  C   UNL     1       1.995   6.508  20.094  0.00  0.00    +0.000 A 
ATOM     11  O   UNL     1       1.202   7.393  20.825  0.00  0.00    +0.000 OA
ENDROOT
BRANCH   1  15
ATOM     12  C   UNL     1      -1.039  11.660  22.775  0.00  0.00    +0.000 A 
ATOM     13  C   UNL     1      -0.921  10.327  23.161  0.00  0.00    +0.000 A 
ATOM     14  C   UNL     1      -0.125   9.423  22.440  0.00  0.00    +0.000 A 
ATOM     15  C   UNL     1       0.578   9.790  21.270  0.00  0.00    +0.000 A 
ATOM     16  C   UNL     1       0.601  11.148  20.975  0.00  0.00    +0.000 A 
ATOM     17  C   UNL     1      -0.194  12.056  21.719  0.00  0.00    +0.000 A 
BRANCH  12  19
ATOM     18  C   UNL     1      -3.373  12.380  23.225  0.00  0.00    +0.000 C 
ATOM     19  N   UNL     1      -1.928  12.541  23.401  0.00  0.00    +0.000 N 
ATOM     20  C   UNL     1      -1.463  13.898  23.678  0.00  0.00    +0.000 C 
ENDBRANCH  12  19
ENDBRANCH   1  15
BRANCH   7  21
ATOM     21  O   UNL     1       4.794   4.238  17.960  0.00  0.00    +0.000 OA
BRANCH  21  22
ATOM     22  C   UNL     1       5.943   4.988  17.579  0.00  0.00    +0.000 C 
BRANCH  22  23
ATOM     23  C   UNL     1       6.756   5.218  18.868  0.00  0.00    +0.000 C 
BRANCH  23  24
ATOM     24  O   UNL     1       7.757   6.225  18.694  0.00  0.00    +0.000 OA
BRANCH  24  25
ATOM     25  C   UNL     1       7.497   7.021  17.528  0.00  0.00    +0.000 C 
BRANCH  25  26
ATOM     26  C   UNL     1       7.897   8.467  17.773  0.00  0.00    +0.000 C 
ATOM     27  F   UNL     1       8.796   8.518  18.794  0.00  0.00    +0.000 F 
ENDBRANCH  25  26
ENDBRANCH  24  25
ENDBRANCH  23  24
ENDBRANCH  22  23
ENDBRANCH  21  22
ENDBRANCH   7  21
TORSDOF 8
ENDMDL
MODEL 7
REMARK VINA RESULT:      -7.3      5.361      7.245
REMARK  Name = 
REMARK  10 active torsions:
REMARK  status: ('A' for Active; 'I' for Inactive)
REMARK    1  A    between atoms: C_1  and  N_2
REMARK    2  A    between atoms: N_2  and  C_3
REMARK    3  A    between atoms: N_2  and  C_4
REMARK    4  A    between atoms: C_7  and  C_8
REMARK    5  A    between atoms: C_14  and  O_15
REMARK    6  A    between atoms: O_15  and  C_16
REMARK    7  A    between atoms: C_16  and  C_17
REMARK    8  A    between atoms: C_17  and  O_18
REMARK    9  A    between atoms: O_18  and  C_19
REMARK   10  A    between atoms: C_19  and  C_20
REMARK                            x       y       z     vdW  Elec       q    Type
REMARK                         _______ _______ _______ _____ _____    ______ ____
ROOT
ATOM      1  C   UNL     1       2.887   6.629  18.342  0.00  0.00    +0.000 A 
ATOM      2  C   UNL     1       2.302   5.459  18.056  0.00  0.00    +0.000 A 
ATOM      3  C   UNL     1       3.094   4.380  17.483  0.00  0.00    +0.000 A 
ATOM      4  O   UNL     1       2.676   3.228  17.500  0.00  0.00    +0.000 OA
ATOM      5  C   UNL     1       4.336   4.768  16.861  0.00  0.00    +0.000 A 
ATOM      6  C   UNL     1       4.900   3.887  15.939  0.00  0.00    +0.000 A 
ATOM      7  C   UNL     1       5.987   4.278  15.171  0.00  0.00    +0.000 A 
ATOM      8  C   UNL     1       6.542   5.539  15.390  0.00  0.00    +0.000 A 
ATOM      9  C   UNL     1       5.979   6.417  16.365  0.00  0.00    +0.000 A 
ATOM     10  C   UNL     1       4.839   6.041  17.087  0.00  0.00    +0.000 A 
ATOM     11  O   UNL     1       4.206   6.938  17.949  0.00  0.00    +0.000 OA
ENDROOT
BRANCH   1  15
ATOM     12  C   UNL     1       0.857   9.947  20.337  0.00  0.00    +0.000 A 
ATOM     13  C   UNL     1       1.011   9.897  18.953  0.00  0.00    +0.000 A 
ATOM     14  C   UNL     1       1.577   8.779  18.320  0.00  0.00    +0.000 A 
ATOM     15  C   UNL     1       2.052   7.655  19.034  0.00  0.00    +0.000 A 
ATOM     16  C   UNL     1       1.750   7.626  20.390  0.00  0.00    +0.000 A 
ATOM     17  C   UNL     1       1.164   8.753  21.019  0.00  0.00    +0.000 A 
BRANCH  12  19
ATOM     18  C   UNL     1       1.111  12.376  20.791  0.00  0.00    +0.000 C 
ATOM     19  N   UNL     1       0.419  11.101  20.995  0.00  0.00    +0.000 N 
ATOM     20  C   UNL     1      -0.259  10.939  22.280  0.00  0.00    +0.000 C 
ENDBRANCH  12  19
ENDBRANCH   1  15
BRANCH   7  21
ATOM     21  O   UNL     1       6.269   3.389  14.179  0.00  0.00    +0.000 OA
BRANCH  21  22
ATOM     22  C   UNL     1       6.539   3.832  12.853  0.00  0.00    +0.000 C 
BRANCH  22  23
ATOM     23  C   UNL     1       5.617   3.013  11.928  0.00  0.00    +0.000 C 
BRANCH  23  24
ATOM     24  O   UNL     1       4.289   3.543  11.894  0.00  0.00    +0.000 OA
BRANCH  24  25
ATOM     25  C   UNL     1       3.529   2.970  10.819  0.00  0.00    +0.000 C 
BRANCH  25  26
ATOM     26  C   UNL     1       3.470   3.930   9.641  0.00  0.00    +0.000 C 
ATOM     27  F   UNL     1       2.362   4.711   9.752  0.00  0.00    +0.000 F 
ENDBRANCH  25  26
ENDBRANCH  24  25
ENDBRANCH  23  24
ENDBRANCH  22  23
ENDBRANCH  21  22
ENDBRANCH   7  21
TORSDOF 8
ENDMDL
MODEL 8
REMARK VINA RESULT:      -7.2      1.527      1.621
REMARK  Name = 
REMARK  10 active torsions:
REMARK  status: ('A' for Active; 'I' for Inactive)
REMARK    1  A    between atoms: C_1  and  N_2
REMARK    2  A    between atoms: N_2  and  C_3
REMARK    3  A    between atoms: N_2  and  C_4
REMARK    4  A    between atoms: C_7  and  C_8
REMARK    5  A    between atoms: C_14  and  O_15
REMARK    6  A    between atoms: O_15  and  C_16
REMARK    7  A    between atoms: C_16  and  C_17
REMARK    8  A    between atoms: C_17  and  O_18
REMARK    9  A    between atoms: O_18  and  C_19
REMARK   10  A    between atoms: C_19  and  C_20
REMARK                            x       y       z     vdW  Elec       q    Type
REMARK                         _______ _______ _______ _____ _____    ______ ____
ROOT
ATOM      1  C   UNL     1       8.075   8.282  18.098  0.00  0.00    +0.000 A 
ATOM      2  C   UNL     1       8.347   7.390  19.060  0.00  0.00    +0.000 A 
ATOM      3  C   UNL     1       7.940   6.002  18.889  0.00  0.00    +0.000 A 
ATOM      4  O   UNL     1       8.433   5.122  19.584  0.00  0.00    +0.000 OA
ATOM      5  C   UNL     1       6.904   5.762  17.915  0.00  0.00    +0.000 A 
ATOM      6  C   UNL     1       6.183   4.572  18.018  0.00  0.00    +0.000 A 
ATOM      7  C   UNL     1       5.058   4.365  17.234  0.00  0.00    +0.000 A 
ATOM      8  C   UNL     1       4.707   5.338  16.298  0.00  0.00    +0.000 A 
ATOM      9  C   UNL     1       5.475   6.534  16.176  0.00  0.00    +0.000 A 
ATOM     10  C   UNL     1       6.569   6.767  17.018  0.00  0.00    +0.000 A 
ATOM     11  O   UNL     1       7.250   7.985  16.994  0.00  0.00    +0.000 OA
ENDROOT
BRANCH   1  15
ATOM     12  C   UNL     1       9.338  12.361  19.033  0.00  0.00    +0.000 A 
ATOM     13  C   UNL     1       9.808  11.259  19.743  0.00  0.00    +0.000 A 
ATOM     14  C   UNL     1       9.471   9.949  19.368  0.00  0.00    +0.000 A 
ATOM     15  C   UNL     1       8.618   9.661  18.279  0.00  0.00    +0.000 A 
ATOM     16  C   UNL     1       8.283  10.739  17.469  0.00  0.00    +0.000 A 
ATOM     17  C   UNL     1       8.641  12.058  17.846  0.00  0.00    +0.000 A 
BRANCH  12  19
ATOM     18  C   UNL     1      10.613  13.965  20.437  0.00  0.00    +0.000 C 
ATOM     19  N   UNL     1       9.554  13.674  19.466  0.00  0.00    +0.000 N 
ATOM     20  C   UNL     1       8.417  14.591  19.464  0.00  0.00    +0.000 C 
ENDBRANCH  12  19
ENDBRANCH   1  15
BRANCH   7  21
ATOM     21  O   UNL     1       4.357   3.262  17.615  0.00  0.00    +0.000 OA
BRANCH  21  22
ATOM     22  C   UNL     1       4.077   3.010  18.988  0.00  0.00    +0.000 C 
BRANCH  22  23
ATOM     23  C   UNL     1       2.849   3.871  19.344  0.00  0.00    +0.000 C 
BRANCH  23  24
ATOM     24  O   UNL     1       3.214   5.038  20.086  0.00  0.00    +0.000 OA
BRANCH  24  25
ATOM     25  C   UNL     1       2.916   6.235  19.352  0.00  0.00    +0.000 C 
BRANCH  25  26
ATOM     26  C   UNL     1       2.054   7.168  20.188  0.00  0.00    +0.000 C 
ATOM     27  F   UNL     1       1.180   6.433  20.927  0.00  0.00    +0.000 F 
ENDBRANCH  25  26
ENDBRANCH  24  25
ENDBRANCH  23  24
ENDBRANCH  22  23
ENDBRANCH  21  22
ENDBRANCH   7  21
TORSDOF 8
ENDMDL
MODEL 9
REMARK VINA RESULT:      -7.2      0.990      1.074
REMARK  Name = 
REMARK  10 active torsions:
REMARK  status: ('A' for Active; 'I' for Inactive)
REMARK    1  A    between atoms: C_1  and  N_2
REMARK    2  A    between atoms: N_2  and  C_3
REMARK    3  A    between atoms: N_2  and  C_4
REMARK    4  A    between atoms: C_7  and  C_8
REMARK    5  A    between atoms: C_14  and  O_15
REMARK    6  A    between atoms: O_15  and  C_16
REMARK    7  A    between atoms: C_16  and  C_17
REMARK    8  A    between atoms: C_17  and  O_18
REMARK    9  A    between atoms: O_18  and  C_19
REMARK   10  A    between atoms: C_19  and  C_20
REMARK                            x       y       z     vdW  Elec       q    Type
REMARK                         _______ _______ _______ _____ _____    ______ ____
ROOT
ATOM      1  C   UNL     1       7.704   8.092  18.047  0.00  0.00    +0.000 A 
ATOM      2  C   UNL     1       8.187   7.095  18.800  0.00  0.00    +0.000 A 
ATOM      3  C   UNL     1       7.666   5.747  18.627  0.00  0.00    +0.000 A 
ATOM      4  O   UNL     1       8.285   4.783  19.062  0.00  0.00    +0.000 OA
ATOM      5  C   UNL     1       6.380   5.643  17.983  0.00  0.00    +0.000 A 
ATOM      6  C   UNL     1       5.650   4.472  18.182  0.00  0.00    +0.000 A 
ATOM      7  C   UNL     1       4.335   4.383  17.748  0.00  0.00    +0.000 A 
ATOM      8  C   UNL     1       3.788   5.461  17.051  0.00  0.00    +0.000 A 
ATOM      9  C   UNL     1       4.559   6.639  16.819  0.00  0.00    +0.000 A 
ATOM     10  C   UNL     1       5.861   6.747  17.321  0.00  0.00    +0.000 A 
ATOM     11  O   UNL     1       6.578   7.940  17.211  0.00  0.00    +0.000 OA
ENDROOT
BRANCH   1  15
ATOM     12  C   UNL     1       9.343  12.055  18.898  0.00  0.00    +0.000 A 
ATOM     13  C   UNL     1       9.812  10.906  19.532  0.00  0.00    +0.000 A 
ATOM     14  C   UNL     1       9.345   9.631  19.177  0.00  0.00    +0.000 A 
ATOM     15  C   UNL     1       8.358   9.428  18.187  0.00  0.00    +0.000 A 
ATOM     16  C   UNL     1       8.009  10.545  17.437  0.00  0.00    +0.000 A 
ATOM     17  C   UNL     1       8.498  11.827  17.792  0.00  0.00    +0.000 A 
BRANCH  12  19
ATOM     18  C   UNL     1      10.279  14.296  18.381  0.00  0.00    +0.000 C 
ATOM     19  N   UNL     1       9.697  13.339  19.325  0.00  0.00    +0.000 N 
ATOM     20  C   UNL     1      10.069  13.515  20.727  0.00  0.00    +0.000 C 
ENDBRANCH  12  19
ENDBRANCH   1  15
BRANCH   7  21
ATOM     21  O   UNL     1       3.709   3.268  18.214  0.00  0.00    +0.000 OA
BRANCH  21  22
ATOM     22  C   UNL     1       2.547   2.757  17.568  0.00  0.00    +0.000 C 
BRANCH  22  23
ATOM     23  C   UNL     1       1.694   2.100  18.671  0.00  0.00    +0.000 C 
BRANCH  23  24
ATOM     24  O   UNL     1       0.867   3.054  19.344  0.00  0.00    +0.000 OA
BRANCH  24  25
ATOM     25  C   UNL     1       1.019   2.959  20.768  0.00  0.00    +0.000 C 
BRANCH  25  26
ATOM     26  C   UNL     1       1.979   4.025  21.271  0.00  0.00    +0.000 C 
ATOM     27  F   UNL     1       1.532   5.251  20.886  0.00  0.00    +0.000 F 
ENDBRANCH  25  26
ENDBRANCH  24  25
ENDBRANCH  23  24
ENDBRANCH  22  23
ENDBRANCH  21  22
ENDBRANCH   7  21
TORSDOF 8
ENDMDL
