MODEL 1
REMARK VINA RESULT:      -7.0      0.000      0.000
REMARK  Name = 
REMARK  6 active torsions:
REMARK  status: ('A' for Active; 'I' for Inactive)
REMARK    1  A    between atoms: C_1  and  N_2
REMARK    2  A    between atoms: N_2  and  C_3
REMARK    3  A    between atoms: N_2  and  C_4
REMARK    4  A    between atoms: C_4  and  C_5
REMARK    5  A    between atoms: C_6  and  C_7
REMARK    6  A    between atoms: C_6  and  C_13
REMARK                            x       y       z     vdW  Elec       q    Type
REMARK                         _______ _______ _______ _____ _____    ______ ____
ROOT
ATOM      1  C   UNL     1       2.393   4.542  17.576  0.00  0.00    +0.000 C 
ATOM      2  C   UNL     1       3.245   5.501  18.021  0.00  0.00    +0.000 C 
ENDROOT
BRANCH   2   3
ATOM      3  C   UNL     1       2.583   6.688  18.638  0.00  0.00    +0.000 A 
ATOM      4  C   UNL     1       2.483   7.860  17.870  0.00  0.00    +0.000 A 
ATOM      5  C   UNL     1       1.892   9.013  18.390  0.00  0.00    +0.000 A 
ATOM      6  C   UNL     1       1.398   9.018  19.693  0.00  0.00    +0.000 A 
ATOM      7  C   UNL     1       1.487   7.866  20.470  0.00  0.00    +0.000 A 
ATOM      8  C   UNL     1       2.069   6.703  19.950  0.00  0.00    +0.000 A 
ATOM      9 BR   UNL     1       2.142   5.181  21.087  0.00  0.00    +0.000 Br
ENDBRANCH   2   3
BRANCH   2  10
ATOM     10  C   UNL     1       4.730   5.384  17.908  0.00  0.00    +0.000 A 
ATOM     11  C   UNL     1       5.406   5.795  16.753  0.00  0.00    +0.000 A 
ATOM     12  C   UNL     1       6.797   5.695  16.670  0.00  0.00    +0.000 A 
ATOM     13  C   UNL     1       7.488   5.178  17.751  0.00  0.00    +0.000 A 
ATOM     14  N   UNL     1       6.885   4.723  18.864  0.00  0.00    +0.000 NA
ATOM     15  C   UNL     1       5.532   4.815  18.899  0.00  0.00    +0.000 A 
ENDBRANCH   2  10
BRANCH   1  16
ATOM     16  C   UNL     1       2.756   3.190  17.016  0.00  0.00    +0.000 C 
BRANCH  16  18
ATOM     17  C   UNL     1       3.520   1.633  18.651  0.00  0.00    +0.000 C 
ATOM     18  N   UNL     1       2.364   2.029  17.832  0.00  0.00    +0.000 NA
ATOM     19  C   UNL     1       1.231   2.326  18.706  0.00  0.00    +0.000 C 
ENDBRANCH  16  18
ENDBRANCH   1  16
TORSDOF 4
ENDMDL
MODEL 2
REMARK VINA RESULT:      -6.9      0.839      1.193
REMARK  Name = 
REMARK  6 active torsions:
REMARK  status: ('A' for Active; 'I' for Inactive)
REMARK    1  A    between atoms: C_1  and  N_2
REMARK    2  A    between atoms: N_2  and  C_3
REMARK    3  A    between atoms: N_2  and  C_4
REMARK    4  A    between atoms: C_4  and  C_5
REMARK    5  A    between atoms: C_6  and  C_7
REMARK    6  A    between atoms: C_6  and  C_13
REMARK                            x       y       z     vdW  Elec       q    Type
REMARK                         _______ _______ _______ _____ _____    ______ ____
ROOT
ATOM      1  C   UNL     1       2.298   4.661  17.694  0.00  0.00    +0.000 C 
ATOM      2  C   UNL     1       3.104   5.711  17.995  0.00  0.00    +0.000 C 
ENDROOT
BRANCH   2   3
ATOM      3  C   UNL     1       2.430   6.830  18.716  0.00  0.00    +0.000 A 
ATOM      4  C   UNL     1       2.252   8.043  18.029  0.00  0.00    +0.000 A 
ATOM      5  C   UNL     1       1.644   9.138  18.648  0.00  0.00    +0.000 A 
ATOM      6  C   UNL     1       1.212   9.043  19.969  0.00  0.00    +0.000 A 
ATOM      7  C   UNL     1       1.378   7.849  20.666  0.00  0.00    +0.000 A 
ATOM      8  C   UNL     1       1.977   6.744  20.047  0.00  0.00    +0.000 A 
ATOM      9 BR   UNL     1       2.158   5.158  21.081  0.00  0.00    +0.000 Br
ENDBRANCH   2   3
BRANCH   2  10
ATOM     10  C   UNL     1       4.555   5.749  17.641  0.00  0.00    +0.000 A 
ATOM     11  C   UNL     1       5.541   5.405  18.574  0.00  0.00    +0.000 A 
ATOM     12  C   UNL     1       6.892   5.429  18.222  0.00  0.00    +0.000 A 
ATOM     13  C   UNL     1       7.233   5.805  16.935  0.00  0.00    +0.000 A 
ATOM     14  N   UNL     1       6.332   6.193  16.015  0.00  0.00    +0.000 NA
ATOM     15  C   UNL     1       5.031   6.179  16.400  0.00  0.00    +0.000 A 
ENDBRANCH   2  10
BRANCH   1  16
ATOM     16  C   UNL     1       2.706   3.346  17.078  0.00  0.00    +0.000 C 
BRANCH  16  18
ATOM     17  C   UNL     1       3.593   1.937  18.783  0.00  0.00    +0.000 C 
ATOM     18  N   UNL     1       2.444   2.147  17.889  0.00  0.00    +0.000 NA
ATOM     19  C   UNL     1       1.227   2.276  18.689  0.00  0.00    +0.000 C 
ENDBRANCH  16  18
ENDBRANCH   1  16
TORSDOF 4
ENDMDL
MODEL 3
REMARK VINA RESULT:      -6.8      2.728      4.465
REMARK  Name = 
REMARK  6 active torsions:
REMARK  status: ('A' for Active; 'I' for Inactive)
REMARK    1  A    between atoms: C_1  and  N_2
REMARK    2  A    between atoms: N_2  and  C_3
REMARK    3  A    between atoms: N_2  and  C_4
REMARK    4  A    between atoms: C_4  and  C_5
REMARK    5  A    between atoms: C_6  and  C_7
REMARK    6  A    between atoms: C_6  and  C_13
REMARK                            x       y       z     vdW  Elec       q    Type
REMARK                         _______ _______ _______ _____ _____    ______ ____
ROOT
ATOM      1  C   UNL     1       5.169   4.336  15.270  0.00  0.00    +0.000 C 
ATOM      2  C   UNL     1       5.081   4.631  16.592  0.00  0.00    +0.000 C 
ENDROOT
BRANCH   2   3
ATOM      3  C   UNL     1       3.819   4.182  17.250  0.00  0.00    +0.000 A 
ATOM      4  C   UNL     1       3.544   2.805  17.274  0.00  0.00    +0.000 A 
ATOM      5  C   UNL     1       2.374   2.314  17.859  0.00  0.00    +0.000 A 
ATOM      6  C   UNL     1       1.453   3.195  18.422  0.00  0.00    +0.000 A 
ATOM      7  C   UNL     1       1.708   4.563  18.409  0.00  0.00    +0.000 A 
ATOM      8  C   UNL     1       2.885   5.060  17.834  0.00  0.00    +0.000 A 
ATOM      9 BR   UNL     1       3.144   6.943  17.868  0.00  0.00    +0.000 Br
ENDBRANCH   2   3
BRANCH   2  10
ATOM     10  C   UNL     1       6.159   5.347  17.338  0.00  0.00    +0.000 A 
ATOM     11  C   UNL     1       6.565   6.636  16.972  0.00  0.00    +0.000 A 
ATOM     12  C   UNL     1       7.562   7.299  17.690  0.00  0.00    +0.000 A 
ATOM     13  C   UNL     1       8.142   6.651  18.766  0.00  0.00    +0.000 A 
ATOM     14  N   UNL     1       7.826   5.395  19.131  0.00  0.00    +0.000 NA
ATOM     15  C   UNL     1       6.870   4.775  18.396  0.00  0.00    +0.000 A 
ENDBRANCH   2  10
BRANCH   1  16
ATOM     16  C   UNL     1       6.356   4.554  14.364  0.00  0.00    +0.000 C 
BRANCH  16  18
ATOM     17  C   UNL     1       5.030   3.571  12.644  0.00  0.00    +0.000 C 
ATOM     18  N   UNL     1       6.402   3.719  13.153  0.00  0.00    +0.000 NA
ATOM     19  C   UNL     1       7.244   4.305  12.111  0.00  0.00    +0.000 C 
ENDBRANCH  16  18
ENDBRANCH   1  16
TORSDOF 4
ENDMDL
MODEL 4
REMARK VINA RESULT:      -6.8      2.305      4.716
REMARK  Name = 
REMARK  6 active torsions:
REMARK  status: ('A' for Active; 'I' for Inactive)
REMARK    1  A    between atoms: C_1  and  N_2
REMARK    2  A    between atoms: N_2  and  C_3
REMARK    3  A    between atoms: N_2  and  C_4
REMARK    4  A    between atoms: C_4  and  C_5
REMARK    5  A    between atoms: C_6  and  C_7
REMARK    6  A    between atoms: C_6  and  C_13
REMARK                            x       y       z     vdW  Elec       q    Type
REMARK                         _______ _______ _______ _____ _____    ______ ____
ROOT
ATOM      1  C   UNL     1       3.066   4.618  17.823  0.00  0.00    +0.000 C 
ATOM      2  C   UNL     1       3.604   5.798  18.221  0.00  0.00    +0.000 C 
ENDROOT
BRANCH   2   3
ATOM      3  C   UNL     1       5.096   5.839  18.216  0.00  0.00    +0.000 A 
ATOM      4  C   UNL     1       5.767   5.507  19.405  0.00  0.00    +0.000 A 
ATOM      5  C   UNL     1       7.161   5.541  19.477  0.00  0.00    +0.000 A 
ATOM      6  C   UNL     1       7.910   5.916  18.364  0.00  0.00    +0.000 A 
ATOM      7  C   UNL     1       7.263   6.247  17.177  0.00  0.00    +0.000 A 
ATOM      8  C   UNL     1       5.866   6.205  17.094  0.00  0.00    +0.000 A 
ATOM      9 BR   UNL     1       5.075   6.673  15.429  0.00  0.00    +0.000 Br
ENDBRANCH   2   3
BRANCH   2  10
ATOM     10  C   UNL     1       2.775   6.973  18.629  0.00  0.00    +0.000 A 
ATOM     11  C   UNL     1       2.520   8.026  17.743  0.00  0.00    +0.000 A 
ATOM     12  C   UNL     1       1.728   9.108  18.134  0.00  0.00    +0.000 A 
ATOM     13  C   UNL     1       1.208   9.117  19.417  0.00  0.00    +0.000 A 
ATOM     14  N   UNL     1       1.462   8.157  20.324  0.00  0.00    +0.000 NA
ATOM     15  C   UNL     1       2.254   7.133  19.915  0.00  0.00    +0.000 A 
ENDBRANCH   2  10
BRANCH   1  16
ATOM     16  C   UNL     1       1.605   4.306  17.613  0.00  0.00    +0.000 C 
BRANCH  16  18
ATOM     17  C   UNL     1       2.185   2.038  18.062  0.00  0.00    +0.000 C 
ATOM     18  N   UNL     1       1.124   3.048  18.205  0.00  0.00    +0.000 NA
ATOM     19  C   UNL     1       0.785   3.196  19.618  0.00  0.00    +0.000 C 
ENDBRANCH  16  18
ENDBRANCH   1  16
TORSDOF 4
ENDMDL
MODEL 5
REMARK VINA RESULT:      -6.6      0.661      1.032
REMARK  Name = 
REMARK  6 active torsions:
REMARK  status: ('A' for Active; 'I' for Inactive)
REMARK    1  A    between atoms: C_1  and  N_2
REMARK    2  A    between atoms: N_2  and  C_3
REMARK    3  A    between atoms: N_2  and  C_4
REMARK    4  A    between atoms: C_4  and  C_5
REMARK    5  A    between atoms: C_6  and  C_7
REMARK    6  A    between atoms: C_6  and  C_13
REMARK                            x       y       z     vdW  Elec       q    Type
REMARK                         _______ _______ _______ _____ _____    ______ ____
ROOT
ATOM      1  C   UNL     1       2.359   5.016  17.706  0.00  0.00    +0.000 C 
ATOM      2  C   UNL     1       3.196   6.011  18.095  0.00  0.00    +0.000 C 
ENDROOT
BRANCH   2   3
ATOM      3  C   UNL     1       2.519   7.283  18.483  0.00  0.00    +0.000 A 
ATOM      4  C   UNL     1       2.572   8.358  17.581  0.00  0.00    +0.000 A 
ATOM      5  C   UNL     1       1.975   9.584  17.886  0.00  0.00    +0.000 A 
ATOM      6  C   UNL     1       1.322   9.759  19.105  0.00  0.00    +0.000 A 
ATOM      7  C   UNL     1       1.258   8.704  20.011  0.00  0.00    +0.000 A 
ATOM      8  C   UNL     1       1.845   7.470  19.706  0.00  0.00    +0.000 A 
ATOM      9 BR   UNL     1       1.702   6.091  21.008  0.00  0.00    +0.000 Br
ENDBRANCH   2   3
BRANCH   2  10
ATOM     10  C   UNL     1       4.681   5.852  18.138  0.00  0.00    +0.000 A 
ATOM     11  C   UNL     1       5.480   6.182  17.037  0.00  0.00    +0.000 A 
ATOM     12  C   UNL     1       6.869   6.045  17.099  0.00  0.00    +0.000 A 
ATOM     13  C   UNL     1       7.433   5.570  18.270  0.00  0.00    +0.000 A 
ATOM     14  N   UNL     1       6.710   5.192  19.340  0.00  0.00    +0.000 NA
ATOM     15  C   UNL     1       5.364   5.318  19.234  0.00  0.00    +0.000 A 
ENDBRANCH   2  10
BRANCH   1  16
ATOM     16  C   UNL     1       2.728   3.593  17.369  0.00  0.00    +0.000 C 
BRANCH  16  18
ATOM     17  C   UNL     1       1.379   2.211  18.767  0.00  0.00    +0.000 C 
ATOM     18  N   UNL     1       2.758   2.652  18.499  0.00  0.00    +0.000 NA
ATOM     19  C   UNL     1       3.593   1.484  18.224  0.00  0.00    +0.000 C 
ENDBRANCH  16  18
ENDBRANCH   1  16
TORSDOF 4
ENDMDL
MODEL 6
REMARK VINA RESULT:      -6.6      2.787      4.587
REMARK  Name = 
REMARK  6 active torsions:
REMARK  status: ('A' for Active; 'I' for Inactive)
REMARK    1  A    between atoms: C_1  and  N_2
REMARK    2  A    between atoms: N_2  and  C_3
REMARK    3  A    between atoms: N_2  and  C_4
REMARK    4  A    between atoms: C_4  and  C_5
REMARK    5  A    between atoms: C_6  and  C_7
REMARK    6  A    between atoms: C_6  and  C_13
REMARK                            x       y       z     vdW  Elec       q    Type
REMARK                         _______ _______ _______ _____ _____    ______ ____
ROOT
ATOM      1  C   UNL     1       5.230   4.505  15.263  0.00  0.00    +0.000 C 
ATOM      2  C   UNL     1       5.132   4.822  16.579  0.00  0.00    +0.000 C 
ENDROOT
BRANCH   2   3
ATOM      3  C   UNL     1       3.886   4.343  17.247  0.00  0.00    +0.000 A 
ATOM      4  C   UNL     1       3.651   2.959  17.287  0.00  0.00    +0.000 A 
ATOM      5  C   UNL     1       2.497   2.442  17.881  0.00  0.00    +0.000 A 
ATOM      6  C   UNL     1       1.552   3.302  18.437  0.00  0.00    +0.000 A 
ATOM      7  C   UNL     1       1.768   4.676  18.408  0.00  0.00    +0.000 A 
ATOM      8  C   UNL     1       2.928   5.201  17.824  0.00  0.00    +0.000 A 
ATOM      9 BR   UNL     1       3.133   7.091  17.835  0.00  0.00    +0.000 Br
ENDBRANCH   2   3
BRANCH   2  10
ATOM     10  C   UNL     1       6.187   5.586  17.312  0.00  0.00    +0.000 A 
ATOM     11  C   UNL     1       6.789   5.070  18.465  0.00  0.00    +0.000 A 
ATOM     12  C   UNL     1       7.787   5.788  19.128  0.00  0.00    +0.000 A 
ATOM     13  C   UNL     1       8.159   7.021  18.623  0.00  0.00    +0.000 A 
ATOM     14  N   UNL     1       7.579   7.586  17.548  0.00  0.00    +0.000 NA
ATOM     15  C   UNL     1       6.599   6.869  16.944  0.00  0.00    +0.000 A 
ENDBRANCH   2  10
BRANCH   1  16
ATOM     16  C   UNL     1       6.408   4.745  14.353  0.00  0.00    +0.000 C 
BRANCH  16  18
ATOM     17  C   UNL     1       5.175   3.517  12.723  0.00  0.00    +0.000 C 
ATOM     18  N   UNL     1       6.529   3.834  13.204  0.00  0.00    +0.000 NA
ATOM     19  C   UNL     1       7.304   4.421  12.112  0.00  0.00    +0.000 C 
ENDBRANCH  16  18
ENDBRANCH   1  16
TORSDOF 4
ENDMDL
MODEL 7
REMARK VINA RESULT:      -6.6      2.242      5.536
REMARK  Name = 
REMARK  6 active torsions:
REMARK  status: ('A' for Active; 'I' for Inactive)
REMARK    1  A    between atoms: C_1  and  N_2
REMARK    2  A    between atoms: N_2  and  C_3
REMARK    3  A    between atoms: N_2  and  C_4
REMARK    4  A    between atoms: C_4  and  C_5
REMARK    5  A    between atoms: C_6  and  C_7
REMARK    6  A    between atoms: C_6  and  C_13
REMARK                            x       y       z     vdW  Elec       q    Type
REMARK                         _______ _______ _______ _____ _____    ______ ____
ROOT
ATOM      1  C   UNL     1       3.410   6.622  18.125  0.00  0.00    +0.000 C 
ATOM      2  C   UNL     1       3.716   5.313  17.934  0.00  0.00    +0.000 C 
ENDROOT
BRANCH   2   3
ATOM      3  C   UNL     1       4.881   5.067  17.036  0.00  0.00    +0.000 A 
ATOM      4  C   UNL     1       4.623   4.797  15.682  0.00  0.00    +0.000 A 
ATOM      5  C   UNL     1       5.664   4.540  14.787  0.00  0.00    +0.000 A 
ATOM      6  C   UNL     1       6.984   4.541  15.233  0.00  0.00    +0.000 A 
ATOM      7  C   UNL     1       7.261   4.808  16.571  0.00  0.00    +0.000 A 
ATOM      8  C   UNL     1       6.222   5.077  17.470  0.00  0.00    +0.000 A 
ATOM      9 BR   UNL     1       6.701   5.432  19.276  0.00  0.00    +0.000 Br
ENDBRANCH   2   3
BRANCH   2  10
ATOM     10  C   UNL     1       2.953   4.199  18.575  0.00  0.00    +0.000 A 
ATOM     11  C   UNL     1       1.759   3.723  18.020  0.00  0.00    +0.000 A 
ATOM     12  C   UNL     1       1.067   2.669  18.620  0.00  0.00    +0.000 A 
ATOM     13  C   UNL     1       1.584   2.113  19.777  0.00  0.00    +0.000 A 
ATOM     14  N   UNL     1       2.699   2.564  20.379  0.00  0.00    +0.000 NA
ATOM     15  C   UNL     1       3.332   3.603  19.780  0.00  0.00    +0.000 A 
ENDBRANCH   2  10
BRANCH   1  16
ATOM     16  C   UNL     1       2.371   7.189  19.059  0.00  0.00    +0.000 C 
BRANCH  16  18
ATOM     17  C   UNL     1       1.728   8.961  17.600  0.00  0.00    +0.000 C 
ATOM     18  N   UNL     1       2.152   8.641  18.972  0.00  0.00    +0.000 NA
ATOM     19  C   UNL     1       1.133   9.103  19.913  0.00  0.00    +0.000 C 
ENDBRANCH  16  18
ENDBRANCH   1  16
TORSDOF 4
ENDMDL
MODEL 8
REMARK VINA RESULT:      -6.6      2.369      5.705
REMARK  Name = 
REMARK  6 active torsions:
REMARK  status: ('A' for Active; 'I' for Inactive)
REMARK    1  A    between atoms: C_1  and  N_2
REMARK    2  A    between atoms: N_2  and  C_3
REMARK    3  A    between atoms: N_2  and  C_4
REMARK    4  A    between atoms: C_4  and  C_5
REMARK    5  A    between atoms: C_6  and  C_7
REMARK    6  A    between atoms: C_6  and  C_13
REMARK                            x       y       z     vdW  Elec       q    Type
REMARK                         _______ _______ _______ _____ _____    ______ ____
ROOT
ATOM      1  C   UNL     1       3.488   7.038  17.775  0.00  0.00    +0.000 C 
ATOM      2  C   UNL     1       3.780   5.776  18.181  0.00  0.00    +0.000 C 
ENDROOT
BRANCH   2   3
ATOM      3  C   UNL     1       5.233   5.433  18.162  0.00  0.00    +0.000 A 
ATOM      4  C   UNL     1       5.980   5.670  19.327  0.00  0.00    +0.000 A 
ATOM      5  C   UNL     1       7.348   5.389  19.375  0.00  0.00    +0.000 A 
ATOM      6  C   UNL     1       7.994   4.874  18.253  0.00  0.00    +0.000 A 
ATOM      7  C   UNL     1       7.270   4.631  17.090  0.00  0.00    +0.000 A 
ATOM      8  C   UNL     1       5.897   4.900  17.039  0.00  0.00    +0.000 A 
ATOM      9 BR   UNL     1       4.995   4.533  15.406  0.00  0.00    +0.000 Br
ENDBRANCH   2   3
BRANCH   2  10
ATOM     10  C   UNL     1       2.736   4.802  18.619  0.00  0.00    +0.000 A 
ATOM     11  C   UNL     1       2.375   4.679  19.966  0.00  0.00    +0.000 A 
ATOM     12  C   UNL     1       1.384   3.776  20.357  0.00  0.00    +0.000 A 
ATOM     13  C   UNL     1       0.774   3.003  19.386  0.00  0.00    +0.000 A 
ATOM     14  N   UNL     1       1.117   3.044  18.085  0.00  0.00    +0.000 NA
ATOM     15  C   UNL     1       2.099   3.916  17.746  0.00  0.00    +0.000 A 
ENDBRANCH   2  10
BRANCH   1  16
ATOM     16  C   UNL     1       2.139   7.712  17.792  0.00  0.00    +0.000 C 
BRANCH  16  18
ATOM     17  C   UNL     1       0.940   9.716  18.269  0.00  0.00    +0.000 C 
ATOM     18  N   UNL     1       1.976   8.800  18.770  0.00  0.00    +0.000 NA
ATOM     19  C   UNL     1       1.586   8.304  20.088  0.00  0.00    +0.000 C 
ENDBRANCH  16  18
ENDBRANCH   1  16
TORSDOF 4
ENDMDL
MODEL 9
REMARK VINA RESULT:      -6.5      2.333      4.838
REMARK  Name = 
REMARK  6 active torsions:
REMARK  status: ('A' for Active; 'I' for Inactive)
REMARK    1  A    between atoms: C_1  and  N_2
REMARK    2  A    between atoms: N_2  and  C_3
REMARK    3  A    between atoms: N_2  and  C_4
REMARK    4  A    between atoms: C_4  and  C_5
REMARK    5  A    between atoms: C_6  and  C_7
REMARK    6  A    between atoms: C_6  and  C_13
REMARK                            x       y       z     vdW  Elec       q    Type
REMARK                         _______ _______ _______ _____ _____    ______ ____
ROOT
ATOM      1  C   UNL     1       3.064   4.617  17.818  0.00  0.00    +0.000 C 
ATOM      2  C   UNL     1       3.594   5.787  18.256  0.00  0.00    +0.000 C 
ENDROOT
BRANCH   2   3
ATOM      3  C   UNL     1       5.085   5.848  18.227  0.00  0.00    +0.000 A 
ATOM      4  C   UNL     1       5.781   5.487  19.392  0.00  0.00    +0.000 A 
ATOM      5  C   UNL     1       7.176   5.537  19.442  0.00  0.00    +0.000 A 
ATOM      6  C   UNL     1       7.900   5.958  18.328  0.00  0.00    +0.000 A 
ATOM      7  C   UNL     1       7.228   6.318  17.164  0.00  0.00    +0.000 A 
ATOM      8  C   UNL     1       5.830   6.260  17.104  0.00  0.00    +0.000 A 
ATOM      9 BR   UNL     1       5.004   6.771  15.469  0.00  0.00    +0.000 Br
ENDBRANCH   2   3
BRANCH   2  10
ATOM     10  C   UNL     1       2.758   6.932  18.729  0.00  0.00    +0.000 A 
ATOM     11  C   UNL     1       2.252   6.972  20.034  0.00  0.00    +0.000 A 
ATOM     12  C   UNL     1       1.487   8.058  20.466  0.00  0.00    +0.000 A 
ATOM     13  C   UNL     1       1.236   9.086  19.575  0.00  0.00    +0.000 A 
ATOM     14  N   UNL     1       1.655   9.075  18.296  0.00  0.00    +0.000 NA
ATOM     15  C   UNL     1       2.376   7.994  17.906  0.00  0.00    +0.000 A 
ENDBRANCH   2  10
BRANCH   1  16
ATOM     16  C   UNL     1       1.604   4.295  17.621  0.00  0.00    +0.000 C 
BRANCH  16  18
ATOM     17  C   UNL     1       2.190   2.039  18.119  0.00  0.00    +0.000 C 
ATOM     18  N   UNL     1       1.129   3.050  18.246  0.00  0.00    +0.000 NA
ATOM     19  C   UNL     1       0.802   3.232  19.659  0.00  0.00    +0.000 C 
ENDBRANCH  16  18
ENDBRANCH   1  16
TORSDOF 4
ENDMDL
