MODEL 1
REMARK VINA RESULT:      -5.9      0.000      0.000
REMARK  Name = 
REMARK  12 active torsions:
REMARK  status: ('A' for Active; 'I' for Inactive)
REMARK    1  A    between atoms: C_1  and  O_2
REMARK    2  A    between atoms: O_2  and  C_3
REMARK    3  A    between atoms: C_3  and  C_4
REMARK    4  A    between atoms: C_4  and  C_5
REMARK    5  A    between atoms: C_8  and  O_9
REMARK    6  A    between atoms: O_9  and  C_10
REMARK    7  A    between atoms: C_10  and  C_11
REMARK    8  A    between atoms: C_11  and  O_12
REMARK    9  A    between atoms: C_11  and  C_13
REMARK   10  A    between atoms: C_13  and  C_14
REMARK   11  A    between atoms: C_13  and  C_15
REMARK   12  A    between atoms: C_13  and  N_16
REMARK                            x       y       z     vdW  Elec       q    Type
REMARK                         _______ _______ _______ _____ _____    ______ ____
ROOT
ATOM      1  O   UNL     1       1.309   3.568  17.608  0.00  0.00    +0.000 OA
ENDROOT
BRANCH   1   5
ATOM      2  C   UNL     1       5.130   5.189  17.054  0.00  0.00    +0.000 A 
ATOM      3  C   UNL     1       4.120   5.977  17.611  0.00  0.00    +0.000 A 
ATOM      4  C   UNL     1       2.845   5.462  17.812  0.00  0.00    +0.000 A 
ATOM      5  C   UNL     1       2.539   4.153  17.446  0.00  0.00    +0.000 A 
ATOM      6  C   UNL     1       3.536   3.361  16.871  0.00  0.00    +0.000 A 
ATOM      7  C   UNL     1       4.827   3.874  16.676  0.00  0.00    +0.000 A 
BRANCH   2   8
ATOM      8  C   UNL     1       6.506   5.776  16.876  0.00  0.00    +0.000 C 
BRANCH   8   9
ATOM      9  C   UNL     1       7.607   4.753  17.164  0.00  0.00    +0.000 C 
BRANCH   9  11
ATOM     10  C   UNL     1       7.900   5.834  19.229  0.00  0.00    +0.000 C 
ATOM     11  O   UNL     1       7.736   4.581  18.575  0.00  0.00    +0.000 OA
ENDBRANCH   9  11
ENDBRANCH   8   9
ENDBRANCH   2   8
ENDBRANCH   1   5
BRANCH   1  12
ATOM     12  C   UNL     1       0.733   3.721  18.918  0.00  0.00    +0.000 C 
BRANCH  12  13
ATOM     13  C   UNL     1       1.159   2.571  19.849  0.00  0.00    +0.000 C 
BRANCH  13  14
ATOM     14  C   UNL     1       2.205   2.948  20.945  0.00  0.00    +0.000 C 
ATOM     15  C   UNL     1       3.620   2.503  20.544  0.00  0.00    +0.000 C 
ATOM     16  C   UNL     1       2.204   4.473  21.144  0.00  0.00    +0.000 C 
BRANCH  14  17
ATOM     17  N   UNL     1       1.889   2.340  22.251  0.00  0.00    +0.000 NA
ATOM     18  H   UNL     1       2.051   3.033  22.989  0.00  0.00    +0.000 HD
ATOM     19  H   UNL     1       2.556   1.590  22.436  0.00  0.00    +0.000 HD
ENDBRANCH  14  17
ENDBRANCH  13  14
BRANCH  13  20
ATOM     20  O   UNL     1       1.647   1.492  19.041  0.00  0.00    +0.000 OA
ATOM     21  H   UNL     1       2.504   1.791  18.680  0.00  0.00    +0.000 HD
ENDBRANCH  13  20
ENDBRANCH  12  13
ENDBRANCH   1  12
TORSDOF 9
ENDMDL
MODEL 2
REMARK VINA RESULT:      -5.9      1.089      1.631
REMARK  Name = 
REMARK  12 active torsions:
REMARK  status: ('A' for Active; 'I' for Inactive)
REMARK    1  A    between atoms: C_1  and  O_2
REMARK    2  A    between atoms: O_2  and  C_3
REMARK    3  A    between atoms: C_3  and  C_4
REMARK    4  A    between atoms: C_4  and  C_5
REMARK    5  A    between atoms: C_8  and  O_9
REMARK    6  A    between atoms: O_9  and  C_10
REMARK    7  A    between atoms: C_10  and  C_11
REMARK    8  A    between atoms: C_11  and  O_12
REMARK    9  A    between atoms: C_11  and  C_13
REMARK   10  A    between atoms: C_13  and  C_14
REMARK   11  A    between atoms: C_13  and  C_15
REMARK   12  A    between atoms: C_13  and  N_16
REMARK                            x       y       z     vdW  Elec       q    Type
REMARK                         _______ _______ _______ _____ _____    ______ ____
ROOT
ATOM      1  O   UNL     1       1.652   3.694  17.554  0.00  0.00    +0.000 OA
ENDROOT
BRANCH   1   5
ATOM      2  C   UNL     1       5.396   5.553  17.292  0.00  0.00    +0.000 A 
ATOM      3  C   UNL     1       5.266   4.208  16.936  0.00  0.00    +0.000 A 
ATOM      4  C   UNL     1       4.034   3.568  17.007  0.00  0.00    +0.000 A 
ATOM      5  C   UNL     1       2.903   4.249  17.453  0.00  0.00    +0.000 A 
ATOM      6  C   UNL     1       3.024   5.589  17.829  0.00  0.00    +0.000 A 
ATOM      7  C   UNL     1       4.264   6.241  17.748  0.00  0.00    +0.000 A 
BRANCH   2   8
ATOM      8  C   UNL     1       6.744   6.216  17.177  0.00  0.00    +0.000 C 
BRANCH   8   9
ATOM      9  C   UNL     1       7.417   6.381  18.541  0.00  0.00    +0.000 C 
BRANCH   9  11
ATOM     10  C   UNL     1       7.845   8.513  17.650  0.00  0.00    +0.000 C 
ATOM     11  O   UNL     1       8.336   7.472  18.487  0.00  0.00    +0.000 OA
ENDBRANCH   9  11
ENDBRANCH   8   9
ENDBRANCH   2   8
ENDBRANCH   1   5
BRANCH   1  12
ATOM     12  C   UNL     1       1.012   3.869  18.830  0.00  0.00    +0.000 C 
BRANCH  12  13
ATOM     13  C   UNL     1       1.307   2.681  19.765  0.00  0.00    +0.000 C 
BRANCH  13  14
ATOM     14  C   UNL     1       2.260   2.989  20.962  0.00  0.00    +0.000 C 
ATOM     15  C   UNL     1       3.694   2.519  20.670  0.00  0.00    +0.000 C 
ATOM     16  C   UNL     1       2.281   4.506  21.217  0.00  0.00    +0.000 C 
BRANCH  14  17
ATOM     17  N   UNL     1       1.814   2.346  22.212  0.00  0.00    +0.000 NA
ATOM     18  H   UNL     1       2.567   1.748  22.566  0.00  0.00    +0.000 HD
ATOM     19  H   UNL     1       1.044   1.711  21.998  0.00  0.00    +0.000 HD
ENDBRANCH  14  17
ENDBRANCH  13  14
BRANCH  13  20
ATOM     20  O   UNL     1       1.826   1.602  18.977  0.00  0.00    +0.000 OA
ATOM     21  H   UNL     1       2.169   2.007  18.157  0.00  0.00    +0.000 HD
ENDBRANCH  13  20
ENDBRANCH  12  13
ENDBRANCH   1  12
TORSDOF 9
ENDMDL
MODEL 3
REMARK VINA RESULT:      -5.9      0.923      1.036
REMARK  Name = 
REMARK  12 active torsions:
REMARK  status: ('A' for Active; 'I' for Inactive)
REMARK    1  A    between atoms: C_1  and  O_2
REMARK    2  A    between atoms: O_2  and  C_3
REMARK    3  A    between atoms: C_3  and  C_4
REMARK    4  A    between atoms: C_4  and  C_5
REMARK    5  A    between atoms: C_8  and  O_9
REMARK    6  A    between atoms: O_9  and  C_10
REMARK    7  A    between atoms: C_10  and  C_11
REMARK    8  A    between atoms: C_11  and  O_12
REMARK    9  A    between atoms: C_11  and  C_13
REMARK   10  A    between atoms: C_13  and  C_14
REMARK   11  A    between atoms: C_13  and  C_15
REMARK   12  A    between atoms: C_13  and  N_16
REMARK                            x       y       z     vdW  Elec       q    Type
REMARK                         _______ _______ _______ _____ _____    ______ ____
ROOT
ATOM      1  O   UNL     1       2.132   3.365  17.255  0.00  0.00    +0.000 OA
ENDROOT
BRANCH   1   5
ATOM      2  C   UNL     1       5.788   5.355  16.793  0.00  0.00    +0.000 A 
ATOM      3  C   UNL     1       4.717   6.011  17.407  0.00  0.00    +0.000 A 
ATOM      4  C   UNL     1       3.495   5.371  17.579  0.00  0.00    +0.000 A 
ATOM      5  C   UNL     1       3.304   4.067  17.127  0.00  0.00    +0.000 A 
ATOM      6  C   UNL     1       4.362   3.408  16.495  0.00  0.00    +0.000 A 
ATOM      7  C   UNL     1       5.599   4.047  16.329  0.00  0.00    +0.000 A 
BRANCH   2   8
ATOM      8  C   UNL     1       7.104   6.075  16.648  0.00  0.00    +0.000 C 
BRANCH   8   9
ATOM      9  C   UNL     1       7.194   7.293  17.571  0.00  0.00    +0.000 C 
BRANCH   9  11
ATOM     10  C   UNL     1       7.902   5.840  19.275  0.00  0.00    +0.000 C 
ATOM     11  O   UNL     1       8.172   7.052  18.581  0.00  0.00    +0.000 OA
ENDBRANCH   9  11
ENDBRANCH   8   9
ENDBRANCH   2   8
ENDBRANCH   1   5
BRANCH   1  12
ATOM     12  C   UNL     1       1.280   3.799  18.329  0.00  0.00    +0.000 C 
BRANCH  12  13
ATOM     13  C   UNL     1       1.269   2.775  19.479  0.00  0.00    +0.000 C 
BRANCH  13  14
ATOM     14  C   UNL     1       2.199   3.112  20.687  0.00  0.00    +0.000 C 
ATOM     15  C   UNL     1       3.641   2.652  20.427  0.00  0.00    +0.000 C 
ATOM     16  C   UNL     1       2.199   4.633  20.918  0.00  0.00    +0.000 C 
BRANCH  14  17
ATOM     17  N   UNL     1       1.737   2.484  21.939  0.00  0.00    +0.000 NA
ATOM     18  H   UNL     1       2.519   1.976  22.365  0.00  0.00    +0.000 HD
ATOM     19  H   UNL     1       1.044   1.769  21.713  0.00  0.00    +0.000 HD
ENDBRANCH  14  17
ENDBRANCH  13  14
BRANCH  13  20
ATOM     20  O   UNL     1       1.596   1.487  18.940  0.00  0.00    +0.000 OA
ATOM     21  H   UNL     1       1.076   0.839  19.454  0.00  0.00    +0.000 HD
ENDBRANCH  13  20
ENDBRANCH  12  13
ENDBRANCH   1  12
TORSDOF 9
ENDMDL
MODEL 4
REMARK VINA RESULT:      -5.9      0.065      1.136
REMARK  Name = 
REMARK  12 active torsions:
REMARK  status: ('A' for Active; 'I' for Inactive)
REMARK    1  A    between atoms: C_1  and  O_2
REMARK    2  A    between atoms: O_2  and  C_3
REMARK    3  A    between atoms: C_3  and  C_4
REMARK    4  A    between atoms: C_4  and  C_5
REMARK    5  A    between atoms: C_8  and  O_9
REMARK    6  A    between atoms: O_9  and  C_10
REMARK    7  A    between atoms: C_10  and  C_11
REMARK    8  A    between atoms: C_11  and  O_12
REMARK    9  A    between atoms: C_11  and  C_13
REMARK   10  A    between atoms: C_13  and  C_14
REMARK   11  A    between atoms: C_13  and  C_15
REMARK   12  A    between atoms: C_13  and  N_16
REMARK                            x       y       z     vdW  Elec       q    Type
REMARK                         _______ _______ _______ _____ _____    ______ ____
ROOT
ATOM      1  O   UNL     1       1.281   3.633  17.607  0.00  0.00    +0.000 OA
ENDROOT
BRANCH   1   5
ATOM      2  C   UNL     1       5.126   5.221  17.121  0.00  0.00    +0.000 A 
ATOM      3  C   UNL     1       4.874   3.896  16.755  0.00  0.00    +0.000 A 
ATOM      4  C   UNL     1       3.606   3.346  16.899  0.00  0.00    +0.000 A 
ATOM      5  C   UNL     1       2.560   4.098  17.430  0.00  0.00    +0.000 A 
ATOM      6  C   UNL     1       2.804   5.418  17.817  0.00  0.00    +0.000 A 
ATOM      7  C   UNL     1       4.080   5.980  17.663  0.00  0.00    +0.000 A 
BRANCH   2   8
ATOM      8  C   UNL     1       6.509   5.787  16.926  0.00  0.00    +0.000 C 
BRANCH   8   9
ATOM      9  C   UNL     1       7.595   4.735  17.161  0.00  0.00    +0.000 C 
BRANCH   9  11
ATOM     10  C   UNL     1       7.927   5.856  19.199  0.00  0.00    +0.000 C 
ATOM     11  O   UNL     1       7.817   4.588  18.563  0.00  0.00    +0.000 OA
ENDBRANCH   9  11
ENDBRANCH   8   9
ENDBRANCH   2   8
ENDBRANCH   1   5
BRANCH   1  12
ATOM     12  C   UNL     1       0.749   3.811  18.931  0.00  0.00    +0.000 C 
BRANCH  12  13
ATOM     13  C   UNL     1       1.130   2.630  19.844  0.00  0.00    +0.000 C 
BRANCH  13  14
ATOM     14  C   UNL     1       2.187   2.950  20.948  0.00  0.00    +0.000 C 
ATOM     15  C   UNL     1       3.587   2.471  20.535  0.00  0.00    +0.000 C 
ATOM     16  C   UNL     1       2.233   4.470  21.181  0.00  0.00    +0.000 C 
BRANCH  14  17
ATOM     17  N   UNL     1       1.852   2.323  22.240  0.00  0.00    +0.000 NA
ATOM     18  H   UNL     1       1.582   1.348  22.078  0.00  0.00    +0.000 HD
ATOM     19  H   UNL     1       1.018   2.773  22.618  0.00  0.00    +0.000 HD
ENDBRANCH  14  17
ENDBRANCH  13  14
BRANCH  13  20
ATOM     20  O   UNL     1       1.578   1.547  19.020  0.00  0.00    +0.000 OA
ATOM     21  H   UNL     1       0.801   1.262  18.502  0.00  0.00    +0.000 HD
ENDBRANCH  13  20
ENDBRANCH  12  13
ENDBRANCH   1  12
TORSDOF 9
ENDMDL
MODEL 5
REMARK VINA RESULT:      -5.8      3.671      6.154
REMARK  Name = 
REMARK  12 active torsions:
REMARK  status: ('A' for Active; 'I' for Inactive)
REMARK    1  A    between atoms: C_1  and  O_2
REMARK    2  A    between atoms: O_2  and  C_3
REMARK    3  A    between atoms: C_3  and  C_4
REMARK    4  A    between atoms: C_4  and  C_5
REMARK    5  A    between atoms: C_8  and  O_9
REMARK    6  A    between atoms: O_9  and  C_10
REMARK    7  A    between atoms: C_10  and  C_11
REMARK    8  A    between atoms: C_11  and  O_12
REMARK    9  A    between atoms: C_11  and  C_13
REMARK   10  A    between atoms: C_13  and  C_14
REMARK   11  A    between atoms: C_13  and  C_15
REMARK   12  A    between atoms: C_13  and  N_16
REMARK                            x       y       z     vdW  Elec       q    Type
REMARK                         _______ _______ _______ _____ _____    ______ ____
ROOT
ATOM      1  O   UNL     1       3.406   4.570  17.587  0.00  0.00    +0.000 OA
ENDROOT
BRANCH   1   5
ATOM      2  C   UNL     1       1.768   7.313  20.295  0.00  0.00    +0.000 A 
ATOM      3  C   UNL     1       1.810   5.956  20.626  0.00  0.00    +0.000 A 
ATOM      4  C   UNL     1       2.355   5.025  19.749  0.00  0.00    +0.000 A 
ATOM      5  C   UNL     1       2.854   5.421  18.510  0.00  0.00    +0.000 A 
ATOM      6  C   UNL     1       2.800   6.773  18.160  0.00  0.00    +0.000 A 
ATOM      7  C   UNL     1       2.262   7.716  19.047  0.00  0.00    +0.000 A 
BRANCH   2   8
ATOM      8  C   UNL     1       1.193   8.293  21.284  0.00  0.00    +0.000 C 
BRANCH   8   9
ATOM      9  C   UNL     1       0.489   9.460  20.588  0.00  0.00    +0.000 C 
BRANCH   9  11
ATOM     10  C   UNL     1      -0.329   9.493  22.789  0.00  0.00    +0.000 C 
ATOM     11  O   UNL     1      -0.312  10.165  21.536  0.00  0.00    +0.000 OA
ENDBRANCH   9  11
ENDBRANCH   8   9
ENDBRANCH   2   8
ENDBRANCH   1   5
BRANCH   1  12
ATOM     12  C   UNL     1       4.737   4.914  17.164  0.00  0.00    +0.000 C 
BRANCH  12  13
ATOM     13  C   UNL     1       5.734   4.817  18.334  0.00  0.00    +0.000 C 
BRANCH  13  14
ATOM     14  C   UNL     1       7.189   5.286  18.017  0.00  0.00    +0.000 C 
ATOM     15  C   UNL     1       7.192   6.497  17.071  0.00  0.00    +0.000 C 
ATOM     16  C   UNL     1       7.892   5.681  19.328  0.00  0.00    +0.000 C 
BRANCH  14  17
ATOM     17  N   UNL     1       7.996   4.219  17.397  0.00  0.00    +0.000 NA
ATOM     18  H   UNL     1       7.406   3.689  16.749  0.00  0.00    +0.000 HD
ATOM     19  H   UNL     1       8.270   3.552  18.119  0.00  0.00    +0.000 HD
ENDBRANCH  14  17
ENDBRANCH  13  14
BRANCH  13  20
ATOM     20  O   UNL     1       5.737   3.467  18.816  0.00  0.00    +0.000 OA
ATOM     21  H   UNL     1       6.672   3.241  18.982  0.00  0.00    +0.000 HD
ENDBRANCH  13  20
ENDBRANCH  12  13
ENDBRANCH   1  12
TORSDOF 9
ENDMDL
MODEL 6
REMARK VINA RESULT:      -5.8      2.789      3.892
REMARK  Name = 
REMARK  12 active torsions:
REMARK  status: ('A' for Active; 'I' for Inactive)
REMARK    1  A    between atoms: C_1  and  O_2
REMARK    2  A    between atoms: O_2  and  C_3
REMARK    3  A    between atoms: C_3  and  C_4
REMARK    4  A    between atoms: C_4  and  C_5
REMARK    5  A    between atoms: C_8  and  O_9
REMARK    6  A    between atoms: O_9  and  C_10
REMARK    7  A    between atoms: C_10  and  C_11
REMARK    8  A    between atoms: C_11  and  O_12
REMARK    9  A    between atoms: C_11  and  C_13
REMARK   10  A    between atoms: C_13  and  C_14
REMARK   11  A    between atoms: C_13  and  C_15
REMARK   12  A    between atoms: C_13  and  N_16
REMARK                            x       y       z     vdW  Elec       q    Type
REMARK                         _______ _______ _______ _____ _____    ______ ____
ROOT
ATOM      1  O   UNL     1       4.929   5.560  19.487  0.00  0.00    +0.000 OA
ENDROOT
BRANCH   1   5
ATOM      2  C   UNL     1       6.374   5.001  15.597  0.00  0.00    +0.000 A 
ATOM      3  C   UNL     1       5.163   5.669  15.794  0.00  0.00    +0.000 A 
ATOM      4  C   UNL     1       4.664   5.874  17.075  0.00  0.00    +0.000 A 
ATOM      5  C   UNL     1       5.351   5.401  18.191  0.00  0.00    +0.000 A 
ATOM      6  C   UNL     1       6.554   4.716  18.005  0.00  0.00    +0.000 A 
ATOM      7  C   UNL     1       7.066   4.516  16.715  0.00  0.00    +0.000 A 
BRANCH   2   8
ATOM      8  C   UNL     1       6.893   4.820  14.193  0.00  0.00    +0.000 C 
BRANCH   8   9
ATOM      9  C   UNL     1       6.347   3.548  13.541  0.00  0.00    +0.000 C 
BRANCH   9  11
ATOM     10  C   UNL     1       4.839   3.258  11.764  0.00  0.00    +0.000 C 
ATOM     11  O   UNL     1       6.096   3.795  12.158  0.00  0.00    +0.000 OA
ENDBRANCH   9  11
ENDBRANCH   8   9
ENDBRANCH   2   8
ENDBRANCH   1   5
BRANCH   1  12
ATOM     12  C   UNL     1       3.506   5.480  19.676  0.00  0.00    +0.000 C 
BRANCH  12  13
ATOM     13  C   UNL     1       3.067   4.035  19.978  0.00  0.00    +0.000 C 
BRANCH  13  14
ATOM     14  C   UNL     1       2.298   3.312  18.827  0.00  0.00    +0.000 C 
ATOM     15  C   UNL     1       1.631   4.322  17.881  0.00  0.00    +0.000 C 
ATOM     16  C   UNL     1       3.286   2.455  18.017  0.00  0.00    +0.000 C 
BRANCH  14  17
ATOM     17  N   UNL     1       1.254   2.404  19.337  0.00  0.00    +0.000 NA
ATOM     18  H   UNL     1       1.561   2.012  20.233  0.00  0.00    +0.000 HD
ATOM     19  H   UNL     1       1.176   1.605  18.707  0.00  0.00    +0.000 HD
ENDBRANCH  14  17
ENDBRANCH  13  14
BRANCH  13  20
ATOM     20  O   UNL     1       2.281   4.041  21.177  0.00  0.00    +0.000 OA
ATOM     21  H   UNL     1       2.207   4.977  21.446  0.00  0.00    +0.000 HD
ENDBRANCH  13  20
ENDBRANCH  12  13
ENDBRANCH   1  12
TORSDOF 9
ENDMDL
MODEL 7
REMARK VINA RESULT:      -5.7      2.991      4.123
REMARK  Name = 
REMARK  12 active torsions:
REMARK  status: ('A' for Active; 'I' for Inactive)
REMARK    1  A    between atoms: C_1  and  O_2
REMARK    2  A    between atoms: O_2  and  C_3
REMARK    3  A    between atoms: C_3  and  C_4
REMARK    4  A    between atoms: C_4  and  C_5
REMARK    5  A    between atoms: C_8  and  O_9
REMARK    6  A    between atoms: O_9  and  C_10
REMARK    7  A    between atoms: C_10  and  C_11
REMARK    8  A    between atoms: C_11  and  O_12
REMARK    9  A    between atoms: C_11  and  C_13
REMARK   10  A    between atoms: C_13  and  C_14
REMARK   11  A    between atoms: C_13  and  C_15
REMARK   12  A    between atoms: C_13  and  N_16
REMARK                            x       y       z     vdW  Elec       q    Type
REMARK                         _______ _______ _______ _____ _____    ______ ____
ROOT
ATOM      1  O   UNL     1       5.228   4.620  19.078  0.00  0.00    +0.000 OA
ENDROOT
BRANCH   1   5
ATOM      2  C   UNL     1       6.451   4.532  15.074  0.00  0.00    +0.000 A 
ATOM      3  C   UNL     1       5.104   4.338  15.389  0.00  0.00    +0.000 A 
ATOM      4  C   UNL     1       4.669   4.370  16.709  0.00  0.00    +0.000 A 
ATOM      5  C   UNL     1       5.572   4.576  17.751  0.00  0.00    +0.000 A 
ATOM      6  C   UNL     1       6.925   4.751  17.449  0.00  0.00    +0.000 A 
ATOM      7  C   UNL     1       7.365   4.732  16.117  0.00  0.00    +0.000 A 
BRANCH   2   8
ATOM      8  C   UNL     1       6.877   4.515  13.629  0.00  0.00    +0.000 C 
BRANCH   8   9
ATOM      9  C   UNL     1       6.277   3.330  12.869  0.00  0.00    +0.000 C 
BRANCH   9  11
ATOM     10  C   UNL     1       4.336   3.225  11.550  0.00  0.00    +0.000 C 
ATOM     11  O   UNL     1       5.628   3.803  11.689  0.00  0.00    +0.000 OA
ENDBRANCH   9  11
ENDBRANCH   8   9
ENDBRANCH   2   8
ENDBRANCH   1   5
BRANCH   1  12
ATOM     12  C   UNL     1       4.056   5.399  19.376  0.00  0.00    +0.000 C 
BRANCH  12  13
ATOM     13  C   UNL     1       3.105   4.633  20.315  0.00  0.00    +0.000 C 
BRANCH  13  14
ATOM     14  C   UNL     1       2.217   3.547  19.630  0.00  0.00    +0.000 C 
ATOM     15  C   UNL     1       1.112   3.051  20.576  0.00  0.00    +0.000 C 
ATOM     16  C   UNL     1       1.559   4.147  18.375  0.00  0.00    +0.000 C 
BRANCH  14  17
ATOM     17  N   UNL     1       3.002   2.379  19.191  0.00  0.00    +0.000 NA
ATOM     18  H   UNL     1       3.687   2.146  19.917  0.00  0.00    +0.000 HD
ATOM     19  H   UNL     1       3.554   2.641  18.374  0.00  0.00    +0.000 HD
ENDBRANCH  14  17
ENDBRANCH  13  14
BRANCH  13  20
ATOM     20  O   UNL     1       2.287   5.587  21.005  0.00  0.00    +0.000 OA
ATOM     21  H   UNL     1       2.213   6.359  20.413  0.00  0.00    +0.000 HD
ENDBRANCH  13  20
ENDBRANCH  12  13
ENDBRANCH   1  12
TORSDOF 9
ENDMDL
MODEL 8
REMARK VINA RESULT:      -5.7      2.821      3.860
REMARK  Name = 
REMARK  12 active torsions:
REMARK  status: ('A' for Active; 'I' for Inactive)
REMARK    1  A    between atoms: C_1  and  O_2
REMARK    2  A    between atoms: O_2  and  C_3
REMARK    3  A    between atoms: C_3  and  C_4
REMARK    4  A    between atoms: C_4  and  C_5
REMARK    5  A    between atoms: C_8  and  O_9
REMARK    6  A    between atoms: O_9  and  C_10
REMARK    7  A    between atoms: C_10  and  C_11
REMARK    8  A    between atoms: C_11  and  O_12
REMARK    9  A    between atoms: C_11  and  C_13
REMARK   10  A    between atoms: C_13  and  C_14
REMARK   11  A    between atoms: C_13  and  C_15
REMARK   12  A    between atoms: C_13  and  N_16
REMARK                            x       y       z     vdW  Elec       q    Type
REMARK                         _______ _______ _______ _____ _____    ______ ____
ROOT
ATOM      1  O   UNL     1       4.571   5.543  19.588  0.00  0.00    +0.000 OA
ENDROOT
BRANCH   1   5
ATOM      2  C   UNL     1       5.700   5.240  15.567  0.00  0.00    +0.000 A 
ATOM      3  C   UNL     1       5.881   4.148  16.420  0.00  0.00    +0.000 A 
ATOM      4  C   UNL     1       5.509   4.219  17.757  0.00  0.00    +0.000 A 
ATOM      5  C   UNL     1       4.963   5.388  18.283  0.00  0.00    +0.000 A 
ATOM      6  C   UNL     1       4.794   6.493  17.444  0.00  0.00    +0.000 A 
ATOM      7  C   UNL     1       5.158   6.421  16.091  0.00  0.00    +0.000 A 
BRANCH   2   8
ATOM      8  C   UNL     1       6.093   5.113  14.118  0.00  0.00    +0.000 C 
BRANCH   8   9
ATOM      9  C   UNL     1       6.184   3.651  13.676  0.00  0.00    +0.000 C 
BRANCH   9  11
ATOM     10  C   UNL     1       5.620   2.453  11.735  0.00  0.00    +0.000 C 
ATOM     11  O   UNL     1       6.297   3.592  12.254  0.00  0.00    +0.000 OA
ENDBRANCH   9  11
ENDBRANCH   8   9
ENDBRANCH   2   8
ENDBRANCH   1   5
BRANCH   1  12
ATOM     12  C   UNL     1       3.151   5.470  19.807  0.00  0.00    +0.000 C 
BRANCH  12  13
ATOM     13  C   UNL     1       2.729   4.055  20.244  0.00  0.00    +0.000 C 
BRANCH  13  14
ATOM     14  C   UNL     1       1.766   3.310  19.267  0.00  0.00    +0.000 C 
ATOM     15  C   UNL     1       1.512   4.135  17.996  0.00  0.00    +0.000 C 
ATOM     16  C   UNL     1       2.393   1.964  18.865  0.00  0.00    +0.000 C 
BRANCH  14  17
ATOM     17  N   UNL     1       0.461   3.013  19.887  0.00  0.00    +0.000 NA
ATOM     18  H   UNL     1       0.534   3.154  20.899  0.00  0.00    +0.000 HD
ATOM     19  H   UNL     1       0.259   2.019  19.767  0.00  0.00    +0.000 HD
ENDBRANCH  14  17
ENDBRANCH  13  14
BRANCH  13  20
ATOM     20  O   UNL     1       2.148   4.140  21.552  0.00  0.00    +0.000 OA
ATOM     21  H   UNL     1       2.534   4.934  21.968  0.00  0.00    +0.000 HD
ENDBRANCH  13  20
ENDBRANCH  12  13
ENDBRANCH   1  12
TORSDOF 9
ENDMDL
MODEL 9
REMARK VINA RESULT:      -5.7      2.248      2.758
REMARK  Name = 
REMARK  12 active torsions:
REMARK  status: ('A' for Active; 'I' for Inactive)
REMARK    1  A    between atoms: C_1  and  O_2
REMARK    2  A    between atoms: O_2  and  C_3
REMARK    3  A    between atoms: C_3  and  C_4
REMARK    4  A    between atoms: C_4  and  C_5
REMARK    5  A    between atoms: C_8  and  O_9
REMARK    6  A    between atoms: O_9  and  C_10
REMARK    7  A    between atoms: C_10  and  C_11
REMARK    8  A    between atoms: C_11  and  O_12
REMARK    9  A    between atoms: C_11  and  C_13
REMARK   10  A    between atoms: C_13  and  C_14
REMARK   11  A    between atoms: C_13  and  C_15
REMARK   12  A    between atoms: C_13  and  N_16
REMARK                            x       y       z     vdW  Elec       q    Type
REMARK                         _______ _______ _______ _____ _____    ______ ____
ROOT
ATOM      1  O   UNL     1       3.263   4.548  17.174  0.00  0.00    +0.000 OA
ENDROOT
BRANCH   1   5
ATOM      2  C   UNL     1       6.849   6.528  18.042  0.00  0.00    +0.000 A 
ATOM      3  C   UNL     1       6.095   6.919  16.932  0.00  0.00    +0.000 A 
ATOM      4  C   UNL     1       4.898   6.284  16.625  0.00  0.00    +0.000 A 
ATOM      5  C   UNL     1       4.431   5.228  17.406  0.00  0.00    +0.000 A 
ATOM      6  C   UNL     1       5.186   4.816  18.508  0.00  0.00    +0.000 A 
ATOM      7  C   UNL     1       6.389   5.463  18.827  0.00  0.00    +0.000 A 
BRANCH   2   8
ATOM      8  C   UNL     1       8.129   7.259  18.355  0.00  0.00    +0.000 C 
BRANCH   8   9
ATOM      9  C   UNL     1       8.084   8.716  17.887  0.00  0.00    +0.000 C 
BRANCH   9  11
ATOM     10  C   UNL     1       9.296  10.701  18.211  0.00  0.00    +0.000 C 
ATOM     11  O   UNL     1       8.763   9.539  18.834  0.00  0.00    +0.000 OA
ENDBRANCH   9  11
ENDBRANCH   8   9
ENDBRANCH   2   8
ENDBRANCH   1   5
BRANCH   1  12
ATOM     12  C   UNL     1       3.139   3.298  17.875  0.00  0.00    +0.000 C 
BRANCH  12  13
ATOM     13  C   UNL     1       1.775   3.191  18.581  0.00  0.00    +0.000 C 
BRANCH  13  14
ATOM     14  C   UNL     1       1.796   3.438  20.123  0.00  0.00    +0.000 C 
ATOM     15  C   UNL     1       3.029   2.794  20.775  0.00  0.00    +0.000 C 
ATOM     16  C   UNL     1       1.829   4.953  20.393  0.00  0.00    +0.000 C 
BRANCH  14  17
ATOM     17  N   UNL     1       0.594   2.905  20.791  0.00  0.00    +0.000 NA
ATOM     18  H   UNL     1      -0.192   2.934  20.134  0.00  0.00    +0.000 HD
ATOM     19  H   UNL     1       0.333   3.534  21.551  0.00  0.00    +0.000 HD
ENDBRANCH  14  17
ENDBRANCH  13  14
BRANCH  13  20
ATOM     20  O   UNL     1       1.213   1.905  18.289  0.00  0.00    +0.000 OA
ATOM     21  H   UNL     1       1.915   1.253  18.479  0.00  0.00    +0.000 HD
ENDBRANCH  13  20
ENDBRANCH  12  13
ENDBRANCH   1  12
TORSDOF 9
ENDMDL
