MODEL 1
REMARK VINA RESULT:      -8.5      0.000      0.000
REMARK  Name = 
REMARK  9 active torsions:
REMARK  status: ('A' for Active; 'I' for Inactive)
REMARK    1  A    between atoms: C_1  and  N_2
REMARK    2  A    between atoms: N_2  and  S_3
REMARK    3  A    between atoms: S_3  and  N_6
REMARK    4  A    between atoms: C_7  and  C_9
REMARK    5  A    between atoms: C_13  and  C_14
REMARK    6  A    between atoms: C_14  and  O_15
REMARK    7  A    between atoms: O_15  and  C_16
REMARK    8  A    between atoms: C_24  and  C_25
REMARK    9  A    between atoms: C_24  and  C_26
REMARK                            x       y       z     vdW  Elec       q    Type
REMARK                         _______ _______ _______ _____ _____    ______ ____
ROOT
ATOM      1  C   UNL     1       5.250   5.324  17.735  0.00  0.00    +0.000 A 
ATOM      2  C   UNL     1       6.201   5.059  18.731  0.00  0.00    +0.000 A 
ATOM      3  C   UNL     1       7.284   5.913  18.934  0.00  0.00    +0.000 A 
ATOM      4 CL   UNL     1       8.393   5.496  20.189  0.00  0.00    +0.000 Cl
ATOM      5  C   UNL     1       7.449   7.050  18.132  0.00  0.00    +0.000 A 
ATOM      6  C   UNL     1       6.500   7.306  17.123  0.00  0.00    +0.000 A 
ATOM      7  C   UNL     1       5.420   6.443  16.924  0.00  0.00    +0.000 A 
ATOM      8  F   UNL     1       4.566   6.708  15.923  0.00  0.00    +0.000 F 
ENDROOT
BRANCH   1  10
ATOM      9  N   UNL     1       3.236   4.285  18.711  0.00  0.00    +0.000 N 
ATOM     10  C   UNL     1       4.111   4.388  17.630  0.00  0.00    +0.000 C 
ATOM     11  O   UNL     1       3.935   3.768  16.586  0.00  0.00    +0.000 OA
ATOM     12  H   UNL     1       3.212   4.974  19.457  0.00  0.00    +0.000 HD
BRANCH   9  13
ATOM     13  S   UNL     1       1.915   3.292  18.702  0.00  0.00    +0.000 S 
ATOM     14  O   UNL     1       2.409   1.949  18.894  0.00  0.00    +0.000 OA
ATOM     15  O   UNL     1       1.056   3.643  17.605  0.00  0.00    +0.000 OA
BRANCH  13  17
ATOM     16  C   UNL     1       1.881   3.480  21.369  0.00  0.00    +0.000 C 
ATOM     17  N   UNL     1       1.186   3.795  20.123  0.00  0.00    +0.000 NA
ATOM     18  H   UNL     1       0.899   4.774  20.014  0.00  0.00    +0.000 HD
ENDBRANCH  13  17
ENDBRANCH   9  13
ENDBRANCH   1  10
BRANCH   5  19
ATOM     19  C   UNL     1       8.604   8.004  18.327  0.00  0.00    +0.000 C 
BRANCH  19  20
ATOM     20  O   UNL     1       8.229   9.312  17.898  0.00  0.00    +0.000 OA
BRANCH  20  21
ATOM     21  C   UNL     1       8.776  10.348  18.614  0.00  0.00    +0.000 A 
ATOM     22  C   UNL     1       9.269  10.259  19.914  0.00  0.00    +0.000 A 
ATOM     23  C   UNL     1       9.851  11.369  20.529  0.00  0.00    +0.000 A 
ATOM     24  C   UNL     1       9.955  12.589  19.854  0.00  0.00    +0.000 A 
ATOM     25  C   UNL     1       9.407  12.710  18.565  0.00  0.00    +0.000 A 
ATOM     26  C   UNL     1       8.835  11.579  17.950  0.00  0.00    +0.000 A 
ATOM     27  C   UNL     1       9.487  14.006  17.795  0.00  0.00    +0.000 C 
ATOM     28  C   UNL     1       9.895  15.203  18.659  0.00  0.00    +0.000 C 
ATOM     29  C   UNL     1      11.074  14.876  19.596  0.00  0.00    +0.000 C 
ATOM     30  C   UNL     1      12.327  14.450  18.803  0.00  0.00    +0.000 C 
ATOM     31  C   UNL     1      11.440  16.126  20.417  0.00  0.00    +0.000 C 
ATOM     32  C   UNL     1      10.624  13.751  20.552  0.00  0.00    +0.000 C 
ENDBRANCH  20  21
ENDBRANCH  19  20
ENDBRANCH   5  19
TORSDOF 6
ENDMDL
MODEL 2
REMARK VINA RESULT:      -8.4      6.712      8.646
REMARK  Name = 
REMARK  9 active torsions:
REMARK  status: ('A' for Active; 'I' for Inactive)
REMARK    1  A    between atoms: C_1  and  N_2
REMARK    2  A    between atoms: N_2  and  S_3
REMARK    3  A    between atoms: S_3  and  N_6
REMARK    4  A    between atoms: C_7  and  C_9
REMARK    5  A    between atoms: C_13  and  C_14
REMARK    6  A    between atoms: C_14  and  O_15
REMARK    7  A    between atoms: O_15  and  C_16
REMARK    8  A    between atoms: C_24  and  C_25
REMARK    9  A    between atoms: C_24  and  C_26
REMARK                            x       y       z     vdW  Elec       q    Type
REMARK                         _______ _______ _______ _____ _____    ______ ____
ROOT
ATOM      1  C   UNL     1       4.026   5.380  18.196  0.00  0.00    +0.000 A 
ATOM      2  C   UNL     1       3.571   4.686  19.326  0.00  0.00    +0.000 A 
ATOM      3  C   UNL     1       2.621   5.247  20.178  0.00  0.00    +0.000 A 
ATOM      4 CL   UNL     1       2.127   4.305  21.538  0.00  0.00    +0.000 Cl
ATOM      5  C   UNL     1       2.111   6.527  19.925  0.00  0.00    +0.000 A 
ATOM      6  C   UNL     1       2.580   7.229  18.797  0.00  0.00    +0.000 A 
ATOM      7  C   UNL     1       3.535   6.661  17.951  0.00  0.00    +0.000 A 
ATOM      8  F   UNL     1       3.981   7.385  16.913  0.00  0.00    +0.000 F 
ENDROOT
BRANCH   1  10
ATOM      9  N   UNL     1       5.986   5.437  16.700  0.00  0.00    +0.000 N 
ATOM     10  C   UNL     1       4.995   4.683  17.326  0.00  0.00    +0.000 C 
ATOM     11  O   UNL     1       4.935   3.462  17.215  0.00  0.00    +0.000 OA
ATOM     12  H   UNL     1       6.210   6.385  16.988  0.00  0.00    +0.000 HD
BRANCH   9  13
ATOM     13  S   UNL     1       7.138   4.766  15.723  0.00  0.00    +0.000 S 
ATOM     14  O   UNL     1       8.037   4.038  16.587  0.00  0.00    +0.000 OA
ATOM     15  O   UNL     1       7.606   5.749  14.785  0.00  0.00    +0.000 OA
BRANCH  13  17
ATOM     16  C   UNL     1       6.059   3.851  13.453  0.00  0.00    +0.000 C 
ATOM     17  N   UNL     1       6.188   3.662  14.897  0.00  0.00    +0.000 NA
ATOM     18  H   UNL     1       6.451   2.717  15.196  0.00  0.00    +0.000 HD
ENDBRANCH  13  17
ENDBRANCH   9  13
ENDBRANCH   1  10
BRANCH   5  19
ATOM     19  C   UNL     1       1.075   7.164  20.820  0.00  0.00    +0.000 C 
BRANCH  19  20
ATOM     20  O   UNL     1       1.549   8.427  21.288  0.00  0.00    +0.000 OA
BRANCH  20  21
ATOM     21  C   UNL     1       0.579   9.310  21.692  0.00  0.00    +0.000 A 
ATOM     22  C   UNL     1       0.045   9.391  22.976  0.00  0.00    +0.000 A 
ATOM     23  C   UNL     1      -0.906  10.365  23.288  0.00  0.00    +0.000 A 
ATOM     24  C   UNL     1      -1.338  11.280  22.322  0.00  0.00    +0.000 A 
ATOM     25  C   UNL     1      -0.853  11.171  21.007  0.00  0.00    +0.000 A 
ATOM     26  C   UNL     1       0.116  10.193  20.709  0.00  0.00    +0.000 A 
ATOM     27  C   UNL     1      -1.291  12.129  19.925  0.00  0.00    +0.000 C 
ATOM     28  C   UNL     1      -2.516  12.963  20.312  0.00  0.00    +0.000 C 
ATOM     29  C   UNL     1      -2.414  13.528  21.743  0.00  0.00    +0.000 C 
ATOM     30  C   UNL     1      -1.181  14.442  21.904  0.00  0.00    +0.000 C 
ATOM     31  C   UNL     1      -3.665  14.369  22.053  0.00  0.00    +0.000 C 
ATOM     32  C   UNL     1      -2.343  12.336  22.721  0.00  0.00    +0.000 C 
ENDBRANCH  20  21
ENDBRANCH  19  20
ENDBRANCH   5  19
TORSDOF 6
ENDMDL
MODEL 3
REMARK VINA RESULT:      -8.2      6.812      8.508
REMARK  Name = 
REMARK  9 active torsions:
REMARK  status: ('A' for Active; 'I' for Inactive)
REMARK    1  A    between atoms: C_1  and  N_2
REMARK    2  A    between atoms: N_2  and  S_3
REMARK    3  A    between atoms: S_3  and  N_6
REMARK    4  A    between atoms: C_7  and  C_9
REMARK    5  A    between atoms: C_13  and  C_14
REMARK    6  A    between atoms: C_14  and  O_15
REMARK    7  A    between atoms: O_15  and  C_16
REMARK    8  A    between atoms: C_24  and  C_25
REMARK    9  A    between atoms: C_24  and  C_26
REMARK                            x       y       z     vdW  Elec       q    Type
REMARK                         _______ _______ _______ _____ _____    ______ ____
ROOT
ATOM      1  C   UNL     1       3.900   5.371  18.460  0.00  0.00    +0.000 A 
ATOM      2  C   UNL     1       3.365   6.598  18.045  0.00  0.00    +0.000 A 
ATOM      3  C   UNL     1       2.452   7.288  18.840  0.00  0.00    +0.000 A 
ATOM      4 CL   UNL     1       1.858   8.792  18.235  0.00  0.00    +0.000 Cl
ATOM      5  C   UNL     1       2.040   6.757  20.069  0.00  0.00    +0.000 A 
ATOM      6  C   UNL     1       2.568   5.516  20.478  0.00  0.00    +0.000 A 
ATOM      7  C   UNL     1       3.480   4.830  19.673  0.00  0.00    +0.000 A 
ATOM      8  F   UNL     1       3.923   3.633  20.087  0.00  0.00    +0.000 F 
ENDROOT
BRANCH   1  10
ATOM      9  N   UNL     1       5.934   5.529  17.073  0.00  0.00    +0.000 N 
ATOM     10  C   UNL     1       4.900   4.740  17.573  0.00  0.00    +0.000 C 
ATOM     11  O   UNL     1       4.825   3.537  17.340  0.00  0.00    +0.000 OA
ATOM     12  H   UNL     1       6.160   6.439  17.464  0.00  0.00    +0.000 HD
BRANCH   9  13
ATOM     13  S   UNL     1       7.122   4.931  16.091  0.00  0.00    +0.000 S 
ATOM     14  O   UNL     1       7.910   4.031  16.901  0.00  0.00    +0.000 OA
ATOM     15  O   UNL     1       7.714   6.005  15.342  0.00  0.00    +0.000 OA
BRANCH  13  17
ATOM     16  C   UNL     1       6.583   4.000  13.643  0.00  0.00    +0.000 C 
ATOM     17  N   UNL     1       6.182   4.019  15.048  0.00  0.00    +0.000 NA
ATOM     18  H   UNL     1       6.023   3.099  15.473  0.00  0.00    +0.000 HD
ENDBRANCH  13  17
ENDBRANCH   9  13
ENDBRANCH   1  10
BRANCH   5  19
ATOM     19  C   UNL     1       1.059   7.479  20.962  0.00  0.00    +0.000 C 
BRANCH  19  20
ATOM     20  O   UNL     1       1.606   8.733  21.368  0.00  0.00    +0.000 OA
BRANCH  20  21
ATOM     21  C   UNL     1       0.692   9.671  21.781  0.00  0.00    +0.000 A 
ATOM     22  C   UNL     1      -0.077   9.593  22.940  0.00  0.00    +0.000 A 
ATOM     23  C   UNL     1      -0.942  10.633  23.288  0.00  0.00    +0.000 A 
ATOM     24  C   UNL     1      -1.051  11.773  22.484  0.00  0.00    +0.000 A 
ATOM     25  C   UNL     1      -0.327  11.837  21.281  0.00  0.00    +0.000 A 
ATOM     26  C   UNL     1       0.552  10.788  20.948  0.00  0.00    +0.000 A 
ATOM     27  C   UNL     1      -0.413  13.041  20.374  0.00  0.00    +0.000 C 
ATOM     28  C   UNL     1      -1.577  13.977  20.716  0.00  0.00    +0.000 C 
ATOM     29  C   UNL     1      -1.697  14.236  22.231  0.00  0.00    +0.000 C 
ATOM     30  C   UNL     1      -0.419  14.887  22.798  0.00  0.00    +0.000 C 
ATOM     31  C   UNL     1      -2.871  15.196  22.496  0.00  0.00    +0.000 C 
ATOM     32  C   UNL     1      -1.976  12.884  22.923  0.00  0.00    +0.000 C 
ENDBRANCH  20  21
ENDBRANCH  19  20
ENDBRANCH   5  19
TORSDOF 6
ENDMDL
MODEL 4
REMARK VINA RESULT:      -8.2      6.673      8.764
REMARK  Name = 
REMARK  9 active torsions:
REMARK  status: ('A' for Active; 'I' for Inactive)
REMARK    1  A    between atoms: C_1  and  N_2
REMARK    2  A    between atoms: N_2  and  S_3
REMARK    3  A    between atoms: S_3  and  N_6
REMARK    4  A    between atoms: C_7  and  C_9
REMARK    5  A    between atoms: C_13  and  C_14
REMARK    6  A    between atoms: C_14  and  O_15
REMARK    7  A    between atoms: O_15  and  C_16
REMARK    8  A    between atoms: C_24  and  C_25
REMARK    9  A    between atoms: C_24  and  C_26
REMARK                            x       y       z     vdW  Elec       q    Type
REMARK                         _______ _______ _______ _____ _____    ______ ____
ROOT
ATOM      1  C   UNL     1       4.484   6.446  17.863  0.00  0.00    +0.000 A 
ATOM      2  C   UNL     1       3.616   7.502  17.552  0.00  0.00    +0.000 A 
ATOM      3  C   UNL     1       2.541   7.816  18.382  0.00  0.00    +0.000 A 
ATOM      4 CL   UNL     1       1.538   9.138  17.908  0.00  0.00    +0.000 Cl
ATOM      5  C   UNL     1       2.300   7.067  19.541  0.00  0.00    +0.000 A 
ATOM      6  C   UNL     1       3.165   5.997  19.845  0.00  0.00    +0.000 A 
ATOM      7  C   UNL     1       4.238   5.687  19.005  0.00  0.00    +0.000 A 
ATOM      8  F   UNL     1       5.008   4.634  19.315  0.00  0.00    +0.000 F 
ENDROOT
BRANCH   1  10
ATOM      9  N   UNL     1       5.620   5.081  16.150  0.00  0.00    +0.000 N 
ATOM     10  C   UNL     1       5.624   6.223  16.950  0.00  0.00    +0.000 C 
ATOM     11  O   UNL     1       6.514   7.065  16.881  0.00  0.00    +0.000 OA
ATOM     12  H   UNL     1       4.781   4.527  16.000  0.00  0.00    +0.000 HD
BRANCH   9  13
ATOM     13  S   UNL     1       6.826   4.736  15.075  0.00  0.00    +0.000 S 
ATOM     14  O   UNL     1       7.961   4.302  15.855  0.00  0.00    +0.000 OA
ATOM     15  O   UNL     1       6.923   5.791  14.104  0.00  0.00    +0.000 OA
BRANCH  13  17
ATOM     16  C   UNL     1       6.110   3.405  12.869  0.00  0.00    +0.000 C 
ATOM     17  N   UNL     1       6.153   3.396  14.330  0.00  0.00    +0.000 NA
ATOM     18  H   UNL     1       6.553   2.552  14.754  0.00  0.00    +0.000 HD
ENDBRANCH  13  17
ENDBRANCH   9  13
ENDBRANCH   1  10
BRANCH   5  19
ATOM     19  C   UNL     1       1.151   7.382  20.470  0.00  0.00    +0.000 C 
BRANCH  19  20
ATOM     20  O   UNL     1       1.552   8.369  21.420  0.00  0.00    +0.000 OA
BRANCH  20  21
ATOM     21  C   UNL     1       0.586   9.280  21.768  0.00  0.00    +0.000 A 
ATOM     22  C   UNL     1       0.004   9.398  23.028  0.00  0.00    +0.000 A 
ATOM     23  C   UNL     1      -0.936  10.398  23.284  0.00  0.00    +0.000 A 
ATOM     24  C   UNL     1      -1.309  11.303  22.285  0.00  0.00    +0.000 A 
ATOM     25  C   UNL     1      -0.775  11.158  20.992  0.00  0.00    +0.000 A 
ATOM     26  C   UNL     1       0.182  10.154  20.751  0.00  0.00    +0.000 A 
ATOM     27  C   UNL     1      -1.149  12.104  19.876  0.00  0.00    +0.000 C 
ATOM     28  C   UNL     1      -2.369  12.972  20.198  0.00  0.00    +0.000 C 
ATOM     29  C   UNL     1      -2.311  13.562  21.621  0.00  0.00    +0.000 C 
ATOM     30  C   UNL     1      -1.066  14.452  21.815  0.00  0.00    +0.000 C 
ATOM     31  C   UNL     1      -3.555  14.435  21.865  0.00  0.00    +0.000 C 
ATOM     32  C   UNL     1      -2.305  12.388  22.623  0.00  0.00    +0.000 C 
ENDBRANCH  20  21
ENDBRANCH  19  20
ENDBRANCH   5  19
TORSDOF 6
ENDMDL
MODEL 5
REMARK VINA RESULT:      -8.1      6.981      8.902
REMARK  Name = 
REMARK  9 active torsions:
REMARK  status: ('A' for Active; 'I' for Inactive)
REMARK    1  A    between atoms: C_1  and  N_2
REMARK    2  A    between atoms: N_2  and  S_3
REMARK    3  A    between atoms: S_3  and  N_6
REMARK    4  A    between atoms: C_7  and  C_9
REMARK    5  A    between atoms: C_13  and  C_14
REMARK    6  A    between atoms: C_14  and  O_15
REMARK    7  A    between atoms: O_15  and  C_16
REMARK    8  A    between atoms: C_24  and  C_25
REMARK    9  A    between atoms: C_24  and  C_26
REMARK                            x       y       z     vdW  Elec       q    Type
REMARK                         _______ _______ _______ _____ _____    ______ ____
ROOT
ATOM      1  C   UNL     1       3.846   5.661  18.509  0.00  0.00    +0.000 A 
ATOM      2  C   UNL     1       3.436   6.885  17.961  0.00  0.00    +0.000 A 
ATOM      3  C   UNL     1       2.490   7.679  18.608  0.00  0.00    +0.000 A 
ATOM      4 CL   UNL     1       2.059   9.168  17.849  0.00  0.00    +0.000 Cl
ATOM      5  C   UNL     1       1.920   7.258  19.816  0.00  0.00    +0.000 A 
ATOM      6  C   UNL     1       2.323   6.021  20.358  0.00  0.00    +0.000 A 
ATOM      7  C   UNL     1       3.268   5.230  19.701  0.00  0.00    +0.000 A 
ATOM      8  F   UNL     1       3.589   4.042  20.235  0.00  0.00    +0.000 F 
ENDROOT
BRANCH   1  10
ATOM      9  N   UNL     1       5.858   5.639  17.081  0.00  0.00    +0.000 N 
ATOM     10  C   UNL     1       4.891   4.915  17.777  0.00  0.00    +0.000 C 
ATOM     11  O   UNL     1       4.911   3.690  17.839  0.00  0.00    +0.000 OA
ATOM     12  H   UNL     1       6.011   6.631  17.239  0.00  0.00    +0.000 HD
BRANCH   9  13
ATOM     13  S   UNL     1       7.087   4.917  16.245  0.00  0.00    +0.000 S 
ATOM     14  O   UNL     1       7.907   4.240  17.223  0.00  0.00    +0.000 OA
ATOM     15  O   UNL     1       7.636   5.847  15.297  0.00  0.00    +0.000 OA
BRANCH  13  17
ATOM     16  C   UNL     1       6.071   3.964  13.962  0.00  0.00    +0.000 C 
ATOM     17  N   UNL     1       6.208   3.767  15.404  0.00  0.00    +0.000 NA
ATOM     18  H   UNL     1       6.528   2.836  15.693  0.00  0.00    +0.000 HD
ENDBRANCH  13  17
ENDBRANCH   9  13
ENDBRANCH   1  10
BRANCH   5  19
ATOM     19  C   UNL     1       0.898   8.094  20.550  0.00  0.00    +0.000 C 
BRANCH  19  20
ATOM     20  O   UNL     1       1.551   9.158  21.243  0.00  0.00    +0.000 OA
BRANCH  20  21
ATOM     21  C   UNL     1       0.864  10.346  21.283  0.00  0.00    +0.000 A 
ATOM     22  C   UNL     1       1.126  11.457  20.484  0.00  0.00    +0.000 A 
ATOM     23  C   UNL     1       0.327  12.599  20.575  0.00  0.00    +0.000 A 
ATOM     24  C   UNL     1      -0.751  12.650  21.464  0.00  0.00    +0.000 A 
ATOM     25  C   UNL     1      -0.989  11.560  22.318  0.00  0.00    +0.000 A 
ATOM     26  C   UNL     1      -0.185  10.409  22.207  0.00  0.00    +0.000 A 
ATOM     27  C   UNL     1      -2.136  11.567  23.300  0.00  0.00    +0.000 C 
ATOM     28  C   UNL     1      -2.760  12.952  23.497  0.00  0.00    +0.000 C 
ATOM     29  C   UNL     1      -2.982  13.690  22.162  0.00  0.00    +0.000 C 
ATOM     30  C   UNL     1      -3.925  12.903  21.229  0.00  0.00    +0.000 C 
ATOM     31  C   UNL     1      -3.628  15.061  22.436  0.00  0.00    +0.000 C 
ATOM     32  C   UNL     1      -1.604  13.898  21.499  0.00  0.00    +0.000 C 
ENDBRANCH  20  21
ENDBRANCH  19  20
ENDBRANCH   5  19
TORSDOF 6
ENDMDL
MODEL 6
REMARK VINA RESULT:      -8.1      7.947     10.920
REMARK  Name = 
REMARK  9 active torsions:
REMARK  status: ('A' for Active; 'I' for Inactive)
REMARK    1  A    between atoms: C_1  and  N_2
REMARK    2  A    between atoms: N_2  and  S_3
REMARK    3  A    between atoms: S_3  and  N_6
REMARK    4  A    between atoms: C_7  and  C_9
REMARK    5  A    between atoms: C_13  and  C_14
REMARK    6  A    between atoms: C_14  and  O_15
REMARK    7  A    between atoms: O_15  and  C_16
REMARK    8  A    between atoms: C_24  and  C_25
REMARK    9  A    between atoms: C_24  and  C_26
REMARK                            x       y       z     vdW  Elec       q    Type
REMARK                         _______ _______ _______ _____ _____    ______ ____
ROOT
ATOM      1  C   UNL     1      -2.909  11.571  18.879  0.00  0.00    +0.000 A 
ATOM      2  C   UNL     1      -2.007  12.374  19.590  0.00  0.00    +0.000 A 
ATOM      3  C   UNL     1      -0.631  12.176  19.482  0.00  0.00    +0.000 A 
ATOM      4 CL   UNL     1       0.391  13.224  20.397  0.00  0.00    +0.000 Cl
ATOM      5  C   UNL     1      -0.125  11.156  18.667  0.00  0.00    +0.000 A 
ATOM      6  C   UNL     1      -1.034  10.340  17.964  0.00  0.00    +0.000 A 
ATOM      7  C   UNL     1      -2.411  10.543  18.082  0.00  0.00    +0.000 A 
ATOM      8  F   UNL     1      -3.237   9.714  17.425  0.00  0.00    +0.000 F 
ENDROOT
BRANCH   1  10
ATOM      9  N   UNL     1      -5.270  10.854  18.893  0.00  0.00    +0.000 N 
ATOM     10  C   UNL     1      -4.345  11.890  19.018  0.00  0.00    +0.000 C 
ATOM     11  O   UNL     1      -4.683  13.039  19.287  0.00  0.00    +0.000 OA
ATOM     12  H   UNL     1      -4.999   9.876  18.941  0.00  0.00    +0.000 HD
BRANCH   9  13
ATOM     13  S   UNL     1      -6.899  11.084  19.052  0.00  0.00    +0.000 S 
ATOM     14  O   UNL     1      -7.336  11.766  17.856  0.00  0.00    +0.000 OA
ATOM     15  O   UNL     1      -7.189  11.583  20.368  0.00  0.00    +0.000 OA
BRANCH  13  17
ATOM     16  C   UNL     1      -7.364   8.718  20.208  0.00  0.00    +0.000 C 
ATOM     17  N   UNL     1      -7.409   9.491  18.969  0.00  0.00    +0.000 NA
ATOM     18  H   UNL     1      -8.300   9.460  18.462  0.00  0.00    +0.000 HD
ENDBRANCH  13  17
ENDBRANCH   9  13
ENDBRANCH   1  10
BRANCH   5  19
ATOM     19  C   UNL     1       1.359  10.916  18.518  0.00  0.00    +0.000 C 
BRANCH  19  20
ATOM     20  O   UNL     1       1.585   9.664  17.871  0.00  0.00    +0.000 OA
BRANCH  20  21
ATOM     21  C   UNL     1       1.751   8.588  18.708  0.00  0.00    +0.000 A 
ATOM     22  C   UNL     1       1.466   8.574  20.072  0.00  0.00    +0.000 A 
ATOM     23  C   UNL     1       1.627   7.405  20.818  0.00  0.00    +0.000 A 
ATOM     24  C   UNL     1       2.072   6.225  20.213  0.00  0.00    +0.000 A 
ATOM     25  C   UNL     1       2.421   6.240  18.852  0.00  0.00    +0.000 A 
ATOM     26  C   UNL     1       2.241   7.422  18.107  0.00  0.00    +0.000 A 
ATOM     27  C   UNL     1       2.912   4.996  18.152  0.00  0.00    +0.000 C 
ATOM     28  C   UNL     1       3.299   3.869  19.115  0.00  0.00    +0.000 C 
ATOM     29  C   UNL     1       2.261   3.673  20.237  0.00  0.00    +0.000 C 
ATOM     30  C   UNL     1       0.872   3.317  19.668  0.00  0.00    +0.000 C 
ATOM     31  C   UNL     1       2.705   2.517  21.151  0.00  0.00    +0.000 C 
ATOM     32  C   UNL     1       2.196   4.979  21.059  0.00  0.00    +0.000 C 
ENDBRANCH  20  21
ENDBRANCH  19  20
ENDBRANCH   5  19
TORSDOF 6
ENDMDL
MODEL 7
REMARK VINA RESULT:      -8.1      8.141     10.987
REMARK  Name = 
REMARK  9 active torsions:
REMARK  status: ('A' for Active; 'I' for Inactive)
REMARK    1  A    between atoms: C_1  and  N_2
REMARK    2  A    between atoms: N_2  and  S_3
REMARK    3  A    between atoms: S_3  and  N_6
REMARK    4  A    between atoms: C_7  and  C_9
REMARK    5  A    between atoms: C_13  and  C_14
REMARK    6  A    between atoms: C_14  and  O_15
REMARK    7  A    between atoms: O_15  and  C_16
REMARK    8  A    between atoms: C_24  and  C_25
REMARK    9  A    between atoms: C_24  and  C_26
REMARK                            x       y       z     vdW  Elec       q    Type
REMARK                         _______ _______ _______ _____ _____    ______ ____
ROOT
ATOM      1  C   UNL     1      -2.761  11.483  18.388  0.00  0.00    +0.000 A 
ATOM      2  C   UNL     1      -1.968  12.281  19.223  0.00  0.00    +0.000 A 
ATOM      3  C   UNL     1      -0.605  12.026  19.376  0.00  0.00    +0.000 A 
ATOM      4 CL   UNL     1       0.280  13.073  20.426  0.00  0.00    +0.000 Cl
ATOM      5  C   UNL     1      -0.007  10.953  18.705  0.00  0.00    +0.000 A 
ATOM      6  C   UNL     1      -0.809  10.143  17.876  0.00  0.00    +0.000 A 
ATOM      7  C   UNL     1      -2.174  10.403  17.732  0.00  0.00    +0.000 A 
ATOM      8  F   UNL     1      -2.903   9.579  16.965  0.00  0.00    +0.000 F 
ENDROOT
BRANCH   1  10
ATOM      9  N   UNL     1      -4.768  12.619  19.264  0.00  0.00    +0.000 N 
ATOM     10  C   UNL     1      -4.183  11.863  18.250  0.00  0.00    +0.000 C 
ATOM     11  O   UNL     1      -4.794  11.549  17.233  0.00  0.00    +0.000 OA
ATOM     12  H   UNL     1      -4.217  13.106  19.965  0.00  0.00    +0.000 HD
BRANCH   9  13
ATOM     13  S   UNL     1      -6.342  13.122  19.211  0.00  0.00    +0.000 S 
ATOM     14  O   UNL     1      -6.539  13.977  20.358  0.00  0.00    +0.000 OA
ATOM     15  O   UNL     1      -7.197  12.002  18.934  0.00  0.00    +0.000 OA
BRANCH  13  17
ATOM     16  C   UNL     1      -7.436  14.050  16.953  0.00  0.00    +0.000 C 
ATOM     17  N   UNL     1      -6.275  14.084  17.841  0.00  0.00    +0.000 NA
ATOM     18  H   UNL     1      -5.956  15.020  18.114  0.00  0.00    +0.000 HD
ENDBRANCH  13  17
ENDBRANCH   9  13
ENDBRANCH   1  10
BRANCH   5  19
ATOM     19  C   UNL     1       1.467  10.650  18.838  0.00  0.00    +0.000 C 
BRANCH  19  20
ATOM     20  O   UNL     1       1.833   9.611  17.931  0.00  0.00    +0.000 OA
BRANCH  20  21
ATOM     21  C   UNL     1       2.149   8.406  18.509  0.00  0.00    +0.000 A 
ATOM     22  C   UNL     1       1.788   8.008  19.794  0.00  0.00    +0.000 A 
ATOM     23  C   UNL     1       2.122   6.735  20.262  0.00  0.00    +0.000 A 
ATOM     24  C   UNL     1       2.820   5.835  19.451  0.00  0.00    +0.000 A 
ATOM     25  C   UNL     1       3.243   6.245  18.175  0.00  0.00    +0.000 A 
ATOM     26  C   UNL     1       2.888   7.526  17.709  0.00  0.00    +0.000 A 
ATOM     27  C   UNL     1       4.004   5.314  17.261  0.00  0.00    +0.000 C 
ATOM     28  C   UNL     1       4.538   4.067  17.973  0.00  0.00    +0.000 C 
ATOM     29  C   UNL     1       3.488   3.426  18.903  0.00  0.00    +0.000 C 
ATOM     30  C   UNL     1       2.230   2.991  18.122  0.00  0.00    +0.000 C 
ATOM     31  C   UNL     1       4.087   2.172  19.565  0.00  0.00    +0.000 C 
ATOM     32  C   UNL     1       3.126   4.457  19.993  0.00  0.00    +0.000 C 
ENDBRANCH  20  21
ENDBRANCH  19  20
ENDBRANCH   5  19
TORSDOF 6
ENDMDL
MODEL 8
REMARK VINA RESULT:      -8.0      7.952     10.796
REMARK  Name = 
REMARK  9 active torsions:
REMARK  status: ('A' for Active; 'I' for Inactive)
REMARK    1  A    between atoms: C_1  and  N_2
REMARK    2  A    between atoms: N_2  and  S_3
REMARK    3  A    between atoms: S_3  and  N_6
REMARK    4  A    between atoms: C_7  and  C_9
REMARK    5  A    between atoms: C_13  and  C_14
REMARK    6  A    between atoms: C_14  and  O_15
REMARK    7  A    between atoms: O_15  and  C_16
REMARK    8  A    between atoms: C_24  and  C_25
REMARK    9  A    between atoms: C_24  and  C_26
REMARK                            x       y       z     vdW  Elec       q    Type
REMARK                         _______ _______ _______ _____ _____    ______ ____
ROOT
ATOM      1  C   UNL     1      -2.439  11.661  18.859  0.00  0.00    +0.000 A 
ATOM      2  C   UNL     1      -1.459  12.518  19.378  0.00  0.00    +0.000 A 
ATOM      3  C   UNL     1      -0.103  12.228  19.234  0.00  0.00    +0.000 A 
ATOM      4 CL   UNL     1       1.020  13.353  19.907  0.00  0.00    +0.000 Cl
ATOM      5  C   UNL     1       0.305  11.060  18.578  0.00  0.00    +0.000 A 
ATOM      6  C   UNL     1      -0.682  10.192  18.070  0.00  0.00    +0.000 A 
ATOM      7  C   UNL     1      -2.038  10.489  18.221  0.00  0.00    +0.000 A 
ATOM      8  F   UNL     1      -2.940   9.611  17.757  0.00  0.00    +0.000 F 
ENDROOT
BRANCH   1  10
ATOM      9  N   UNL     1      -4.636  12.195  17.872  0.00  0.00    +0.000 N 
ATOM     10  C   UNL     1      -3.847  12.079  19.015  0.00  0.00    +0.000 C 
ATOM     11  O   UNL     1      -4.299  12.266  20.142  0.00  0.00    +0.000 OA
ATOM     12  H   UNL     1      -4.361  11.792  16.980  0.00  0.00    +0.000 HD
BRANCH   9  13
ATOM     13  S   UNL     1      -6.229  12.632  17.922  0.00  0.00    +0.000 S 
ATOM     14  O   UNL     1      -6.912  11.609  18.678  0.00  0.00    +0.000 OA
ATOM     15  O   UNL     1      -6.660  13.034  16.612  0.00  0.00    +0.000 OA
BRANCH  13  17
ATOM     16  C   UNL     1      -7.222  14.281  19.779  0.00  0.00    +0.000 C 
ATOM     17  N   UNL     1      -6.106  14.002  18.878  0.00  0.00    +0.000 NA
ATOM     18  H   UNL     1      -5.176  14.015  19.312  0.00  0.00    +0.000 HD
ENDBRANCH  13  17
ENDBRANCH   9  13
ENDBRANCH   1  10
BRANCH   5  19
ATOM     19  C   UNL     1       1.765  10.715  18.396  0.00  0.00    +0.000 C 
BRANCH  19  20
ATOM     20  O   UNL     1       1.889   9.555  17.573  0.00  0.00    +0.000 OA
BRANCH  20  21
ATOM     21  C   UNL     1       2.218   8.396  18.232  0.00  0.00    +0.000 A 
ATOM     22  C   UNL     1       1.821   8.062  19.525  0.00  0.00    +0.000 A 
ATOM     23  C   UNL     1       2.174   6.829  20.078  0.00  0.00    +0.000 A 
ATOM     24  C   UNL     1       2.928   5.906  19.347  0.00  0.00    +0.000 A 
ATOM     25  C   UNL     1       3.387   6.254  18.065  0.00  0.00    +0.000 A 
ATOM     26  C   UNL     1       3.012   7.495  17.513  0.00  0.00    +0.000 A 
ATOM     27  C   UNL     1       4.208   5.296  17.236  0.00  0.00    +0.000 C 
ATOM     28  C   UNL     1       4.752   4.110  18.038  0.00  0.00    +0.000 C 
ATOM     29  C   UNL     1       3.687   3.492  18.966  0.00  0.00    +0.000 C 
ATOM     30  C   UNL     1       2.473   2.973  18.168  0.00  0.00    +0.000 C 
ATOM     31  C   UNL     1       4.297   2.298  19.723  0.00  0.00    +0.000 C 
ATOM     32  C   UNL     1       3.254   4.572  19.980  0.00  0.00    +0.000 C 
ENDBRANCH  20  21
ENDBRANCH  19  20
ENDBRANCH   5  19
TORSDOF 6
ENDMDL
MODEL 9
REMARK VINA RESULT:      -8.0      7.459      9.204
REMARK  Name = 
REMARK  9 active torsions:
REMARK  status: ('A' for Active; 'I' for Inactive)
REMARK    1  A    between atoms: C_1  and  N_2
REMARK    2  A    between atoms: N_2  and  S_3
REMARK    3  A    between atoms: S_3  and  N_6
REMARK    4  A    between atoms: C_7  and  C_9
REMARK    5  A    between atoms: C_13  and  C_14
REMARK    6  A    between atoms: C_14  and  O_15
REMARK    7  A    between atoms: O_15  and  C_16
REMARK    8  A    between atoms: C_24  and  C_25
REMARK    9  A    between atoms: C_24  and  C_26
REMARK                            x       y       z     vdW  Elec       q    Type
REMARK                         _______ _______ _______ _____ _____    ______ ____
ROOT
ATOM      1  C   UNL     1       2.918   6.576  19.038  0.00  0.00    +0.000 A 
ATOM      2  C   UNL     1       2.109   7.062  20.075  0.00  0.00    +0.000 A 
ATOM      3  C   UNL     1       1.463   8.292  19.964  0.00  0.00    +0.000 A 
ATOM      4 CL   UNL     1       0.487   8.793  21.297  0.00  0.00    +0.000 Cl
ATOM      5  C   UNL     1       1.623   9.075  18.814  0.00  0.00    +0.000 A 
ATOM      6  C   UNL     1       2.448   8.592  17.779  0.00  0.00    +0.000 A 
ATOM      7  C   UNL     1       3.095   7.360  17.900  0.00  0.00    +0.000 A 
ATOM      8  F   UNL     1       3.903   6.962  16.905  0.00  0.00    +0.000 F 
ENDROOT
BRANCH   1  10
ATOM      9  N   UNL     1       2.703   4.119  19.084  0.00  0.00    +0.000 N 
ATOM     10  C   UNL     1       3.519   5.240  19.227  0.00  0.00    +0.000 C 
ATOM     11  O   UNL     1       4.722   5.147  19.453  0.00  0.00    +0.000 OA
ATOM     12  H   UNL     1       1.790   4.166  18.641  0.00  0.00    +0.000 HD
BRANCH   9  13
ATOM     13  S   UNL     1       3.266   2.574  19.248  0.00  0.00    +0.000 S 
ATOM     14  O   UNL     1       3.649   2.421  20.632  0.00  0.00    +0.000 OA
ATOM     15  O   UNL     1       4.162   2.270  18.167  0.00  0.00    +0.000 OA
BRANCH  13  17
ATOM     16  C   UNL     1       0.627   2.533  18.819  0.00  0.00    +0.000 C 
ATOM     17  N   UNL     1       1.838   1.735  19.000  0.00  0.00    +0.000 NA
ATOM     18  H   UNL     1       2.002   1.016  18.287  0.00  0.00    +0.000 HD
ENDBRANCH  13  17
ENDBRANCH   9  13
ENDBRANCH   1  10
BRANCH   5  19
ATOM     19  C   UNL     1       0.933  10.409  18.654  0.00  0.00    +0.000 C 
BRANCH  19  20
ATOM     20  O   UNL     1      -0.394  10.212  18.166  0.00  0.00    +0.000 OA
BRANCH  20  21
ATOM     21  C   UNL     1      -1.357  11.008  18.736  0.00  0.00    +0.000 A 
ATOM     22  C   UNL     1      -2.679  11.110  18.307  0.00  0.00    +0.000 A 
ATOM     23  C   UNL     1      -3.587  11.917  18.994  0.00  0.00    +0.000 A 
ATOM     24  C   UNL     1      -3.192  12.634  20.128  0.00  0.00    +0.000 A 
ATOM     25  C   UNL     1      -1.848  12.589  20.536  0.00  0.00    +0.000 A 
ATOM     26  C   UNL     1      -0.945  11.761  19.842  0.00  0.00    +0.000 A 
ATOM     27  C   UNL     1      -1.368  13.350  21.749  0.00  0.00    +0.000 C 
ATOM     28  C   UNL     1      -2.372  14.393  22.249  0.00  0.00    +0.000 C 
ATOM     29  C   UNL     1      -3.813  13.846  22.295  0.00  0.00    +0.000 C 
ATOM     30  C   UNL     1      -3.927  12.628  23.235  0.00  0.00    +0.000 C 
ATOM     31  C   UNL     1      -4.760  14.939  22.823  0.00  0.00    +0.000 C 
ATOM     32  C   UNL     1      -4.223  13.466  20.856  0.00  0.00    +0.000 C 
ENDBRANCH  20  21
ENDBRANCH  19  20
ENDBRANCH   5  19
TORSDOF 6
ENDMDL
