MODEL 1
REMARK VINA RESULT:      -6.7      0.000      0.000
REMARK  Name = 
REMARK  4 active torsions:
REMARK  status: ('A' for Active; 'I' for Inactive)
REMARK    1  A    between atoms: C_1  and  O_2
REMARK    2  A    between atoms: O_2  and  C_3
REMARK    3  A    between atoms: C_7  and  N_8
REMARK    4  A    between atoms: C_9  and  C_11
REMARK                            x       y       z     vdW  Elec       q    Type
REMARK                         _______ _______ _______ _____ _____    ______ ____
ROOT
ATOM      1  N   UNL     1       4.616   3.600  17.900  0.00  0.00    +0.000 N 
ATOM      2  C   UNL     1       3.356   4.092  18.206  0.00  0.00    +0.000 C 
ATOM      3  O   UNL     1       2.750   4.951  17.573  0.00  0.00    +0.000 OA
ATOM      4  H   UNL     1       4.967   2.814  18.426  0.00  0.00    +0.000 HD
ENDROOT
BRANCH   1   9
ATOM      5  C   UNL     1       7.102   5.807  16.254  0.00  0.00    +0.000 A 
ATOM      6  C   UNL     1       7.198   5.223  14.991  0.00  0.00    +0.000 A 
ATOM      7  C   UNL     1       6.439   4.100  14.673  0.00  0.00    +0.000 A 
ATOM      8  C   UNL     1       5.586   3.547  15.626  0.00  0.00    +0.000 A 
ATOM      9  C   UNL     1       5.481   4.109  16.904  0.00  0.00    +0.000 A 
ATOM     10  C   UNL     1       6.237   5.255  17.205  0.00  0.00    +0.000 A 
BRANCH   5  12
ATOM     11  C   UNL     1       7.685   7.694  17.586  0.00  0.00    +0.000 C 
ATOM     12  O   UNL     1       7.894   6.910  16.421  0.00  0.00    +0.000 OA
ENDBRANCH   5  12
ENDBRANCH   1   9
BRANCH   2  13
ATOM     13  C   UNL     1       2.687   3.536  19.421  0.00  0.00    +0.000 A 
ATOM     14  C   UNL     1       1.285   3.624  19.472  0.00  0.00    +0.000 A 
ATOM     15  C   UNL     1       0.583   3.154  20.581  0.00  0.00    +0.000 A 
ATOM     16  C   UNL     1       1.274   2.584  21.646  0.00  0.00    +0.000 A 
ATOM     17  C   UNL     1       2.664   2.469  21.596  0.00  0.00    +0.000 A 
ATOM     18  C   UNL     1       3.373   2.938  20.484  0.00  0.00    +0.000 A 
ENDBRANCH   2  13
TORSDOF 3
ENDMDL
MODEL 2
REMARK VINA RESULT:      -6.7      1.896      6.859
REMARK  Name = 
REMARK  4 active torsions:
REMARK  status: ('A' for Active; 'I' for Inactive)
REMARK    1  A    between atoms: C_1  and  O_2
REMARK    2  A    between atoms: O_2  and  C_3
REMARK    3  A    between atoms: C_7  and  N_8
REMARK    4  A    between atoms: C_9  and  C_11
REMARK                            x       y       z     vdW  Elec       q    Type
REMARK                         _______ _______ _______ _____ _____    ______ ____
ROOT
ATOM      1  N   UNL     1       4.691   4.423  16.308  0.00  0.00    +0.000 N 
ATOM      2  C   UNL     1       6.051   4.440  16.031  0.00  0.00    +0.000 C 
ATOM      3  O   UNL     1       6.950   4.481  16.863  0.00  0.00    +0.000 OA
ATOM      4  H   UNL     1       4.046   4.274  15.547  0.00  0.00    +0.000 HD
ENDROOT
BRANCH   1   9
ATOM      5  C   UNL     1       3.244   3.582  19.618  0.00  0.00    +0.000 A 
ATOM      6  C   UNL     1       2.918   4.847  20.107  0.00  0.00    +0.000 A 
ATOM      7  C   UNL     1       3.168   5.985  19.346  0.00  0.00    +0.000 A 
ATOM      8  C   UNL     1       3.760   5.862  18.090  0.00  0.00    +0.000 A 
ATOM      9  C   UNL     1       4.107   4.605  17.583  0.00  0.00    +0.000 A 
ATOM     10  C   UNL     1       3.830   3.463  18.353  0.00  0.00    +0.000 A 
BRANCH   5  12
ATOM     11  C   UNL     1       2.106   2.861  21.583  0.00  0.00    +0.000 C 
ATOM     12  O   UNL     1       2.930   2.557  20.468  0.00  0.00    +0.000 OA
ENDBRANCH   5  12
ENDBRANCH   1   9
BRANCH   2  13
ATOM     13  C   UNL     1       6.449   4.421  14.591  0.00  0.00    +0.000 A 
ATOM     14  C   UNL     1       5.736   3.555  13.744  0.00  0.00    +0.000 A 
ATOM     15  C   UNL     1       6.060   3.454  12.392  0.00  0.00    +0.000 A 
ATOM     16  C   UNL     1       7.095   4.226  11.870  0.00  0.00    +0.000 A 
ATOM     17  C   UNL     1       7.794   5.107  12.696  0.00  0.00    +0.000 A 
ATOM     18  C   UNL     1       7.471   5.212  14.053  0.00  0.00    +0.000 A 
ENDBRANCH   2  13
TORSDOF 3
ENDMDL
MODEL 3
REMARK VINA RESULT:      -6.6      1.881      6.949
REMARK  Name = 
REMARK  4 active torsions:
REMARK  status: ('A' for Active; 'I' for Inactive)
REMARK    1  A    between atoms: C_1  and  O_2
REMARK    2  A    between atoms: O_2  and  C_3
REMARK    3  A    between atoms: C_7  and  N_8
REMARK    4  A    between atoms: C_9  and  C_11
REMARK                            x       y       z     vdW  Elec       q    Type
REMARK                         _______ _______ _______ _____ _____    ______ ____
ROOT
ATOM      1  N   UNL     1       4.603   4.340  16.240  0.00  0.00    +0.000 N 
ATOM      2  C   UNL     1       5.963   4.363  15.964  0.00  0.00    +0.000 C 
ATOM      3  O   UNL     1       6.860   4.432  16.797  0.00  0.00    +0.000 OA
ATOM      4  H   UNL     1       3.961   4.167  15.481  0.00  0.00    +0.000 HD
ENDROOT
BRANCH   1   9
ATOM      5  C   UNL     1       2.981   3.563  19.484  0.00  0.00    +0.000 A 
ATOM      6  C   UNL     1       2.803   4.840  20.017  0.00  0.00    +0.000 A 
ATOM      7  C   UNL     1       3.212   5.965  19.307  0.00  0.00    +0.000 A 
ATOM      8  C   UNL     1       3.815   5.816  18.060  0.00  0.00    +0.000 A 
ATOM      9  C   UNL     1       4.015   4.546  17.509  0.00  0.00    +0.000 A 
ATOM     10  C   UNL     1       3.579   3.419  18.227  0.00  0.00    +0.000 A 
BRANCH   5  12
ATOM     11  C   UNL     1       1.975   2.918  21.544  0.00  0.00    +0.000 C 
ATOM     12  O   UNL     1       2.521   2.554  20.285  0.00  0.00    +0.000 OA
ENDBRANCH   5  12
ENDBRANCH   1   9
BRANCH   2  13
ATOM     13  C   UNL     1       6.364   4.315  14.526  0.00  0.00    +0.000 A 
ATOM     14  C   UNL     1       7.421   5.152  14.131  0.00  0.00    +0.000 A 
ATOM     15  C   UNL     1       7.842   5.190  12.803  0.00  0.00    +0.000 A 
ATOM     16  C   UNL     1       7.215   4.385  11.856  0.00  0.00    +0.000 A 
ATOM     17  C   UNL     1       6.179   3.532  12.240  0.00  0.00    +0.000 A 
ATOM     18  C   UNL     1       5.755   3.490  13.573  0.00  0.00    +0.000 A 
ENDBRANCH   2  13
TORSDOF 3
ENDMDL
MODEL 4
REMARK VINA RESULT:      -6.6      1.819      2.924
REMARK  Name = 
REMARK  4 active torsions:
REMARK  status: ('A' for Active; 'I' for Inactive)
REMARK    1  A    between atoms: C_1  and  O_2
REMARK    2  A    between atoms: O_2  and  C_3
REMARK    3  A    between atoms: C_7  and  N_8
REMARK    4  A    between atoms: C_9  and  C_11
REMARK                            x       y       z     vdW  Elec       q    Type
REMARK                         _______ _______ _______ _____ _____    ______ ____
ROOT
ATOM      1  N   UNL     1       4.273   3.881  16.930  0.00  0.00    +0.000 N 
ATOM      2  C   UNL     1       3.522   4.788  17.663  0.00  0.00    +0.000 C 
ATOM      3  O   UNL     1       3.551   6.008  17.537  0.00  0.00    +0.000 OA
ATOM      4  H   UNL     1       4.083   2.896  17.041  0.00  0.00    +0.000 HD
ENDROOT
BRANCH   1   9
ATOM      5  C   UNL     1       6.187   4.064  13.758  0.00  0.00    +0.000 A 
ATOM      6  C   UNL     1       7.321   4.771  14.159  0.00  0.00    +0.000 A 
ATOM      7  C   UNL     1       7.464   5.186  15.479  0.00  0.00    +0.000 A 
ATOM      8  C   UNL     1       6.462   4.906  16.406  0.00  0.00    +0.000 A 
ATOM      9  C   UNL     1       5.310   4.209  16.025  0.00  0.00    +0.000 A 
ATOM     10  C   UNL     1       5.188   3.777  14.694  0.00  0.00    +0.000 A 
BRANCH   5  12
ATOM     11  C   UNL     1       4.996   3.143  11.911  0.00  0.00    +0.000 C 
ATOM     12  O   UNL     1       6.188   3.710  12.436  0.00  0.00    +0.000 OA
ENDBRANCH   5  12
ENDBRANCH   1   9
BRANCH   2  13
ATOM     13  C   UNL     1       2.609   4.227  18.704  0.00  0.00    +0.000 A 
ATOM     14  C   UNL     1       2.809   4.659  20.026  0.00  0.00    +0.000 A 
ATOM     15  C   UNL     1       2.020   4.166  21.064  0.00  0.00    +0.000 A 
ATOM     16  C   UNL     1       1.016   3.241  20.789  0.00  0.00    +0.000 A 
ATOM     17  C   UNL     1       0.792   2.823  19.477  0.00  0.00    +0.000 A 
ATOM     18  C   UNL     1       1.581   3.317  18.432  0.00  0.00    +0.000 A 
ENDBRANCH   2  13
TORSDOF 3
ENDMDL
MODEL 5
REMARK VINA RESULT:      -6.6      1.835      2.805
REMARK  Name = 
REMARK  4 active torsions:
REMARK  status: ('A' for Active; 'I' for Inactive)
REMARK    1  A    between atoms: C_1  and  O_2
REMARK    2  A    between atoms: O_2  and  C_3
REMARK    3  A    between atoms: C_7  and  N_8
REMARK    4  A    between atoms: C_9  and  C_11
REMARK                            x       y       z     vdW  Elec       q    Type
REMARK                         _______ _______ _______ _____ _____    ______ ____
ROOT
ATOM      1  N   UNL     1       4.334   3.885  16.979  0.00  0.00    +0.000 N 
ATOM      2  C   UNL     1       3.560   4.798  17.681  0.00  0.00    +0.000 C 
ATOM      3  O   UNL     1       3.532   6.009  17.489  0.00  0.00    +0.000 OA
ATOM      4  H   UNL     1       4.189   2.901  17.148  0.00  0.00    +0.000 HD
ENDROOT
BRANCH   1   9
ATOM      5  C   UNL     1       6.149   3.993  13.746  0.00  0.00    +0.000 A 
ATOM      6  C   UNL     1       7.271   4.751  14.084  0.00  0.00    +0.000 A 
ATOM      7  C   UNL     1       7.437   5.227  15.381  0.00  0.00    +0.000 A 
ATOM      8  C   UNL     1       6.471   4.955  16.348  0.00  0.00    +0.000 A 
ATOM      9  C   UNL     1       5.333   4.206  16.031  0.00  0.00    +0.000 A 
ATOM     10  C   UNL     1       5.187   3.714  14.723  0.00  0.00    +0.000 A 
BRANCH   5  12
ATOM     11  C   UNL     1       4.862   3.240  11.889  0.00  0.00    +0.000 C 
ATOM     12  O   UNL     1       6.124   3.582  12.442  0.00  0.00    +0.000 OA
ENDBRANCH   5  12
ENDBRANCH   1   9
BRANCH   2  13
ATOM     13  C   UNL     1       2.698   4.257  18.775  0.00  0.00    +0.000 A 
ATOM     14  C   UNL     1       1.699   3.341  18.404  0.00  0.00    +0.000 A 
ATOM     15  C   UNL     1       0.833   2.807  19.357  0.00  0.00    +0.000 A 
ATOM     16  C   UNL     1       0.962   3.179  20.693  0.00  0.00    +0.000 A 
ATOM     17  C   UNL     1       1.965   4.069  21.076  0.00  0.00    +0.000 A 
ATOM     18  C   UNL     1       2.838   4.605  20.123  0.00  0.00    +0.000 A 
ENDBRANCH   2  13
TORSDOF 3
ENDMDL
MODEL 6
REMARK VINA RESULT:      -6.5      0.322      1.214
REMARK  Name = 
REMARK  4 active torsions:
REMARK  status: ('A' for Active; 'I' for Inactive)
REMARK    1  A    between atoms: C_1  and  O_2
REMARK    2  A    between atoms: O_2  and  C_3
REMARK    3  A    between atoms: C_7  and  N_8
REMARK    4  A    between atoms: C_9  and  C_11
REMARK                            x       y       z     vdW  Elec       q    Type
REMARK                         _______ _______ _______ _____ _____    ______ ____
ROOT
ATOM      1  N   UNL     1       4.655   3.681  18.077  0.00  0.00    +0.000 N 
ATOM      2  C   UNL     1       3.269   3.694  18.042  0.00  0.00    +0.000 C 
ATOM      3  O   UNL     1       2.580   3.997  17.074  0.00  0.00    +0.000 OA
ATOM      4  H   UNL     1       5.114   3.306  18.893  0.00  0.00    +0.000 HD
ENDROOT
BRANCH   1   9
ATOM      5  C   UNL     1       7.103   5.854  16.330  0.00  0.00    +0.000 A 
ATOM      6  C   UNL     1       7.207   5.216  15.094  0.00  0.00    +0.000 A 
ATOM      7  C   UNL     1       6.466   4.068  14.827  0.00  0.00    +0.000 A 
ATOM      8  C   UNL     1       5.623   3.544  15.805  0.00  0.00    +0.000 A 
ATOM      9  C   UNL     1       5.511   4.159  17.057  0.00  0.00    +0.000 A 
ATOM     10  C   UNL     1       6.248   5.329  17.306  0.00  0.00    +0.000 A 
BRANCH   5  12
ATOM     11  C   UNL     1       7.696   7.777  17.605  0.00  0.00    +0.000 C 
ATOM     12  O   UNL     1       7.877   6.975  16.447  0.00  0.00    +0.000 OA
ENDBRANCH   5  12
ENDBRANCH   1   9
BRANCH   2  13
ATOM     13  C   UNL     1       2.556   3.320  19.301  0.00  0.00    +0.000 A 
ATOM     14  C   UNL     1       3.344   2.844  20.362  0.00  0.00    +0.000 A 
ATOM     15  C   UNL     1       2.758   2.447  21.562  0.00  0.00    +0.000 A 
ATOM     16  C   UNL     1       1.377   2.531  21.718  0.00  0.00    +0.000 A 
ATOM     17  C   UNL     1       0.586   3.025  20.680  0.00  0.00    +0.000 A 
ATOM     18  C   UNL     1       1.170   3.426  19.473  0.00  0.00    +0.000 A 
ENDBRANCH   2  13
TORSDOF 3
ENDMDL
MODEL 7
REMARK VINA RESULT:      -6.5      1.762      2.803
REMARK  Name = 
REMARK  4 active torsions:
REMARK  status: ('A' for Active; 'I' for Inactive)
REMARK    1  A    between atoms: C_1  and  O_2
REMARK    2  A    between atoms: O_2  and  C_3
REMARK    3  A    between atoms: C_7  and  N_8
REMARK    4  A    between atoms: C_9  and  C_11
REMARK                            x       y       z     vdW  Elec       q    Type
REMARK                         _______ _______ _______ _____ _____    ______ ____
ROOT
ATOM      1  N   UNL     1       4.237   4.501  17.644  0.00  0.00    +0.000 N 
ATOM      2  C   UNL     1       4.430   3.846  18.851  0.00  0.00    +0.000 C 
ATOM      3  O   UNL     1       5.505   3.444  19.283  0.00  0.00    +0.000 OA
ATOM      4  H   UNL     1       3.326   4.886  17.445  0.00  0.00    +0.000 HD
ENDROOT
BRANCH   1   9
ATOM      5  C   UNL     1       6.047   4.048  14.438  0.00  0.00    +0.000 A 
ATOM      6  C   UNL     1       7.115   4.931  14.595  0.00  0.00    +0.000 A 
ATOM      7  C   UNL     1       7.247   5.678  15.762  0.00  0.00    +0.000 A 
ATOM      8  C   UNL     1       6.300   5.553  16.777  0.00  0.00    +0.000 A 
ATOM      9  C   UNL     1       5.214   4.681  16.637  0.00  0.00    +0.000 A 
ATOM     10  C   UNL     1       5.103   3.918  15.463  0.00  0.00    +0.000 A 
BRANCH   5  12
ATOM     11  C   UNL     1       6.860   3.894  12.204  0.00  0.00    +0.000 C 
ATOM     12  O   UNL     1       6.052   3.372  13.248  0.00  0.00    +0.000 OA
ENDBRANCH   5  12
ENDBRANCH   1   9
BRANCH   2  13
ATOM     13  C   UNL     1       3.218   3.597  19.689  0.00  0.00    +0.000 A 
ATOM     14  C   UNL     1       3.373   2.747  20.796  0.00  0.00    +0.000 A 
ATOM     15  C   UNL     1       2.288   2.439  21.616  0.00  0.00    +0.000 A 
ATOM     16  C   UNL     1       1.037   2.985  21.340  0.00  0.00    +0.000 A 
ATOM     17  C   UNL     1       0.876   3.850  20.257  0.00  0.00    +0.000 A 
ATOM     18  C   UNL     1       1.963   4.163  19.433  0.00  0.00    +0.000 A 
ENDBRANCH   2  13
TORSDOF 3
ENDMDL
MODEL 8
REMARK VINA RESULT:      -6.5      1.781      2.596
REMARK  Name = 
REMARK  4 active torsions:
REMARK  status: ('A' for Active; 'I' for Inactive)
REMARK    1  A    between atoms: C_1  and  O_2
REMARK    2  A    between atoms: O_2  and  C_3
REMARK    3  A    between atoms: C_7  and  N_8
REMARK    4  A    between atoms: C_9  and  C_11
REMARK                            x       y       z     vdW  Elec       q    Type
REMARK                         _______ _______ _______ _____ _____    ______ ____
ROOT
ATOM      1  N   UNL     1       4.285   4.379  17.610  0.00  0.00    +0.000 N 
ATOM      2  C   UNL     1       4.524   3.809  18.851  0.00  0.00    +0.000 C 
ATOM      3  O   UNL     1       5.626   3.515  19.304  0.00  0.00    +0.000 OA
ATOM      4  H   UNL     1       3.348   4.682  17.391  0.00  0.00    +0.000 HD
ENDROOT
BRANCH   1   9
ATOM      5  C   UNL     1       5.944   4.143  14.300  0.00  0.00    +0.000 A 
ATOM      6  C   UNL     1       7.109   4.878  14.522  0.00  0.00    +0.000 A 
ATOM      7  C   UNL     1       7.357   5.451  15.766  0.00  0.00    +0.000 A 
ATOM      8  C   UNL     1       6.430   5.301  16.795  0.00  0.00    +0.000 A 
ATOM      9  C   UNL     1       5.249   4.579  16.594  0.00  0.00    +0.000 A 
ATOM     10  C   UNL     1       5.020   3.987  15.340  0.00  0.00    +0.000 A 
BRANCH   5  12
ATOM     11  C   UNL     1       6.906   3.888  12.136  0.00  0.00    +0.000 C 
ATOM     12  O   UNL     1       5.840   3.628  13.037  0.00  0.00    +0.000 OA
ENDBRANCH   5  12
ENDBRANCH   1   9
BRANCH   2  13
ATOM     13  C   UNL     1       3.332   3.514  19.703  0.00  0.00    +0.000 A 
ATOM     14  C   UNL     1       2.091   3.990  19.248  0.00  0.00    +0.000 A 
ATOM     15  C   UNL     1       0.932   3.783  19.994  0.00  0.00    +0.000 A 
ATOM     16  C   UNL     1       1.001   3.090  21.199  0.00  0.00    +0.000 A 
ATOM     17  C   UNL     1       2.224   2.592  21.650  0.00  0.00    +0.000 A 
ATOM     18  C   UNL     1       3.390   2.796  20.903  0.00  0.00    +0.000 A 
ENDBRANCH   2  13
TORSDOF 3
ENDMDL
MODEL 9
REMARK VINA RESULT:      -6.4      1.107      1.109
REMARK  Name = 
REMARK  4 active torsions:
REMARK  status: ('A' for Active; 'I' for Inactive)
REMARK    1  A    between atoms: C_1  and  O_2
REMARK    2  A    between atoms: O_2  and  C_3
REMARK    3  A    between atoms: C_7  and  N_8
REMARK    4  A    between atoms: C_9  and  C_11
REMARK                            x       y       z     vdW  Elec       q    Type
REMARK                         _______ _______ _______ _____ _____    ______ ____
ROOT
ATOM      1  N   UNL     1       4.198   4.340  17.942  0.00  0.00    +0.000 N 
ATOM      2  C   UNL     1       4.386   3.716  19.167  0.00  0.00    +0.000 C 
ATOM      3  O   UNL     1       5.469   3.438  19.670  0.00  0.00    +0.000 OA
ATOM      4  H   UNL     1       3.265   4.621  17.683  0.00  0.00    +0.000 HD
ENDROOT
BRANCH   1   9
ATOM      5  C   UNL     1       7.077   6.044  16.339  0.00  0.00    +0.000 A 
ATOM      6  C   UNL     1       7.227   5.294  15.172  0.00  0.00    +0.000 A 
ATOM      7  C   UNL     1       6.377   4.225  14.905  0.00  0.00    +0.000 A 
ATOM      8  C   UNL     1       5.375   3.893  15.814  0.00  0.00    +0.000 A 
ATOM      9  C   UNL     1       5.211   4.623  16.997  0.00  0.00    +0.000 A 
ATOM     10  C   UNL     1       6.063   5.712  17.244  0.00  0.00    +0.000 A 
BRANCH   5  12
ATOM     11  C   UNL     1       7.741   8.019  17.493  0.00  0.00    +0.000 C 
ATOM     12  O   UNL     1       7.973   7.070  16.463  0.00  0.00    +0.000 OA
ENDBRANCH   5  12
ENDBRANCH   1   9
BRANCH   2  13
ATOM     13  C   UNL     1       3.158   3.339  19.930  0.00  0.00    +0.000 A 
ATOM     14  C   UNL     1       1.922   3.697  19.366  0.00  0.00    +0.000 A 
ATOM     15  C   UNL     1       0.728   3.408  20.025  0.00  0.00    +0.000 A 
ATOM     16  C   UNL     1       0.757   2.750  21.251  0.00  0.00    +0.000 A 
ATOM     17  C   UNL     1       1.977   2.368  21.810  0.00  0.00    +0.000 A 
ATOM     18  C   UNL     1       3.178   2.655  21.152  0.00  0.00    +0.000 A 
ENDBRANCH   2  13
TORSDOF 3
ENDMDL
