MODEL 1
REMARK VINA RESULT:      -7.6      0.000      0.000
REMARK  Name = 
REMARK  10 active torsions:
REMARK  status: ('A' for Active; 'I' for Inactive)
REMARK    1  A    between atoms: C_1  and  C_2
REMARK    2  A    between atoms: C_2  and  C_3
REMARK    3  A    between atoms: C_8  and  C_9
REMARK    4  A    between atoms: C_10  and  C_11
REMARK    5  A    between atoms: N_15  and  C_16
REMARK    6  A    between atoms: C_19  and  N_20
REMARK    7  A    between atoms: N_20  and  C_21
REMARK    8  A    between atoms: N_20  and  C_23
REMARK    9  A    between atoms: C_21  and  C_22
REMARK   10  A    between atoms: C_23  and  C_24
REMARK                            x       y       z     vdW  Elec       q    Type
REMARK                         _______ _______ _______ _____ _____    ______ ____
ROOT
ATOM      1  C   UNL     1       4.865   4.997  18.274  0.00  0.00    +0.000 A 
ATOM      2  C   UNL     1       4.829   4.028  19.258  0.00  0.00    +0.000 A 
ATOM      3  S   UNL     1       3.479   4.289  20.283  0.00  0.00    +0.000 S 
ATOM      4  C   UNL     1       3.072   5.698  19.377  0.00  0.00    +0.000 A 
ATOM      5  N   UNL     1       1.964   6.411  19.675  0.00  0.00    +0.000 N 
ATOM      6  N   UNL     1       3.893   5.963  18.386  0.00  0.00    +0.000 NA
ATOM      7  H   UNL     1       1.325   6.044  20.368  0.00  0.00    +0.000 HD
ENDROOT
BRANCH   1  15
ATOM      8  C   UNL     1       6.394   3.887  12.806  0.00  0.00    +0.000 C 
ATOM      9  O   UNL     1       5.246   3.520  13.038  0.00  0.00    +0.000 OA
ATOM     10  N   UNL     1       7.233   4.540  13.687  0.00  0.00    +0.000 N 
ATOM     11  C   UNL     1       6.905   4.819  14.990  0.00  0.00    +0.000 A 
ATOM     12  N   UNL     1       7.513   5.747  15.696  0.00  0.00    +0.000 NA
ATOM     13  C   UNL     1       6.866   5.888  16.927  0.00  0.00    +0.000 A 
ATOM     14  C   UNL     1       7.321   6.973  17.843  0.00  0.00    +0.000 C 
ATOM     15  C   UNL     1       5.819   4.999  17.127  0.00  0.00    +0.000 A 
ATOM     16  S   UNL     1       5.731   3.916  15.819  0.00  0.00    +0.000 S 
ATOM     17  H   UNL     1       8.023   5.063  13.336  0.00  0.00    +0.000 HD
BRANCH   8  19
ATOM     18  C   UNL     1       7.172   2.164  11.176  0.00  0.00    +0.000 C 
ATOM     19  C   UNL     1       7.019   3.654  11.446  0.00  0.00    +0.000 C 
ENDBRANCH   8  19
ENDBRANCH   1  15
BRANCH   5  20
ATOM     20  C   UNL     1       1.800   7.782  19.417  0.00  0.00    +0.000 A 
ATOM     21  C   UNL     1       1.329   8.621  20.427  0.00  0.00    +0.000 A 
ATOM     22  C   UNL     1       1.128   9.988  20.189  0.00  0.00    +0.000 A 
ATOM     23  C   UNL     1       1.420  10.576  18.950  0.00  0.00    +0.000 A 
ATOM     24  C   UNL     1       1.903   9.723  17.951  0.00  0.00    +0.000 A 
ATOM     25  C   UNL     1       2.062   8.350  18.169  0.00  0.00    +0.000 A 
BRANCH  23  26
ATOM     26  N   UNL     1       1.219  11.928  18.708  0.00  0.00    +0.000 N 
BRANCH  26  27
ATOM     27  C   UNL     1       2.278  12.741  18.106  0.00  0.00    +0.000 C 
ATOM     28  C   UNL     1       2.787  13.816  19.055  0.00  0.00    +0.000 C 
ENDBRANCH  26  27
BRANCH  26  29
ATOM     29  C   UNL     1      -0.025  12.585  19.108  0.00  0.00    +0.000 C 
ATOM     30  C   UNL     1      -1.163  12.211  18.165  0.00  0.00    +0.000 C 
ENDBRANCH  26  29
ENDBRANCH  23  26
ENDBRANCH   5  20
TORSDOF 6
ENDMDL
MODEL 2
REMARK VINA RESULT:      -7.5      0.191      1.291
REMARK  Name = 
REMARK  10 active torsions:
REMARK  status: ('A' for Active; 'I' for Inactive)
REMARK    1  A    between atoms: C_1  and  C_2
REMARK    2  A    between atoms: C_2  and  C_3
REMARK    3  A    between atoms: C_8  and  C_9
REMARK    4  A    between atoms: C_10  and  C_11
REMARK    5  A    between atoms: N_15  and  C_16
REMARK    6  A    between atoms: C_19  and  N_20
REMARK    7  A    between atoms: N_20  and  C_21
REMARK    8  A    between atoms: N_20  and  C_23
REMARK    9  A    between atoms: C_21  and  C_22
REMARK   10  A    between atoms: C_23  and  C_24
REMARK                            x       y       z     vdW  Elec       q    Type
REMARK                         _______ _______ _______ _____ _____    ______ ____
ROOT
ATOM      1  C   UNL     1       4.826   5.050  18.304  0.00  0.00    +0.000 A 
ATOM      2  C   UNL     1       4.784   4.078  19.284  0.00  0.00    +0.000 A 
ATOM      3  S   UNL     1       3.436   4.346  20.310  0.00  0.00    +0.000 S 
ATOM      4  C   UNL     1       3.038   5.759  19.409  0.00  0.00    +0.000 A 
ATOM      5  N   UNL     1       1.934   6.479  19.709  0.00  0.00    +0.000 N 
ATOM      6  N   UNL     1       3.861   6.023  18.419  0.00  0.00    +0.000 NA
ATOM      7  H   UNL     1       1.294   6.114  20.401  0.00  0.00    +0.000 HD
ENDROOT
BRANCH   1  15
ATOM      8  C   UNL     1       6.360   3.917  12.842  0.00  0.00    +0.000 C 
ATOM      9  O   UNL     1       5.213   3.547  13.075  0.00  0.00    +0.000 OA
ATOM     10  N   UNL     1       7.197   4.578  13.719  0.00  0.00    +0.000 N 
ATOM     11  C   UNL     1       6.868   4.863  15.021  0.00  0.00    +0.000 A 
ATOM     12  N   UNL     1       7.472   5.796  15.722  0.00  0.00    +0.000 NA
ATOM     13  C   UNL     1       6.824   5.941  16.953  0.00  0.00    +0.000 A 
ATOM     14  C   UNL     1       7.276   7.033  17.863  0.00  0.00    +0.000 C 
ATOM     15  C   UNL     1       5.781   5.050  17.157  0.00  0.00    +0.000 A 
ATOM     16  S   UNL     1       5.697   3.959  15.855  0.00  0.00    +0.000 S 
ATOM     17  H   UNL     1       7.985   5.102  13.366  0.00  0.00    +0.000 HD
BRANCH   8  19
ATOM     18  C   UNL     1       7.207   2.192  11.249  0.00  0.00    +0.000 C 
ATOM     19  C   UNL     1       6.987   3.680  11.483  0.00  0.00    +0.000 C 
ENDBRANCH   8  19
ENDBRANCH   1  15
BRANCH   5  20
ATOM     20  C   UNL     1       1.780   7.852  19.455  0.00  0.00    +0.000 A 
ATOM     21  C   UNL     1       1.265   8.682  20.451  0.00  0.00    +0.000 A 
ATOM     22  C   UNL     1       1.072  10.051  20.216  0.00  0.00    +0.000 A 
ATOM     23  C   UNL     1       1.416  10.650  18.995  0.00  0.00    +0.000 A 
ATOM     24  C   UNL     1       1.943   9.805  18.011  0.00  0.00    +0.000 A 
ATOM     25  C   UNL     1       2.095   8.430  18.224  0.00  0.00    +0.000 A 
BRANCH  23  26
ATOM     26  N   UNL     1       1.223  12.002  18.756  0.00  0.00    +0.000 N 
BRANCH  26  27
ATOM     27  C   UNL     1      -0.043  12.647  19.115  0.00  0.00    +0.000 C 
ATOM     28  C   UNL     1      -1.136  12.378  18.092  0.00  0.00    +0.000 C 
ENDBRANCH  26  27
BRANCH  26  29
ATOM     29  C   UNL     1       2.247  12.800  18.080  0.00  0.00    +0.000 C 
ATOM     30  C   UNL     1       2.182  14.255  18.528  0.00  0.00    +0.000 C 
ENDBRANCH  26  29
ENDBRANCH  23  26
ENDBRANCH   5  20
TORSDOF 6
ENDMDL
MODEL 3
REMARK VINA RESULT:      -6.9      5.599     11.412
REMARK  Name = 
REMARK  10 active torsions:
REMARK  status: ('A' for Active; 'I' for Inactive)
REMARK    1  A    between atoms: C_1  and  C_2
REMARK    2  A    between atoms: C_2  and  C_3
REMARK    3  A    between atoms: C_8  and  C_9
REMARK    4  A    between atoms: C_10  and  C_11
REMARK    5  A    between atoms: N_15  and  C_16
REMARK    6  A    between atoms: C_19  and  N_20
REMARK    7  A    between atoms: N_20  and  C_21
REMARK    8  A    between atoms: N_20  and  C_23
REMARK    9  A    between atoms: C_21  and  C_22
REMARK   10  A    between atoms: C_23  and  C_24
REMARK                            x       y       z     vdW  Elec       q    Type
REMARK                         _______ _______ _______ _____ _____    ______ ____
ROOT
ATOM      1  C   UNL     1      -0.524  12.583  20.449  0.00  0.00    +0.000 A 
ATOM      2  C   UNL     1       0.040  13.753  19.980  0.00  0.00    +0.000 A 
ATOM      3  S   UNL     1       1.165  13.399  18.735  0.00  0.00    +0.000 S 
ATOM      4  C   UNL     1       0.858  11.716  18.946  0.00  0.00    +0.000 A 
ATOM      5  N   UNL     1       1.458  10.803  18.151  0.00  0.00    +0.000 N 
ATOM      6  N   UNL     1      -0.013  11.435  19.888  0.00  0.00    +0.000 NA
ATOM      7  H   UNL     1       2.005  11.131  17.366  0.00  0.00    +0.000 HD
ENDROOT
BRANCH   1  15
ATOM      8  C   UNL     1      -6.046  13.206  22.058  0.00  0.00    +0.000 C 
ATOM      9  O   UNL     1      -5.879  13.521  20.884  0.00  0.00    +0.000 OA
ATOM     10  N   UNL     1      -5.083  12.705  22.911  0.00  0.00    +0.000 N 
ATOM     11  C   UNL     1      -3.764  12.544  22.565  0.00  0.00    +0.000 A 
ATOM     12  N   UNL     1      -2.951  11.737  23.209  0.00  0.00    +0.000 NA
ATOM     13  C   UNL     1      -1.726  11.685  22.538  0.00  0.00    +0.000 A 
ATOM     14  C   UNL     1      -0.690  10.735  23.034  0.00  0.00    +0.000 C 
ATOM     15  C   UNL     1      -1.644  12.521  21.433  0.00  0.00    +0.000 A 
ATOM     16  S   UNL     1      -3.062  13.453  21.315  0.00  0.00    +0.000 S 
ATOM     17  H   UNL     1      -5.359  12.200  23.742  0.00  0.00    +0.000 HD
BRANCH   8  19
ATOM     18  C   UNL     1      -7.308  13.134  24.211  0.00  0.00    +0.000 C 
ATOM     19  C   UNL     1      -7.410  13.334  22.706  0.00  0.00    +0.000 C 
ENDBRANCH   8  19
ENDBRANCH   1  15
BRANCH   5  20
ATOM     20  C   UNL     1       1.727   9.474  18.518  0.00  0.00    +0.000 A 
ATOM     21  C   UNL     1       1.425   9.044  19.811  0.00  0.00    +0.000 A 
ATOM     22  C   UNL     1       1.709   7.732  20.215  0.00  0.00    +0.000 A 
ATOM     23  C   UNL     1       2.271   6.791  19.339  0.00  0.00    +0.000 A 
ATOM     24  C   UNL     1       2.557   7.235  18.043  0.00  0.00    +0.000 A 
ATOM     25  C   UNL     1       2.318   8.557  17.648  0.00  0.00    +0.000 A 
BRANCH  23  26
ATOM     26  N   UNL     1       2.559   5.493  19.736  0.00  0.00    +0.000 N 
BRANCH  26  27
ATOM     27  C   UNL     1       3.383   4.623  18.892  0.00  0.00    +0.000 C 
ATOM     28  C   UNL     1       4.823   4.550  19.375  0.00  0.00    +0.000 C 
ENDBRANCH  26  27
BRANCH  26  29
ATOM     29  C   UNL     1       1.993   4.940  20.966  0.00  0.00    +0.000 C 
ATOM     30  C   UNL     1       1.203   3.669  20.676  0.00  0.00    +0.000 C 
ENDBRANCH  26  29
ENDBRANCH  23  26
ENDBRANCH   5  20
TORSDOF 6
ENDMDL
MODEL 4
REMARK VINA RESULT:      -6.9      5.587     10.947
REMARK  Name = 
REMARK  10 active torsions:
REMARK  status: ('A' for Active; 'I' for Inactive)
REMARK    1  A    between atoms: C_1  and  C_2
REMARK    2  A    between atoms: C_2  and  C_3
REMARK    3  A    between atoms: C_8  and  C_9
REMARK    4  A    between atoms: C_10  and  C_11
REMARK    5  A    between atoms: N_15  and  C_16
REMARK    6  A    between atoms: C_19  and  N_20
REMARK    7  A    between atoms: N_20  and  C_21
REMARK    8  A    between atoms: N_20  and  C_23
REMARK    9  A    between atoms: C_21  and  C_22
REMARK   10  A    between atoms: C_23  and  C_24
REMARK                            x       y       z     vdW  Elec       q    Type
REMARK                         _______ _______ _______ _____ _____    ______ ____
ROOT
ATOM      1  C   UNL     1      -0.459  11.368  18.688  0.00  0.00    +0.000 A 
ATOM      2  C   UNL     1       0.345  12.490  18.722  0.00  0.00    +0.000 A 
ATOM      3  S   UNL     1       1.985  12.037  18.502  0.00  0.00    +0.000 S 
ATOM      4  C   UNL     1       1.511  10.382  18.430  0.00  0.00    +0.000 A 
ATOM      5  N   UNL     1       2.426   9.414  18.199  0.00  0.00    +0.000 N 
ATOM      6  N   UNL     1       0.222  10.178  18.573  0.00  0.00    +0.000 NA
ATOM      7  H   UNL     1       3.371   9.689  17.966  0.00  0.00    +0.000 HD
ENDROOT
BRANCH   1  15
ATOM      8  C   UNL     1      -5.578  13.704  20.032  0.00  0.00    +0.000 C 
ATOM      9  O   UNL     1      -4.647  14.392  20.440  0.00  0.00    +0.000 OA
ATOM     10  N   UNL     1      -5.470  12.545  19.291  0.00  0.00    +0.000 N 
ATOM     11  C   UNL     1      -4.274  11.961  18.954  0.00  0.00    +0.000 A 
ATOM     12  N   UNL     1      -4.150  11.110  17.960  0.00  0.00    +0.000 NA
ATOM     13  C   UNL     1      -2.798  10.805  17.780  0.00  0.00    +0.000 A 
ATOM     14  C   UNL     1      -2.417   9.943  16.625  0.00  0.00    +0.000 C 
ATOM     15  C   UNL     1      -1.951  11.398  18.705  0.00  0.00    +0.000 A 
ATOM     16  S   UNL     1      -2.868  12.239  19.864  0.00  0.00    +0.000 S 
ATOM     17  H   UNL     1      -6.259  12.216  18.751  0.00  0.00    +0.000 HD
BRANCH   8  19
ATOM     18  C   UNL     1      -7.915  13.701  19.153  0.00  0.00    +0.000 C 
ATOM     19  C   UNL     1      -7.013  14.104  20.311  0.00  0.00    +0.000 C 
ENDBRANCH   8  19
ENDBRANCH   1  15
BRANCH   5  20
ATOM     20  C   UNL     1       2.308   8.082  18.627  0.00  0.00    +0.000 A 
ATOM     21  C   UNL     1       2.475   7.047  17.708  0.00  0.00    +0.000 A 
ATOM     22  C   UNL     1       2.333   5.708  18.100  0.00  0.00    +0.000 A 
ATOM     23  C   UNL     1       2.054   5.349  19.427  0.00  0.00    +0.000 A 
ATOM     24  C   UNL     1       1.901   6.399  20.339  0.00  0.00    +0.000 A 
ATOM     25  C   UNL     1       1.996   7.739  19.944  0.00  0.00    +0.000 A 
BRANCH  23  26
ATOM     26  N   UNL     1       1.908   4.027  19.820  0.00  0.00    +0.000 N 
BRANCH  26  27
ATOM     27  C   UNL     1       1.261   3.055  18.933  0.00  0.00    +0.000 C 
ATOM     28  C   UNL     1       2.270   2.189  18.195  0.00  0.00    +0.000 C 
ENDBRANCH  26  27
BRANCH  26  29
ATOM     29  C   UNL     1       2.332   3.586  21.148  0.00  0.00    +0.000 C 
ATOM     30  C   UNL     1       1.392   2.515  21.689  0.00  0.00    +0.000 C 
ENDBRANCH  26  29
ENDBRANCH  23  26
ENDBRANCH   5  20
TORSDOF 6
ENDMDL
MODEL 5
REMARK VINA RESULT:      -6.9      4.674      9.563
REMARK  Name = 
REMARK  10 active torsions:
REMARK  status: ('A' for Active; 'I' for Inactive)
REMARK    1  A    between atoms: C_1  and  C_2
REMARK    2  A    between atoms: C_2  and  C_3
REMARK    3  A    between atoms: C_8  and  C_9
REMARK    4  A    between atoms: C_10  and  C_11
REMARK    5  A    between atoms: N_15  and  C_16
REMARK    6  A    between atoms: C_19  and  N_20
REMARK    7  A    between atoms: N_20  and  C_21
REMARK    8  A    between atoms: N_20  and  C_23
REMARK    9  A    between atoms: C_21  and  C_22
REMARK   10  A    between atoms: C_23  and  C_24
REMARK                            x       y       z     vdW  Elec       q    Type
REMARK                         _______ _______ _______ _____ _____    ______ ____
ROOT
ATOM      1  C   UNL     1      -2.054  11.397  18.979  0.00  0.00    +0.000 A 
ATOM      2  C   UNL     1      -2.189  12.237  20.066  0.00  0.00    +0.000 A 
ATOM      3  S   UNL     1      -0.809  12.106  21.077  0.00  0.00    +0.000 S 
ATOM      4  C   UNL     1      -0.159  10.907  20.024  0.00  0.00    +0.000 A 
ATOM      5  N   UNL     1       1.061  10.375  20.257  0.00  0.00    +0.000 N 
ATOM      6  N   UNL     1      -0.923  10.614  18.996  0.00  0.00    +0.000 NA
ATOM      7  H   UNL     1       1.626  10.769  20.998  0.00  0.00    +0.000 HD
ENDROOT
BRANCH   1  15
ATOM      8  C   UNL     1      -3.555  10.013  13.566  0.00  0.00    +0.000 C 
ATOM      9  O   UNL     1      -2.410   9.653  13.823  0.00  0.00    +0.000 OA
ATOM     10  N   UNL     1      -4.433  10.620  14.441  0.00  0.00    +0.000 N 
ATOM     11  C   UNL     1      -4.113  10.964  15.730  0.00  0.00    +0.000 A 
ATOM     12  N   UNL     1      -5.019  11.177  16.659  0.00  0.00    +0.000 NA
ATOM     13  C   UNL     1      -4.382  11.368  17.889  0.00  0.00    +0.000 A 
ATOM     14  C   UNL     1      -5.231  11.510  19.107  0.00  0.00    +0.000 C 
ATOM     15  C   UNL     1      -2.996  11.355  17.823  0.00  0.00    +0.000 A 
ATOM     16  S   UNL     1      -2.502  11.223  16.201  0.00  0.00    +0.000 S 
ATOM     17  H   UNL     1      -5.426  10.608  14.249  0.00  0.00    +0.000 HD
BRANCH   8  19
ATOM     18  C   UNL     1      -5.602   9.375  12.287  0.00  0.00    +0.000 C 
ATOM     19  C   UNL     1      -4.142   9.792  12.186  0.00  0.00    +0.000 C 
ENDBRANCH   8  19
ENDBRANCH   1  15
BRANCH   5  20
ATOM     20  C   UNL     1       1.468   9.094  19.848  0.00  0.00    +0.000 A 
ATOM     21  C   UNL     1       1.919   8.901  18.542  0.00  0.00    +0.000 A 
ATOM     22  C   UNL     1       2.303   7.628  18.096  0.00  0.00    +0.000 A 
ATOM     23  C   UNL     1       2.286   6.510  18.942  0.00  0.00    +0.000 A 
ATOM     24  C   UNL     1       1.842   6.723  20.252  0.00  0.00    +0.000 A 
ATOM     25  C   UNL     1       1.413   7.982  20.689  0.00  0.00    +0.000 A 
BRANCH  23  26
ATOM     26  N   UNL     1       2.660   5.247  18.505  0.00  0.00    +0.000 N 
BRANCH  26  27
ATOM     27  C   UNL     1       2.085   4.047  19.118  0.00  0.00    +0.000 C 
ATOM     28  C   UNL     1       1.827   2.948  18.099  0.00  0.00    +0.000 C 
ENDBRANCH  26  27
BRANCH  26  29
ATOM     29  C   UNL     1       3.684   5.083  17.473  0.00  0.00    +0.000 C 
ATOM     30  C   UNL     1       5.071   4.986  18.098  0.00  0.00    +0.000 C 
ENDBRANCH  26  29
ENDBRANCH  23  26
ENDBRANCH   5  20
TORSDOF 6
ENDMDL
MODEL 6
REMARK VINA RESULT:      -6.9      4.673      9.469
REMARK  Name = 
REMARK  10 active torsions:
REMARK  status: ('A' for Active; 'I' for Inactive)
REMARK    1  A    between atoms: C_1  and  C_2
REMARK    2  A    between atoms: C_2  and  C_3
REMARK    3  A    between atoms: C_8  and  C_9
REMARK    4  A    between atoms: C_10  and  C_11
REMARK    5  A    between atoms: N_15  and  C_16
REMARK    6  A    between atoms: C_19  and  N_20
REMARK    7  A    between atoms: N_20  and  C_21
REMARK    8  A    between atoms: N_20  and  C_23
REMARK    9  A    between atoms: C_21  and  C_22
REMARK   10  A    between atoms: C_23  and  C_24
REMARK                            x       y       z     vdW  Elec       q    Type
REMARK                         _______ _______ _______ _____ _____    ______ ____
ROOT
ATOM      1  C   UNL     1      -2.047  11.470  18.972  0.00  0.00    +0.000 A 
ATOM      2  C   UNL     1      -2.179  12.343  20.033  0.00  0.00    +0.000 A 
ATOM      3  S   UNL     1      -0.798  12.243  21.045  0.00  0.00    +0.000 S 
ATOM      4  C   UNL     1      -0.151  11.012  20.028  0.00  0.00    +0.000 A 
ATOM      5  N   UNL     1       1.070  10.486  20.276  0.00  0.00    +0.000 N 
ATOM      6  N   UNL     1      -0.916  10.688  19.011  0.00  0.00    +0.000 NA
ATOM      7  H   UNL     1       1.636  10.902  21.003  0.00  0.00    +0.000 HD
ENDROOT
BRANCH   1  15
ATOM      8  C   UNL     1      -3.528  10.000  13.576  0.00  0.00    +0.000 C 
ATOM      9  O   UNL     1      -2.373   9.673  13.833  0.00  0.00    +0.000 OA
ATOM     10  N   UNL     1      -4.420  10.592  14.449  0.00  0.00    +0.000 N 
ATOM     11  C   UNL     1      -4.104  10.955  15.734  0.00  0.00    +0.000 A 
ATOM     12  N   UNL     1      -5.012  11.152  16.664  0.00  0.00    +0.000 NA
ATOM     13  C   UNL     1      -4.378  11.370  17.890  0.00  0.00    +0.000 A 
ATOM     14  C   UNL     1      -5.226  11.500  19.110  0.00  0.00    +0.000 C 
ATOM     15  C   UNL     1      -2.992  11.393  17.820  0.00  0.00    +0.000 A 
ATOM     16  S   UNL     1      -2.500  11.261  16.198  0.00  0.00    +0.000 S 
ATOM     17  H   UNL     1      -5.412  10.551  14.260  0.00  0.00    +0.000 HD
BRANCH   8  19
ATOM     18  C   UNL     1      -5.576   9.346  12.307  0.00  0.00    +0.000 C 
ATOM     19  C   UNL     1      -4.113   9.752  12.201  0.00  0.00    +0.000 C 
ENDBRANCH   8  19
ENDBRANCH   1  15
BRANCH   5  20
ATOM     20  C   UNL     1       1.475   9.194  19.905  0.00  0.00    +0.000 A 
ATOM     21  C   UNL     1       1.902   8.955  18.598  0.00  0.00    +0.000 A 
ATOM     22  C   UNL     1       2.284   7.669  18.192  0.00  0.00    +0.000 A 
ATOM     23  C   UNL     1       2.288   6.581  19.078  0.00  0.00    +0.000 A 
ATOM     24  C   UNL     1       1.868   6.840  20.387  0.00  0.00    +0.000 A 
ATOM     25  C   UNL     1       1.442   8.112  20.787  0.00  0.00    +0.000 A 
BRANCH  23  26
ATOM     26  N   UNL     1       2.661   5.306  18.679  0.00  0.00    +0.000 N 
BRANCH  26  27
ATOM     27  C   UNL     1       3.669   5.118  17.633  0.00  0.00    +0.000 C 
ATOM     28  C   UNL     1       5.081   5.067  18.197  0.00  0.00    +0.000 C 
ENDBRANCH  26  27
BRANCH  26  29
ATOM     29  C   UNL     1       2.010   4.122  19.242  0.00  0.00    +0.000 C 
ATOM     30  C   UNL     1       1.599   3.154  18.140  0.00  0.00    +0.000 C 
ENDBRANCH  26  29
ENDBRANCH  23  26
ENDBRANCH   5  20
TORSDOF 6
ENDMDL
MODEL 7
REMARK VINA RESULT:      -6.9      5.485     11.297
REMARK  Name = 
REMARK  10 active torsions:
REMARK  status: ('A' for Active; 'I' for Inactive)
REMARK    1  A    between atoms: C_1  and  C_2
REMARK    2  A    between atoms: C_2  and  C_3
REMARK    3  A    between atoms: C_8  and  C_9
REMARK    4  A    between atoms: C_10  and  C_11
REMARK    5  A    between atoms: N_15  and  C_16
REMARK    6  A    between atoms: C_19  and  N_20
REMARK    7  A    between atoms: N_20  and  C_21
REMARK    8  A    between atoms: N_20  and  C_23
REMARK    9  A    between atoms: C_21  and  C_22
REMARK   10  A    between atoms: C_23  and  C_24
REMARK                            x       y       z     vdW  Elec       q    Type
REMARK                         _______ _______ _______ _____ _____    ______ ____
ROOT
ATOM      1  C   UNL     1      -0.087  12.243  20.517  0.00  0.00    +0.000 A 
ATOM      2  C   UNL     1       0.447  13.391  19.965  0.00  0.00    +0.000 A 
ATOM      3  S   UNL     1       1.464  12.983  18.645  0.00  0.00    +0.000 S 
ATOM      4  C   UNL     1       1.161  11.312  18.937  0.00  0.00    +0.000 A 
ATOM      5  N   UNL     1       1.686  10.366  18.127  0.00  0.00    +0.000 N 
ATOM      6  N   UNL     1       0.367  11.072  19.955  0.00  0.00    +0.000 NA
ATOM      7  H   UNL     1       2.170  10.662  17.290  0.00  0.00    +0.000 HD
ENDROOT
BRANCH   1  15
ATOM      8  C   UNL     1      -5.327  13.405  22.676  0.00  0.00    +0.000 C 
ATOM      9  O   UNL     1      -5.212  13.813  21.523  0.00  0.00    +0.000 OA
ATOM     10  N   UNL     1      -4.377  12.701  23.388  0.00  0.00    +0.000 N 
ATOM     11  C   UNL     1      -3.124  12.408  22.909  0.00  0.00    +0.000 A 
ATOM     12  N   UNL     1      -2.380  11.442  23.401  0.00  0.00    +0.000 NA
ATOM     13  C   UNL     1      -1.230  11.302  22.618  0.00  0.00    +0.000 A 
ATOM     14  C   UNL     1      -0.298  10.181  22.930  0.00  0.00    +0.000 C 
ATOM     15  C   UNL     1      -1.123  12.227  21.590  0.00  0.00    +0.000 A 
ATOM     16  S   UNL     1      -2.405  13.340  21.686  0.00  0.00    +0.000 S 
ATOM     17  H   UNL     1      -4.653  12.155  24.192  0.00  0.00    +0.000 HD
BRANCH   8  19
ATOM     18  C   UNL     1      -7.290  12.319  23.770  0.00  0.00    +0.000 C 
ATOM     19  C   UNL     1      -6.605  13.641  23.454  0.00  0.00    +0.000 C 
ENDBRANCH   8  19
ENDBRANCH   1  15
BRANCH   5  20
ATOM     20  C   UNL     1       1.971   9.047  18.516  0.00  0.00    +0.000 A 
ATOM     21  C   UNL     1       2.647   8.201  17.636  0.00  0.00    +0.000 A 
ATOM     22  C   UNL     1       2.919   6.870  17.987  0.00  0.00    +0.000 A 
ATOM     23  C   UNL     1       2.560   6.344  19.236  0.00  0.00    +0.000 A 
ATOM     24  C   UNL     1       1.894   7.209  20.111  0.00  0.00    +0.000 A 
ATOM     25  C   UNL     1       1.578   8.524  19.750  0.00  0.00    +0.000 A 
BRANCH  23  26
ATOM     26  N   UNL     1       2.823   5.027  19.586  0.00  0.00    +0.000 N 
BRANCH  26  27
ATOM     27  C   UNL     1       3.499   4.129  18.646  0.00  0.00    +0.000 C 
ATOM     28  C   UNL     1       2.551   3.579  17.592  0.00  0.00    +0.000 C 
ENDBRANCH  26  27
BRANCH  26  29
ATOM     29  C   UNL     1       2.372   4.486  20.868  0.00  0.00    +0.000 C 
ATOM     30  C   UNL     1       1.120   3.636  20.687  0.00  0.00    +0.000 C 
ENDBRANCH  26  29
ENDBRANCH  23  26
ENDBRANCH   5  20
TORSDOF 6
ENDMDL
MODEL 8
REMARK VINA RESULT:      -6.8      5.597     11.173
REMARK  Name = 
REMARK  10 active torsions:
REMARK  status: ('A' for Active; 'I' for Inactive)
REMARK    1  A    between atoms: C_1  and  C_2
REMARK    2  A    between atoms: C_2  and  C_3
REMARK    3  A    between atoms: C_8  and  C_9
REMARK    4  A    between atoms: C_10  and  C_11
REMARK    5  A    between atoms: N_15  and  C_16
REMARK    6  A    between atoms: C_19  and  N_20
REMARK    7  A    between atoms: N_20  and  C_21
REMARK    8  A    between atoms: N_20  and  C_23
REMARK    9  A    between atoms: C_21  and  C_22
REMARK   10  A    between atoms: C_23  and  C_24
REMARK                            x       y       z     vdW  Elec       q    Type
REMARK                         _______ _______ _______ _____ _____    ______ ____
ROOT
ATOM      1  C   UNL     1       0.222  11.727  20.444  0.00  0.00    +0.000 A 
ATOM      2  C   UNL     1       0.877  12.790  19.855  0.00  0.00    +0.000 A 
ATOM      3  S   UNL     1       1.900  12.221  18.601  0.00  0.00    +0.000 S 
ATOM      4  C   UNL     1       1.435  10.602  18.966  0.00  0.00    +0.000 A 
ATOM      5  N   UNL     1       1.901   9.570  18.228  0.00  0.00    +0.000 N 
ATOM      6  N   UNL     1       0.587  10.491  19.963  0.00  0.00    +0.000 NA
ATOM      7  H   UNL     1       2.440   9.775  17.398  0.00  0.00    +0.000 HD
ENDROOT
BRANCH   1  15
ATOM      8  C   UNL     1      -5.040  13.294  22.269  0.00  0.00    +0.000 C 
ATOM      9  O   UNL     1      -4.871  13.571  21.085  0.00  0.00    +0.000 OA
ATOM     10  N   UNL     1      -4.142  12.638  23.087  0.00  0.00    +0.000 N 
ATOM     11  C   UNL     1      -2.886  12.253  22.690  0.00  0.00    +0.000 A 
ATOM     12  N   UNL     1      -2.197  11.320  23.309  0.00  0.00    +0.000 NA
ATOM     13  C   UNL     1      -1.027  11.057  22.589  0.00  0.00    +0.000 A 
ATOM     14  C   UNL     1      -0.150   9.945  23.053  0.00  0.00    +0.000 C 
ATOM     15  C   UNL     1      -0.850  11.862  21.473  0.00  0.00    +0.000 A 
ATOM     16  S   UNL     1      -2.091  13.022  21.402  0.00  0.00    +0.000 S 
ATOM     17  H   UNL     1      -4.465  12.191  23.934  0.00  0.00    +0.000 HD
BRANCH   8  19
ATOM     18  C   UNL     1      -6.630  12.669  24.089  0.00  0.00    +0.000 C 
ATOM     19  C   UNL     1      -6.334  13.656  22.969  0.00  0.00    +0.000 C 
ENDBRANCH   8  19
ENDBRANCH   1  15
BRANCH   5  20
ATOM     20  C   UNL     1       2.051   8.254  18.697  0.00  0.00    +0.000 A 
ATOM     21  C   UNL     1       2.462   7.254  17.816  0.00  0.00    +0.000 A 
ATOM     22  C   UNL     1       2.592   5.926  18.249  0.00  0.00    +0.000 A 
ATOM     23  C   UNL     1       2.351   5.552  19.579  0.00  0.00    +0.000 A 
ATOM     24  C   UNL     1       1.951   6.570  20.452  0.00  0.00    +0.000 A 
ATOM     25  C   UNL     1       1.775   7.888  20.015  0.00  0.00    +0.000 A 
BRANCH  23  26
ATOM     26  N   UNL     1       2.473   4.239  20.011  0.00  0.00    +0.000 N 
BRANCH  26  27
ATOM     27  C   UNL     1       2.309   3.905  21.428  0.00  0.00    +0.000 C 
ATOM     28  C   UNL     1       1.472   2.651  21.629  0.00  0.00    +0.000 C 
ENDBRANCH  26  27
BRANCH  26  29
ATOM     29  C   UNL     1       2.835   3.172  19.078  0.00  0.00    +0.000 C 
ATOM     30  C   UNL     1       1.620   2.717  18.278  0.00  0.00    +0.000 C 
ENDBRANCH  26  29
ENDBRANCH  23  26
ENDBRANCH   5  20
TORSDOF 6
ENDMDL
MODEL 9
REMARK VINA RESULT:      -6.8      0.895      1.007
REMARK  Name = 
REMARK  10 active torsions:
REMARK  status: ('A' for Active; 'I' for Inactive)
REMARK    1  A    between atoms: C_1  and  C_2
REMARK    2  A    between atoms: C_2  and  C_3
REMARK    3  A    between atoms: C_8  and  C_9
REMARK    4  A    between atoms: C_10  and  C_11
REMARK    5  A    between atoms: N_15  and  C_16
REMARK    6  A    between atoms: C_19  and  N_20
REMARK    7  A    between atoms: N_20  and  C_21
REMARK    8  A    between atoms: N_20  and  C_23
REMARK    9  A    between atoms: C_21  and  C_22
REMARK   10  A    between atoms: C_23  and  C_24
REMARK                            x       y       z     vdW  Elec       q    Type
REMARK                         _______ _______ _______ _____ _____    ______ ____
ROOT
ATOM      1  C   UNL     1       4.551   4.620  19.016  0.00  0.00    +0.000 A 
ATOM      2  C   UNL     1       4.390   3.693  20.027  0.00  0.00    +0.000 A 
ATOM      3  S   UNL     1       2.991   4.072  20.945  0.00  0.00    +0.000 S 
ATOM      4  C   UNL     1       2.733   5.465  19.964  0.00  0.00    +0.000 A 
ATOM      5  N   UNL     1       1.652   6.253  20.159  0.00  0.00    +0.000 N 
ATOM      6  N   UNL     1       3.634   5.644  19.025  0.00  0.00    +0.000 NA
ATOM      7  H   UNL     1       0.947   5.950  20.818  0.00  0.00    +0.000 HD
ENDROOT
BRANCH   1  15
ATOM      8  C   UNL     1       6.257   4.080  13.514  0.00  0.00    +0.000 C 
ATOM      9  O   UNL     1       5.033   4.065  13.612  0.00  0.00    +0.000 OA
ATOM     10  N   UNL     1       7.153   4.261  14.548  0.00  0.00    +0.000 N 
ATOM     11  C   UNL     1       6.786   4.391  15.864  0.00  0.00    +0.000 A 
ATOM     12  N   UNL     1       7.567   4.933  16.773  0.00  0.00    +0.000 NA
ATOM     13  C   UNL     1       6.863   5.050  17.975  0.00  0.00    +0.000 A 
ATOM     14  C   UNL     1       7.525   5.748  19.114  0.00  0.00    +0.000 C 
ATOM     15  C   UNL     1       5.580   4.522  17.939  0.00  0.00    +0.000 A 
ATOM     16  S   UNL     1       5.309   3.778  16.435  0.00  0.00    +0.000 S 
ATOM     17  H   UNL     1       8.099   4.557  14.349  0.00  0.00    +0.000 HD
BRANCH   8  19
ATOM     18  C   UNL     1       7.730   5.149  11.805  0.00  0.00    +0.000 C 
ATOM     19  C   UNL     1       6.926   3.908  12.166  0.00  0.00    +0.000 C 
ENDBRANCH   8  19
ENDBRANCH   1  15
BRANCH   5  20
ATOM     20  C   UNL     1       1.589   7.620  19.842  0.00  0.00    +0.000 A 
ATOM     21  C   UNL     1       1.203   8.535  20.821  0.00  0.00    +0.000 A 
ATOM     22  C   UNL     1       1.103   9.902  20.526  0.00  0.00    +0.000 A 
ATOM     23  C   UNL     1       1.417  10.412  19.257  0.00  0.00    +0.000 A 
ATOM     24  C   UNL     1       1.813   9.482  18.290  0.00  0.00    +0.000 A 
ATOM     25  C   UNL     1       1.871   8.111  18.566  0.00  0.00    +0.000 A 
BRANCH  23  26
ATOM     26  N   UNL     1       1.315  11.763  18.958  0.00  0.00    +0.000 N 
BRANCH  26  27
ATOM     27  C   UNL     1       2.437  12.474  18.340  0.00  0.00    +0.000 C 
ATOM     28  C   UNL     1       2.110  13.934  18.063  0.00  0.00    +0.000 C 
ENDBRANCH  26  27
BRANCH  26  29
ATOM     29  C   UNL     1       0.116  12.523  19.313  0.00  0.00    +0.000 C 
ATOM     30  C   UNL     1      -1.079  12.068  18.484  0.00  0.00    +0.000 C 
ENDBRANCH  26  29
ENDBRANCH  23  26
ENDBRANCH   5  20
TORSDOF 6
ENDMDL
