MODEL 1
REMARK VINA RESULT:      -7.8      0.000      0.000
REMARK  Name = 
REMARK  3 active torsions:
REMARK  status: ('A' for Active; 'I' for Inactive)
REMARK    1  A    between atoms: C_2  and  C_10
REMARK    2  A    between atoms: N_3  and  C_4
REMARK    3  A    between atoms: C_14  and  O_15
REMARK                            x       y       z     vdW  Elec       q    Type
REMARK                         _______ _______ _______ _____ _____    ______ ____
ROOT
ATOM      1  C   UNL     1       4.744   3.930  17.796  0.00  0.00    +0.000 A 
ATOM      2  C   UNL     1       4.851   3.558  19.125  0.00  0.00    +0.000 A 
ATOM      3  C   UNL     1       3.543   3.396  19.649  0.00  0.00    +0.000 A 
ATOM      4  C   UNL     1       3.045   3.024  20.911  0.00  0.00    +0.000 A 
ATOM      5  C   UNL     1       1.665   2.904  21.071  0.00  0.00    +0.000 A 
ATOM      6  C   UNL     1       0.787   3.143  20.021  0.00  0.00    +0.000 A 
ATOM      7  C   UNL     1       1.263   3.547  18.768  0.00  0.00    +0.000 A 
ATOM      8  C   UNL     1       2.649   3.673  18.615  0.00  0.00    +0.000 A 
ATOM      9  N   UNL     1       3.400   4.070  17.532  0.00  0.00    +0.000 N 
ATOM     10  H   UNL     1       3.026   4.376  16.642  0.00  0.00    +0.000 HD
ENDROOT
BRANCH   1  12
ATOM     11  O   UNL     1       6.921   4.454  17.137  0.00  0.00    +0.000 OA
ATOM     12  C   UNL     1       5.773   4.178  16.809  0.00  0.00    +0.000 C 
ATOM     13  N   UNL     1       5.280   4.155  15.519  0.00  0.00    +0.000 N 
ATOM     14  H   UNL     1       4.274   4.184  15.431  0.00  0.00    +0.000 HD
BRANCH  13  15
ATOM     15  C   UNL     1       6.015   4.277  14.328  0.00  0.00    +0.000 A 
ATOM     16  C   UNL     1       7.110   5.131  14.189  0.00  0.00    +0.000 A 
ATOM     17  C   UNL     1       7.801   5.199  12.976  0.00  0.00    +0.000 A 
ATOM     18  C   UNL     1       7.397   4.420  11.894  0.00  0.00    +0.000 A 
ATOM     19  C   UNL     1       6.313   3.556  12.028  0.00  0.00    +0.000 A 
ATOM     20  C   UNL     1       5.634   3.473  13.246  0.00  0.00    +0.000 A 
ENDBRANCH  13  15
ENDBRANCH   1  12
BRANCH   5  21
ATOM     21  O   UNL     1       1.131   2.541  22.275  0.00  0.00    +0.000 OA
ATOM     22  H   UNL     1       0.576   1.755  22.140  0.00  0.00    +0.000 HD
ENDBRANCH   5  21
TORSDOF 3
ENDMDL
MODEL 2
REMARK VINA RESULT:      -7.7      1.030      1.041
REMARK  Name = 
REMARK  3 active torsions:
REMARK  status: ('A' for Active; 'I' for Inactive)
REMARK    1  A    between atoms: C_2  and  C_10
REMARK    2  A    between atoms: N_3  and  C_4
REMARK    3  A    between atoms: C_14  and  O_15
REMARK                            x       y       z     vdW  Elec       q    Type
REMARK                         _______ _______ _______ _____ _____    ______ ____
ROOT
ATOM      1  C   UNL     1       4.200   4.731  17.487  0.00  0.00    +0.000 A 
ATOM      2  C   UNL     1       4.529   3.712  18.364  0.00  0.00    +0.000 A 
ATOM      3  C   UNL     1       3.507   3.617  19.342  0.00  0.00    +0.000 A 
ATOM      4  C   UNL     1       3.304   2.776  20.452  0.00  0.00    +0.000 A 
ATOM      5  C   UNL     1       2.128   2.921  21.188  0.00  0.00    +0.000 A 
ATOM      6  C   UNL     1       1.170   3.868  20.849  0.00  0.00    +0.000 A 
ATOM      7  C   UNL     1       1.371   4.736  19.769  0.00  0.00    +0.000 A 
ATOM      8  C   UNL     1       2.557   4.592  19.038  0.00  0.00    +0.000 A 
ATOM      9  N   UNL     1       3.039   5.301  17.962  0.00  0.00    +0.000 N 
ATOM     10  H   UNL     1       2.586   6.101  17.538  0.00  0.00    +0.000 HD
ENDROOT
BRANCH   1  12
ATOM     11  O   UNL     1       5.001   6.399  16.066  0.00  0.00    +0.000 OA
ATOM     12  C   UNL     1       4.882   5.202  16.301  0.00  0.00    +0.000 C 
ATOM     13  N   UNL     1       5.273   4.168  15.473  0.00  0.00    +0.000 N 
ATOM     14  H   UNL     1       4.866   3.266  15.673  0.00  0.00    +0.000 HD
BRANCH  13  15
ATOM     15  C   UNL     1       6.023   4.268  14.289  0.00  0.00    +0.000 A 
ATOM     16  C   UNL     1       7.168   5.058  14.172  0.00  0.00    +0.000 A 
ATOM     17  C   UNL     1       7.870   5.105  12.965  0.00  0.00    +0.000 A 
ATOM     18  C   UNL     1       7.427   4.372  11.866  0.00  0.00    +0.000 A 
ATOM     19  C   UNL     1       6.293   3.572  11.978  0.00  0.00    +0.000 A 
ATOM     20  C   UNL     1       5.602   3.507  13.191  0.00  0.00    +0.000 A 
ENDBRANCH  13  15
ENDBRANCH   1  12
BRANCH   5  21
ATOM     21  O   UNL     1       1.880   2.126  22.271  0.00  0.00    +0.000 OA
ATOM     22  H   UNL     1       2.575   1.449  22.319  0.00  0.00    +0.000 HD
ENDBRANCH   5  21
TORSDOF 3
ENDMDL
MODEL 3
REMARK VINA RESULT:      -7.6      0.249      1.133
REMARK  Name = 
REMARK  3 active torsions:
REMARK  status: ('A' for Active; 'I' for Inactive)
REMARK    1  A    between atoms: C_2  and  C_10
REMARK    2  A    between atoms: N_3  and  C_4
REMARK    3  A    between atoms: C_14  and  O_15
REMARK                            x       y       z     vdW  Elec       q    Type
REMARK                         _______ _______ _______ _____ _____    ______ ____
ROOT
ATOM      1  C   UNL     1       4.736   3.970  17.893  0.00  0.00    +0.000 A 
ATOM      2  C   UNL     1       4.843   3.351  19.126  0.00  0.00    +0.000 A 
ATOM      3  C   UNL     1       3.560   3.336  19.731  0.00  0.00    +0.000 A 
ATOM      4  C   UNL     1       3.072   2.838  20.953  0.00  0.00    +0.000 A 
ATOM      5  C   UNL     1       1.705   2.943  21.213  0.00  0.00    +0.000 A 
ATOM      6  C   UNL     1       0.833   3.521  20.300  0.00  0.00    +0.000 A 
ATOM      7  C   UNL     1       1.307   4.052  19.094  0.00  0.00    +0.000 A 
ATOM      8  C   UNL     1       2.680   3.952  18.842  0.00  0.00    +0.000 A 
ATOM      9  N   UNL     1       3.432   4.396  17.777  0.00  0.00    +0.000 N 
ATOM     10  H   UNL     1       3.075   4.919  16.988  0.00  0.00    +0.000 HD
ENDROOT
BRANCH   1  12
ATOM     11  O   UNL     1       6.880   4.532  17.163  0.00  0.00    +0.000 OA
ATOM     12  C   UNL     1       5.736   4.202  16.873  0.00  0.00    +0.000 C 
ATOM     13  N   UNL     1       5.218   4.098  15.597  0.00  0.00    +0.000 N 
ATOM     14  H   UNL     1       4.211   4.089  15.529  0.00  0.00    +0.000 HD
BRANCH  13  15
ATOM     15  C   UNL     1       5.926   4.185  14.385  0.00  0.00    +0.000 A 
ATOM     16  C   UNL     1       5.574   3.468  13.241  0.00  0.00    +0.000 A 
ATOM     17  C   UNL     1       6.319   3.608  12.067  0.00  0.00    +0.000 A 
ATOM     18  C   UNL     1       7.424   4.456  12.032  0.00  0.00    +0.000 A 
ATOM     19  C   UNL     1       7.774   5.183  13.167  0.00  0.00    +0.000 A 
ATOM     20  C   UNL     1       7.018   5.061  14.336  0.00  0.00    +0.000 A 
ENDBRANCH  13  15
ENDBRANCH   1  12
BRANCH   5  21
ATOM     21  O   UNL     1       1.180   2.470  22.382  0.00  0.00    +0.000 OA
ATOM     22  H   UNL     1       0.539   1.773  22.171  0.00  0.00    +0.000 HD
ENDBRANCH   5  21
TORSDOF 3
ENDMDL
MODEL 4
REMARK VINA RESULT:      -7.5      1.178      1.649
REMARK  Name = 
REMARK  3 active torsions:
REMARK  status: ('A' for Active; 'I' for Inactive)
REMARK    1  A    between atoms: C_2  and  C_10
REMARK    2  A    between atoms: N_3  and  C_4
REMARK    3  A    between atoms: C_14  and  O_15
REMARK                            x       y       z     vdW  Elec       q    Type
REMARK                         _______ _______ _______ _____ _____    ______ ____
ROOT
ATOM      1  C   UNL     1       4.331   4.779  17.428  0.00  0.00    +0.000 A 
ATOM      2  C   UNL     1       4.405   3.579  18.113  0.00  0.00    +0.000 A 
ATOM      3  C   UNL     1       3.543   3.653  19.237  0.00  0.00    +0.000 A 
ATOM      4  C   UNL     1       3.210   2.750  20.263  0.00  0.00    +0.000 A 
ATOM      5  C   UNL     1       2.255   3.137  21.204  0.00  0.00    +0.000 A 
ATOM      6  C   UNL     1       1.639   4.381  21.146  0.00  0.00    +0.000 A 
ATOM      7  C   UNL     1       1.984   5.305  20.152  0.00  0.00    +0.000 A 
ATOM      8  C   UNL     1       2.948   4.915  19.215  0.00  0.00    +0.000 A 
ATOM      9  N   UNL     1       3.502   5.601  18.159  0.00  0.00    +0.000 N 
ATOM     10  H   UNL     1       3.297   6.561  17.913  0.00  0.00    +0.000 HD
ENDROOT
BRANCH   1  12
ATOM     11  O   UNL     1       5.136   6.384  15.937  0.00  0.00    +0.000 OA
ATOM     12  C   UNL     1       4.977   5.198  16.202  0.00  0.00    +0.000 C 
ATOM     13  N   UNL     1       5.284   4.132  15.379  0.00  0.00    +0.000 N 
ATOM     14  H   UNL     1       4.847   3.253  15.615  0.00  0.00    +0.000 HD
BRANCH  13  15
ATOM     15  C   UNL     1       5.981   4.177  14.159  0.00  0.00    +0.000 A 
ATOM     16  C   UNL     1       5.588   3.462  13.027  0.00  0.00    +0.000 A 
ATOM     17  C   UNL     1       6.325   3.557  11.844  0.00  0.00    +0.000 A 
ATOM     18  C   UNL     1       7.462   4.360  11.788  0.00  0.00    +0.000 A 
ATOM     19  C   UNL     1       7.853   5.087  12.910  0.00  0.00    +0.000 A 
ATOM     20  C   UNL     1       7.106   5.008  14.087  0.00  0.00    +0.000 A 
ENDBRANCH  13  15
ENDBRANCH   1  12
BRANCH   5  21
ATOM     21  O   UNL     1       1.893   2.295  22.216  0.00  0.00    +0.000 OA
ATOM     22  H   UNL     1       1.692   2.828  23.002  0.00  0.00    +0.000 HD
ENDBRANCH   5  21
TORSDOF 3
ENDMDL
MODEL 5
REMARK VINA RESULT:      -7.5      6.406      8.612
REMARK  Name = 
REMARK  3 active torsions:
REMARK  status: ('A' for Active; 'I' for Inactive)
REMARK    1  A    between atoms: C_2  and  C_10
REMARK    2  A    between atoms: N_3  and  C_4
REMARK    3  A    between atoms: C_14  and  O_15
REMARK                            x       y       z     vdW  Elec       q    Type
REMARK                         _______ _______ _______ _____ _____    ______ ____
ROOT
ATOM      1  C   UNL     1       8.460   8.971  18.390  0.00  0.00    +0.000 A 
ATOM      2  C   UNL     1       8.292  10.080  17.579  0.00  0.00    +0.000 A 
ATOM      3  C   UNL     1       9.019  11.159  18.142  0.00  0.00    +0.000 A 
ATOM      4  C   UNL     1       9.221  12.498  17.757  0.00  0.00    +0.000 A 
ATOM      5  C   UNL     1      10.065  13.292  18.532  0.00  0.00    +0.000 A 
ATOM      6  C   UNL     1      10.700  12.791  19.662  0.00  0.00    +0.000 A 
ATOM      7  C   UNL     1      10.484  11.472  20.080  0.00  0.00    +0.000 A 
ATOM      8  C   UNL     1       9.629  10.682  19.302  0.00  0.00    +0.000 A 
ATOM      9  N   UNL     1       9.210   9.382  19.470  0.00  0.00    +0.000 N 
ATOM     10  H   UNL     1       9.455   8.784  20.249  0.00  0.00    +0.000 HD
ENDROOT
BRANCH   1  12
ATOM     11  O   UNL     1       8.323   6.722  18.994  0.00  0.00    +0.000 OA
ATOM     12  C   UNL     1       7.964   7.620  18.241  0.00  0.00    +0.000 C 
ATOM     13  N   UNL     1       7.152   7.476  17.134  0.00  0.00    +0.000 N 
ATOM     14  H   UNL     1       7.174   8.237  16.469  0.00  0.00    +0.000 HD
BRANCH  13  15
ATOM     15  C   UNL     1       6.447   6.325  16.743  0.00  0.00    +0.000 A 
ATOM     16  C   UNL     1       6.974   5.359  15.885  0.00  0.00    +0.000 A 
ATOM     17  C   UNL     1       6.219   4.235  15.543  0.00  0.00    +0.000 A 
ATOM     18  C   UNL     1       4.930   4.073  16.048  0.00  0.00    +0.000 A 
ATOM     19  C   UNL     1       4.402   5.027  16.915  0.00  0.00    +0.000 A 
ATOM     20  C   UNL     1       5.164   6.142  17.274  0.00  0.00    +0.000 A 
ENDBRANCH  13  15
ENDBRANCH   1  12
BRANCH   5  21
ATOM     21  O   UNL     1      10.298  14.595  18.198  0.00  0.00    +0.000 OA
ATOM     22  H   UNL     1       9.443  15.032  18.052  0.00  0.00    +0.000 HD
ENDBRANCH   5  21
TORSDOF 3
ENDMDL
MODEL 6
REMARK VINA RESULT:      -7.4      6.479      8.702
REMARK  Name = 
REMARK  3 active torsions:
REMARK  status: ('A' for Active; 'I' for Inactive)
REMARK    1  A    between atoms: C_2  and  C_10
REMARK    2  A    between atoms: N_3  and  C_4
REMARK    3  A    between atoms: C_14  and  O_15
REMARK                            x       y       z     vdW  Elec       q    Type
REMARK                         _______ _______ _______ _____ _____    ______ ____
ROOT
ATOM      1  C   UNL     1       8.479   9.081  18.389  0.00  0.00    +0.000 A 
ATOM      2  C   UNL     1       8.305  10.189  17.578  0.00  0.00    +0.000 A 
ATOM      3  C   UNL     1       9.051  11.264  18.124  0.00  0.00    +0.000 A 
ATOM      4  C   UNL     1       9.256  12.599  17.731  0.00  0.00    +0.000 A 
ATOM      5  C   UNL     1      10.121  13.389  18.488  0.00  0.00    +0.000 A 
ATOM      6  C   UNL     1      10.772  12.887  19.608  0.00  0.00    +0.000 A 
ATOM      7  C   UNL     1      10.553  11.571  20.034  0.00  0.00    +0.000 A 
ATOM      8  C   UNL     1       9.678  10.785  19.275  0.00  0.00    +0.000 A 
ATOM      9  N   UNL     1       9.251   9.489  19.454  0.00  0.00    +0.000 N 
ATOM     10  H   UNL     1       9.505   8.892  20.231  0.00  0.00    +0.000 HD
ENDROOT
BRANCH   1  12
ATOM     11  O   UNL     1       8.377   6.822  18.966  0.00  0.00    +0.000 OA
ATOM     12  C   UNL     1       7.970   7.733  18.254  0.00  0.00    +0.000 C 
ATOM     13  N   UNL     1       7.083   7.609  17.202  0.00  0.00    +0.000 N 
ATOM     14  H   UNL     1       7.062   8.380  16.550  0.00  0.00    +0.000 HD
BRANCH  13  15
ATOM     15  C   UNL     1       6.349   6.466  16.843  0.00  0.00    +0.000 A 
ATOM     16  C   UNL     1       5.050   6.219  17.290  0.00  0.00    +0.000 A 
ATOM     17  C   UNL     1       4.375   5.064  16.888  0.00  0.00    +0.000 A 
ATOM     18  C   UNL     1       4.997   4.144  16.045  0.00  0.00    +0.000 A 
ATOM     19  C   UNL     1       6.289   4.389  15.585  0.00  0.00    +0.000 A 
ATOM     20  C   UNL     1       6.957   5.554  15.970  0.00  0.00    +0.000 A 
ENDBRANCH  13  15
ENDBRANCH   1  12
BRANCH   5  21
ATOM     21  O   UNL     1      10.358  14.690  18.146  0.00  0.00    +0.000 OA
ATOM     22  H   UNL     1      11.317  14.813  18.056  0.00  0.00    +0.000 HD
ENDBRANCH   5  21
TORSDOF 3
ENDMDL
MODEL 7
REMARK VINA RESULT:      -7.4      1.069      1.588
REMARK  Name = 
REMARK  3 active torsions:
REMARK  status: ('A' for Active; 'I' for Inactive)
REMARK    1  A    between atoms: C_2  and  C_10
REMARK    2  A    between atoms: N_3  and  C_4
REMARK    3  A    between atoms: C_14  and  O_15
REMARK                            x       y       z     vdW  Elec       q    Type
REMARK                         _______ _______ _______ _____ _____    ______ ____
ROOT
ATOM      1  C   UNL     1       4.277   4.430  17.488  0.00  0.00    +0.000 A 
ATOM      2  C   UNL     1       3.090   4.761  18.117  0.00  0.00    +0.000 A 
ATOM      3  C   UNL     1       2.944   3.935  19.260  0.00  0.00    +0.000 A 
ATOM      4  C   UNL     1       1.962   3.832  20.263  0.00  0.00    +0.000 A 
ATOM      5  C   UNL     1       2.167   2.925  21.303  0.00  0.00    +0.000 A 
ATOM      6  C   UNL     1       3.307   2.133  21.363  0.00  0.00    +0.000 A 
ATOM      7  C   UNL     1       4.277   2.197  20.356  0.00  0.00    +0.000 A 
ATOM      8  C   UNL     1       4.063   3.103  19.310  0.00  0.00    +0.000 A 
ATOM      9  N   UNL     1       4.811   3.369  18.185  0.00  0.00    +0.000 N 
ATOM     10  H   UNL     1       5.664   2.891  17.924  0.00  0.00    +0.000 HD
ENDROOT
BRANCH   1  12
ATOM     11  O   UNL     1       4.900   6.207  16.109  0.00  0.00    +0.000 OA
ATOM     12  C   UNL     1       4.904   4.999  16.314  0.00  0.00    +0.000 C 
ATOM     13  N   UNL     1       5.395   4.031  15.461  0.00  0.00    +0.000 N 
ATOM     14  H   UNL     1       5.082   3.087  15.637  0.00  0.00    +0.000 HD
BRANCH  13  15
ATOM     15  C   UNL     1       6.127   4.236  14.278  0.00  0.00    +0.000 A 
ATOM     16  C   UNL     1       7.226   5.092  14.198  0.00  0.00    +0.000 A 
ATOM     17  C   UNL     1       7.913   5.243  12.990  0.00  0.00    +0.000 A 
ATOM     18  C   UNL     1       7.500   4.548  11.855  0.00  0.00    +0.000 A 
ATOM     19  C   UNL     1       6.411   3.683  11.931  0.00  0.00    +0.000 A 
ATOM     20  C   UNL     1       5.736   3.515  13.143  0.00  0.00    +0.000 A 
ENDBRANCH  13  15
ENDBRANCH   1  12
BRANCH   5  21
ATOM     21  O   UNL     1       1.247   2.792  22.303  0.00  0.00    +0.000 OA
ATOM     22  H   UNL     1       1.537   3.325  23.060  0.00  0.00    +0.000 HD
ENDBRANCH   5  21
TORSDOF 3
ENDMDL
MODEL 8
REMARK VINA RESULT:      -7.2      4.453      8.264
REMARK  Name = 
REMARK  3 active torsions:
REMARK  status: ('A' for Active; 'I' for Inactive)
REMARK    1  A    between atoms: C_2  and  C_10
REMARK    2  A    between atoms: N_3  and  C_4
REMARK    3  A    between atoms: C_14  and  O_15
REMARK                            x       y       z     vdW  Elec       q    Type
REMARK                         _______ _______ _______ _____ _____    ______ ____
ROOT
ATOM      1  C   UNL     1       3.036   6.368  18.818  0.00  0.00    +0.000 A 
ATOM      2  C   UNL     1       3.707   7.102  17.856  0.00  0.00    +0.000 A 
ATOM      3  C   UNL     1       4.456   6.205  17.052  0.00  0.00    +0.000 A 
ATOM      4  C   UNL     1       5.302   6.376  15.941  0.00  0.00    +0.000 A 
ATOM      5  C   UNL     1       5.846   5.241  15.340  0.00  0.00    +0.000 A 
ATOM      6  C   UNL     1       5.572   3.964  15.815  0.00  0.00    +0.000 A 
ATOM      7  C   UNL     1       4.761   3.778  16.941  0.00  0.00    +0.000 A 
ATOM      8  C   UNL     1       4.223   4.921  17.545  0.00  0.00    +0.000 A 
ATOM      9  N   UNL     1       3.427   5.057  18.659  0.00  0.00    +0.000 N 
ATOM     10  H   UNL     1       3.122   4.298  19.256  0.00  0.00    +0.000 HD
ENDROOT
BRANCH   1  12
ATOM     11  O   UNL     1       1.597   5.995  20.617  0.00  0.00    +0.000 OA
ATOM     12  C   UNL     1       2.115   6.797  19.849  0.00  0.00    +0.000 C 
ATOM     13  N   UNL     1       1.846   8.150  19.784  0.00  0.00    +0.000 N 
ATOM     14  H   UNL     1       2.136   8.617  18.936  0.00  0.00    +0.000 HD
BRANCH  13  15
ATOM     15  C   UNL     1       1.063   8.903  20.675  0.00  0.00    +0.000 A 
ATOM     16  C   UNL     1       1.137   8.765  22.062  0.00  0.00    +0.000 A 
ATOM     17  C   UNL     1       0.332   9.552  22.891  0.00  0.00    +0.000 A 
ATOM     18  C   UNL     1      -0.557  10.472  22.339  0.00  0.00    +0.000 A 
ATOM     19  C   UNL     1      -0.627  10.623  20.956  0.00  0.00    +0.000 A 
ATOM     20  C   UNL     1       0.191   9.852  20.127  0.00  0.00    +0.000 A 
ENDBRANCH  13  15
ENDBRANCH   1  12
BRANCH   5  21
ATOM     21  O   UNL     1       6.669   5.352  14.255  0.00  0.00    +0.000 OA
ATOM     22  H   UNL     1       7.554   5.600  14.566  0.00  0.00    +0.000 HD
ENDBRANCH   5  21
TORSDOF 3
ENDMDL
MODEL 9
REMARK VINA RESULT:      -7.2      1.060      1.937
REMARK  Name = 
REMARK  3 active torsions:
REMARK  status: ('A' for Active; 'I' for Inactive)
REMARK    1  A    between atoms: C_2  and  C_10
REMARK    2  A    between atoms: N_3  and  C_4
REMARK    3  A    between atoms: C_14  and  O_15
REMARK                            x       y       z     vdW  Elec       q    Type
REMARK                         _______ _______ _______ _____ _____    ______ ____
ROOT
ATOM      1  C   UNL     1       4.226   4.373  17.469  0.00  0.00    +0.000 A 
ATOM      2  C   UNL     1       3.018   4.678  18.072  0.00  0.00    +0.000 A 
ATOM      3  C   UNL     1       2.887   3.880  19.237  0.00  0.00    +0.000 A 
ATOM      4  C   UNL     1       1.895   3.770  20.229  0.00  0.00    +0.000 A 
ATOM      5  C   UNL     1       2.118   2.903  21.298  0.00  0.00    +0.000 A 
ATOM      6  C   UNL     1       3.285   2.156  21.397  0.00  0.00    +0.000 A 
ATOM      7  C   UNL     1       4.267   2.226  20.401  0.00  0.00    +0.000 A 
ATOM      8  C   UNL     1       4.035   3.093  19.327  0.00  0.00    +0.000 A 
ATOM      9  N   UNL     1       4.788   3.354  18.205  0.00  0.00    +0.000 N 
ATOM     10  H   UNL     1       5.662   2.901  17.969  0.00  0.00    +0.000 HD
ENDROOT
BRANCH   1  12
ATOM     11  O   UNL     1       4.856   6.138  16.078  0.00  0.00    +0.000 OA
ATOM     12  C   UNL     1       4.848   4.930  16.287  0.00  0.00    +0.000 C 
ATOM     13  N   UNL     1       5.320   3.953  15.432  0.00  0.00    +0.000 N 
ATOM     14  H   UNL     1       4.998   3.014  15.615  0.00  0.00    +0.000 HD
BRANCH  13  15
ATOM     15  C   UNL     1       6.043   4.146  14.242  0.00  0.00    +0.000 A 
ATOM     16  C   UNL     1       5.704   3.534  13.035  0.00  0.00    +0.000 A 
ATOM     17  C   UNL     1       6.464   3.775  11.887  0.00  0.00    +0.000 A 
ATOM     18  C   UNL     1       7.571   4.620  11.942  0.00  0.00    +0.000 A 
ATOM     19  C   UNL     1       7.907   5.244  13.141  0.00  0.00    +0.000 A 
ATOM     20  C   UNL     1       7.136   5.020  14.284  0.00  0.00    +0.000 A 
ENDBRANCH  13  15
ENDBRANCH   1  12
BRANCH   5  21
ATOM     21  O   UNL     1       1.189   2.764  22.290  0.00  0.00    +0.000 OA
ATOM     22  H   UNL     1       0.943   1.827  22.350  0.00  0.00    +0.000 HD
ENDBRANCH   5  21
TORSDOF 3
ENDMDL
