MODEL 1
REMARK VINA RESULT:      -7.5      0.000      0.000
REMARK  Name = 
REMARK  6 active torsions:
REMARK  status: ('A' for Active; 'I' for Inactive)
REMARK    1  A    between atoms: C_1  and  O_2
REMARK    2  A    between atoms: O_2  and  C_3
REMARK    3  A    between atoms: C_6  and  S_7
REMARK    4  A    between atoms: S_7  and  N_10
REMARK    5  A    between atoms: C_23  and  O_24
REMARK    6  A    between atoms: O_24  and  C_25
REMARK                            x       y       z     vdW  Elec       q    Type
REMARK                         _______ _______ _______ _____ _____    ______ ____
ROOT
ATOM      1  S   UNL     1       4.617   4.170  19.203  0.00  0.00    +0.000 S 
ATOM      2  O   UNL     1       4.799   2.788  19.602  0.00  0.00    +0.000 OA
ATOM      3  O   UNL     1       4.996   5.243  20.095  0.00  0.00    +0.000 OA
ENDROOT
BRANCH   1   4
ATOM      4  N   UNL     1       2.987   4.395  18.789  0.00  0.00    +0.000 NA
ATOM      5  C   UNL     1       1.981   4.435  19.899  0.00  0.00    +0.000 C 
ATOM      6  C   UNL     1       1.924   5.797  20.621  0.00  0.00    +0.000 C 
ATOM      7  N   UNL     1       1.706   6.877  19.652  0.00  0.00    +0.000 N 
ATOM      8  C   UNL     1       1.440   8.131  20.201  0.00  0.00    +0.000 A 
ATOM      9  N   UNL     1       1.208   8.244  21.522  0.00  0.00    +0.000 NA
ATOM     10  C   UNL     1       0.884   9.461  22.004  0.00  0.00    +0.000 A 
ATOM     11  C   UNL     1       0.756  10.578  21.221  0.00  0.00    +0.000 A 
ATOM     12  C   UNL     1       1.002  10.377  19.890  0.00  0.00    +0.000 A 
ATOM     13  N   UNL     1       1.350   9.185  19.366  0.00  0.00    +0.000 NA
ATOM     14  C   UNL     1       2.641   6.908  18.518  0.00  0.00    +0.000 C 
ATOM     15  C   UNL     1       2.730   5.528  17.832  0.00  0.00    +0.000 C 
ENDBRANCH   1   4
BRANCH   1  19
ATOM     16  C   UNL     1       6.698   5.013  15.199  0.00  0.00    +0.000 A 
ATOM     17  C   UNL     1       5.854   3.897  15.349  0.00  0.00    +0.000 A 
ATOM     18  C   UNL     1       5.242   3.612  16.577  0.00  0.00    +0.000 A 
ATOM     19  C   UNL     1       5.500   4.426  17.678  0.00  0.00    +0.000 A 
ATOM     20  C   UNL     1       6.362   5.517  17.550  0.00  0.00    +0.000 A 
ATOM     21  C   UNL     1       6.979   5.811  16.323  0.00  0.00    +0.000 A 
BRANCH  16  23
ATOM     22  C   UNL     1       7.077   4.402  12.929  0.00  0.00    +0.000 C 
ATOM     23  O   UNL     1       7.280   5.322  13.999  0.00  0.00    +0.000 OA
ENDBRANCH  16  23
BRANCH  21  24
ATOM     24  O   UNL     1       7.816   6.892  16.426  0.00  0.00    +0.000 OA
ATOM     25  C   UNL     1       7.713   7.760  17.542  0.00  0.00    +0.000 C 
ENDBRANCH  21  24
ENDBRANCH   1  19
TORSDOF 4
ENDMDL
MODEL 2
REMARK VINA RESULT:      -6.8      3.527      6.126
REMARK  Name = 
REMARK  6 active torsions:
REMARK  status: ('A' for Active; 'I' for Inactive)
REMARK    1  A    between atoms: C_1  and  O_2
REMARK    2  A    between atoms: O_2  and  C_3
REMARK    3  A    between atoms: C_6  and  S_7
REMARK    4  A    between atoms: S_7  and  N_10
REMARK    5  A    between atoms: C_23  and  O_24
REMARK    6  A    between atoms: O_24  and  C_25
REMARK                            x       y       z     vdW  Elec       q    Type
REMARK                         _______ _______ _______ _____ _____    ______ ____
ROOT
ATOM      1  S   UNL     1       1.392   2.881  19.505  0.00  0.00    +0.000 S 
ATOM      2  O   UNL     1       0.948   2.703  20.875  0.00  0.00    +0.000 OA
ATOM      3  O   UNL     1       0.542   2.482  18.406  0.00  0.00    +0.000 OA
ENDROOT
BRANCH   1   4
ATOM      4  N   UNL     1       2.881   2.090  19.320  0.00  0.00    +0.000 NA
ATOM      5  C   UNL     1       3.501   2.072  17.956  0.00  0.00    +0.000 C 
ATOM      6  C   UNL     1       4.221   3.387  17.595  0.00  0.00    +0.000 C 
ATOM      7  N   UNL     1       5.202   3.729  18.631  0.00  0.00    +0.000 N 
ATOM      8  C   UNL     1       6.054   4.789  18.323  0.00  0.00    +0.000 A 
ATOM      9  N   UNL     1       6.069   5.291  17.074  0.00  0.00    +0.000 NA
ATOM     10  C   UNL     1       6.957   6.267  16.797  0.00  0.00    +0.000 A 
ATOM     11  C   UNL     1       7.856   6.757  17.708  0.00  0.00    +0.000 A 
ATOM     12  C   UNL     1       7.780   6.190  18.951  0.00  0.00    +0.000 A 
ATOM     13  N   UNL     1       6.896   5.228  19.281  0.00  0.00    +0.000 NA
ATOM     14  C   UNL     1       4.685   3.759  20.007  0.00  0.00    +0.000 C 
ATOM     15  C   UNL     1       3.922   2.459  20.343  0.00  0.00    +0.000 C 
ENDBRANCH   1   4
BRANCH   1  19
ATOM     16  C   UNL     1       2.104   7.372  18.877  0.00  0.00    +0.000 A 
ATOM     17  C   UNL     1       2.186   6.474  17.797  0.00  0.00    +0.000 A 
ATOM     18  C   UNL     1       2.006   5.097  17.985  0.00  0.00    +0.000 A 
ATOM     19  C   UNL     1       1.773   4.604  19.267  0.00  0.00    +0.000 A 
ATOM     20  C   UNL     1       1.722   5.482  20.352  0.00  0.00    +0.000 A 
ATOM     21  C   UNL     1       1.901   6.863  20.173  0.00  0.00    +0.000 A 
BRANCH  16  23
ATOM     22  C   UNL     1       1.300   9.370  17.860  0.00  0.00    +0.000 C 
ATOM     23  O   UNL     1       2.249   8.723  18.706  0.00  0.00    +0.000 OA
ENDBRANCH  16  23
BRANCH  21  24
ATOM     24  O   UNL     1       1.857   7.537  21.367  0.00  0.00    +0.000 OA
ATOM     25  C   UNL     1       0.820   8.474  21.608  0.00  0.00    +0.000 C 
ENDBRANCH  21  24
ENDBRANCH   1  19
TORSDOF 4
ENDMDL
MODEL 3
REMARK VINA RESULT:      -6.5      3.388      6.414
REMARK  Name = 
REMARK  6 active torsions:
REMARK  status: ('A' for Active; 'I' for Inactive)
REMARK    1  A    between atoms: C_1  and  O_2
REMARK    2  A    between atoms: O_2  and  C_3
REMARK    3  A    between atoms: C_6  and  S_7
REMARK    4  A    between atoms: S_7  and  N_10
REMARK    5  A    between atoms: C_23  and  O_24
REMARK    6  A    between atoms: O_24  and  C_25
REMARK                            x       y       z     vdW  Elec       q    Type
REMARK                         _______ _______ _______ _____ _____    ______ ____
ROOT
ATOM      1  S   UNL     1       1.417   3.105  19.948  0.00  0.00    +0.000 S 
ATOM      2  O   UNL     1       1.004   3.110  21.339  0.00  0.00    +0.000 OA
ATOM      3  O   UNL     1       0.532   2.588  18.927  0.00  0.00    +0.000 OA
ENDROOT
BRANCH   1   4
ATOM      4  N   UNL     1       2.886   2.265  19.831  0.00  0.00    +0.000 NA
ATOM      5  C   UNL     1       3.192   1.563  18.543  0.00  0.00    +0.000 C 
ATOM      6  C   UNL     1       3.712   2.509  17.442  0.00  0.00    +0.000 C 
ATOM      7  N   UNL     1       4.867   3.272  17.932  0.00  0.00    +0.000 N 
ATOM      8  C   UNL     1       5.547   4.015  16.967  0.00  0.00    +0.000 A 
ATOM      9  N   UNL     1       5.250   3.848  15.665  0.00  0.00    +0.000 NA
ATOM     10  C   UNL     1       5.978   4.532  14.759  0.00  0.00    +0.000 A 
ATOM     11  C   UNL     1       7.014   5.366  15.092  0.00  0.00    +0.000 A 
ATOM     12  C   UNL     1       7.255   5.475  16.434  0.00  0.00    +0.000 A 
ATOM     13  N   UNL     1       6.542   4.829  17.376  0.00  0.00    +0.000 NA
ATOM     14  C   UNL     1       4.662   3.984  19.201  0.00  0.00    +0.000 C 
ATOM     15  C   UNL     1       4.093   3.042  20.283  0.00  0.00    +0.000 C 
ENDBRANCH   1   4
BRANCH   1  19
ATOM     16  C   UNL     1       2.196   7.464  18.738  0.00  0.00    +0.000 A 
ATOM     17  C   UNL     1       2.257   6.431  17.783  0.00  0.00    +0.000 A 
ATOM     18  C   UNL     1       2.056   5.094  18.150  0.00  0.00    +0.000 A 
ATOM     19  C   UNL     1       1.824   4.776  19.486  0.00  0.00    +0.000 A 
ATOM     20  C   UNL     1       1.794   5.788  20.447  0.00  0.00    +0.000 A 
ATOM     21  C   UNL     1       1.994   7.131  20.090  0.00  0.00    +0.000 A 
BRANCH  16  23
ATOM     22  C   UNL     1       1.194   9.486  17.977  0.00  0.00    +0.000 C 
ATOM     23  O   UNL     1       2.361   8.778  18.392  0.00  0.00    +0.000 OA
ENDBRANCH  16  23
BRANCH  21  24
ATOM     24  O   UNL     1       1.968   7.954  21.186  0.00  0.00    +0.000 OA
ATOM     25  C   UNL     1       0.753   8.575  21.571  0.00  0.00    +0.000 C 
ENDBRANCH  21  24
ENDBRANCH   1  19
TORSDOF 4
ENDMDL
MODEL 4
REMARK VINA RESULT:      -6.5      1.562      2.130
REMARK  Name = 
REMARK  6 active torsions:
REMARK  status: ('A' for Active; 'I' for Inactive)
REMARK    1  A    between atoms: C_1  and  O_2
REMARK    2  A    between atoms: O_2  and  C_3
REMARK    3  A    between atoms: C_6  and  S_7
REMARK    4  A    between atoms: S_7  and  N_10
REMARK    5  A    between atoms: C_23  and  O_24
REMARK    6  A    between atoms: O_24  and  C_25
REMARK                            x       y       z     vdW  Elec       q    Type
REMARK                         _______ _______ _______ _____ _____    ______ ____
ROOT
ATOM      1  S   UNL     1       3.157   3.482  17.976  0.00  0.00    +0.000 S 
ATOM      2  O   UNL     1       2.013   4.229  17.488  0.00  0.00    +0.000 OA
ATOM      3  O   UNL     1       3.101   2.040  18.069  0.00  0.00    +0.000 OA
ENDROOT
BRANCH   1   4
ATOM      4  N   UNL     1       3.573   4.083  19.507  0.00  0.00    +0.000 NA
ATOM      5  C   UNL     1       4.243   5.421  19.577  0.00  0.00    +0.000 C 
ATOM      6  C   UNL     1       3.261   6.602  19.445  0.00  0.00    +0.000 C 
ATOM      7  N   UNL     1       2.185   6.482  20.437  0.00  0.00    +0.000 N 
ATOM      8  C   UNL     1       1.346   7.590  20.549  0.00  0.00    +0.000 A 
ATOM      9  N   UNL     1       1.667   8.735  19.919  0.00  0.00    +0.000 NA
ATOM     10  C   UNL     1       0.868   9.805  20.109  0.00  0.00    +0.000 A 
ATOM     11  C   UNL     1      -0.233   9.794  20.924  0.00  0.00    +0.000 A 
ATOM     12  C   UNL     1      -0.486   8.595  21.531  0.00  0.00    +0.000 A 
ATOM     13  N   UNL     1       0.270   7.494  21.355  0.00  0.00    +0.000 NA
ATOM     14  C   UNL     1       1.478   5.193  20.450  0.00  0.00    +0.000 C 
ATOM     15  C   UNL     1       2.472   4.014  20.531  0.00  0.00    +0.000 C 
ENDBRANCH   1   4
BRANCH   1  19
ATOM     16  C   UNL     1       6.715   4.779  15.382  0.00  0.00    +0.000 A 
ATOM     17  C   UNL     1       5.472   4.476  14.796  0.00  0.00    +0.000 A 
ATOM     18  C   UNL     1       4.391   4.045  15.576  0.00  0.00    +0.000 A 
ATOM     19  C   UNL     1       4.556   3.882  16.949  0.00  0.00    +0.000 A 
ATOM     20  C   UNL     1       5.795   4.147  17.537  0.00  0.00    +0.000 A 
ATOM     21  C   UNL     1       6.884   4.580  16.765  0.00  0.00    +0.000 A 
BRANCH  16  23
ATOM     22  C   UNL     1       7.651   5.133  13.221  0.00  0.00    +0.000 C 
ATOM     23  O   UNL     1       7.774   5.229  14.639  0.00  0.00    +0.000 OA
ENDBRANCH  16  23
BRANCH  21  24
ATOM     24  O   UNL     1       8.012   4.741  17.527  0.00  0.00    +0.000 OA
ATOM     25  C   UNL     1       7.948   5.492  18.729  0.00  0.00    +0.000 C 
ENDBRANCH  21  24
ENDBRANCH   1  19
TORSDOF 4
ENDMDL
MODEL 5
REMARK VINA RESULT:      -6.3      3.084      7.236
REMARK  Name = 
REMARK  6 active torsions:
REMARK  status: ('A' for Active; 'I' for Inactive)
REMARK    1  A    between atoms: C_1  and  O_2
REMARK    2  A    between atoms: O_2  and  C_3
REMARK    3  A    between atoms: C_6  and  S_7
REMARK    4  A    between atoms: S_7  and  N_10
REMARK    5  A    between atoms: C_23  and  O_24
REMARK    6  A    between atoms: O_24  and  C_25
REMARK                            x       y       z     vdW  Elec       q    Type
REMARK                         _______ _______ _______ _____ _____    ______ ____
ROOT
ATOM      1  S   UNL     1       1.978   4.814  19.429  0.00  0.00    +0.000 S 
ATOM      2  O   UNL     1       1.225   4.276  20.547  0.00  0.00    +0.000 OA
ATOM      3  O   UNL     1       1.650   4.426  18.075  0.00  0.00    +0.000 OA
ENDROOT
BRANCH   1   4
ATOM      4  N   UNL     1       3.621   4.476  19.680  0.00  0.00    +0.000 NA
ATOM      5  C   UNL     1       4.170   3.205  19.109  0.00  0.00    +0.000 C 
ATOM      6  C   UNL     1       4.480   3.298  17.601  0.00  0.00    +0.000 C 
ATOM      7  N   UNL     1       5.364   4.439  17.334  0.00  0.00    +0.000 N 
ATOM      8  C   UNL     1       5.874   4.512  16.038  0.00  0.00    +0.000 A 
ATOM      9  N   UNL     1       5.703   3.476  15.195  0.00  0.00    +0.000 NA
ATOM     10  C   UNL     1       6.271   3.555  13.975  0.00  0.00    +0.000 A 
ATOM     11  C   UNL     1       7.030   4.617  13.559  0.00  0.00    +0.000 A 
ATOM     12  C   UNL     1       7.161   5.624  14.476  0.00  0.00    +0.000 A 
ATOM     13  N   UNL     1       6.594   5.600  15.698  0.00  0.00    +0.000 NA
ATOM     14  C   UNL     1       4.910   5.730  17.871  0.00  0.00    +0.000 C 
ATOM     15  C   UNL     1       4.554   5.615  19.369  0.00  0.00    +0.000 C 
ENDBRANCH   1   4
BRANCH   1  19
ATOM     16  C   UNL     1       1.443   9.371  19.578  0.00  0.00    +0.000 A 
ATOM     17  C   UNL     1       1.821   8.731  18.384  0.00  0.00    +0.000 A 
ATOM     18  C   UNL     1       2.022   7.345  18.337  0.00  0.00    +0.000 A 
ATOM     19  C   UNL     1       1.876   6.591  19.500  0.00  0.00    +0.000 A 
ATOM     20  C   UNL     1       1.534   7.219  20.698  0.00  0.00    +0.000 A 
ATOM     21  C   UNL     1       1.330   8.607  20.755  0.00  0.00    +0.000 A 
BRANCH  16  23
ATOM     22  C   UNL     1      -0.046  11.180  19.150  0.00  0.00    +0.000 C 
ATOM     23  O   UNL     1       1.215  10.720  19.634  0.00  0.00    +0.000 OA
ENDBRANCH  16  23
BRANCH  21  24
ATOM     24  O   UNL     1       1.045   9.025  22.029  0.00  0.00    +0.000 OA
ATOM     25  C   UNL     1      -0.305   9.159  22.441  0.00  0.00    +0.000 C 
ENDBRANCH  21  24
ENDBRANCH   1  19
TORSDOF 4
ENDMDL
MODEL 6
REMARK VINA RESULT:      -6.3      3.932      6.470
REMARK  Name = 
REMARK  6 active torsions:
REMARK  status: ('A' for Active; 'I' for Inactive)
REMARK    1  A    between atoms: C_1  and  O_2
REMARK    2  A    between atoms: O_2  and  C_3
REMARK    3  A    between atoms: C_6  and  S_7
REMARK    4  A    between atoms: S_7  and  N_10
REMARK    5  A    between atoms: C_23  and  O_24
REMARK    6  A    between atoms: O_24  and  C_25
REMARK                            x       y       z     vdW  Elec       q    Type
REMARK                         _______ _______ _______ _____ _____    ______ ____
ROOT
ATOM      1  S   UNL     1       0.873   9.037  21.168  0.00  0.00    +0.000 S 
ATOM      2  O   UNL     1      -0.516   8.712  21.434  0.00  0.00    +0.000 OA
ATOM      3  O   UNL     1       1.761   9.387  22.254  0.00  0.00    +0.000 OA
ENDROOT
BRANCH   1   4
ATOM      4  N   UNL     1       0.917  10.302  20.038  0.00  0.00    +0.000 NA
ATOM      5  C   UNL     1      -0.166  10.358  19.005  0.00  0.00    +0.000 C 
ATOM      6  C   UNL     1      -1.485  10.957  19.536  0.00  0.00    +0.000 C 
ATOM      7  N   UNL     1      -1.238  12.274  20.135  0.00  0.00    +0.000 N 
ATOM      8  C   UNL     1      -2.379  13.002  20.473  0.00  0.00    +0.000 A 
ATOM      9  N   UNL     1      -3.589  12.570  20.068  0.00  0.00    +0.000 NA
ATOM     10  C   UNL     1      -4.660  13.338  20.353  0.00  0.00    +0.000 A 
ATOM     11  C   UNL     1      -4.580  14.540  21.008  0.00  0.00    +0.000 A 
ATOM     12  C   UNL     1      -3.316  14.908  21.378  0.00  0.00    +0.000 A 
ATOM     13  N   UNL     1      -2.219  14.165  21.135  0.00  0.00    +0.000 NA
ATOM     14  C   UNL     1      -0.179  12.318  21.153  0.00  0.00    +0.000 C 
ATOM     15  C   UNL     1       1.122  11.670  20.631  0.00  0.00    +0.000 C 
ENDBRANCH   1   4
BRANCH   1  19
ATOM     16  C   UNL     1       3.004   5.524  19.121  0.00  0.00    +0.000 A 
ATOM     17  C   UNL     1       2.946   6.787  18.504  0.00  0.00    +0.000 A 
ATOM     18  C   UNL     1       2.267   7.856  19.104  0.00  0.00    +0.000 A 
ATOM     19  C   UNL     1       1.610   7.658  20.317  0.00  0.00    +0.000 A 
ATOM     20  C   UNL     1       1.632   6.400  20.923  0.00  0.00    +0.000 A 
ATOM     21  C   UNL     1       2.310   5.324  20.329  0.00  0.00    +0.000 A 
BRANCH  16  23
ATOM     22  C   UNL     1       3.159   3.937  17.352  0.00  0.00    +0.000 C 
ATOM     23  O   UNL     1       3.687   4.477  18.563  0.00  0.00    +0.000 OA
ENDBRANCH  16  23
BRANCH  21  24
ATOM     24  O   UNL     1       2.171   4.173  21.062  0.00  0.00    +0.000 OA
ATOM     25  C   UNL     1       1.193   3.216  20.692  0.00  0.00    +0.000 C 
ENDBRANCH  21  24
ENDBRANCH   1  19
TORSDOF 4
ENDMDL
MODEL 7
REMARK VINA RESULT:      -6.2      1.193      2.375
REMARK  Name = 
REMARK  6 active torsions:
REMARK  status: ('A' for Active; 'I' for Inactive)
REMARK    1  A    between atoms: C_1  and  O_2
REMARK    2  A    between atoms: O_2  and  C_3
REMARK    3  A    between atoms: C_6  and  S_7
REMARK    4  A    between atoms: S_7  and  N_10
REMARK    5  A    between atoms: C_23  and  O_24
REMARK    6  A    between atoms: O_24  and  C_25
REMARK                            x       y       z     vdW  Elec       q    Type
REMARK                         _______ _______ _______ _____ _____    ______ ____
ROOT
ATOM      1  S   UNL     1       3.687   2.747  19.005  0.00  0.00    +0.000 S 
ATOM      2  O   UNL     1       3.910   1.534  18.241  0.00  0.00    +0.000 OA
ATOM      3  O   UNL     1       3.876   2.751  20.439  0.00  0.00    +0.000 OA
ENDROOT
BRANCH   1   4
ATOM      4  N   UNL     1       2.112   3.294  18.690  0.00  0.00    +0.000 NA
ATOM      5  C   UNL     1       1.214   3.557  19.860  0.00  0.00    +0.000 C 
ATOM      6  C   UNL     1       1.485   4.912  20.544  0.00  0.00    +0.000 C 
ATOM      7  N   UNL     1       1.425   5.999  19.559  0.00  0.00    +0.000 N 
ATOM      8  C   UNL     1       1.457   7.289  20.087  0.00  0.00    +0.000 A 
ATOM      9  N   UNL     1       1.344   7.468  21.417  0.00  0.00    +0.000 NA
ATOM     10  C   UNL     1       1.308   8.733  21.882  0.00  0.00    +0.000 A 
ATOM     11  C   UNL     1       1.356   9.840  21.076  0.00  0.00    +0.000 A 
ATOM     12  C   UNL     1       1.464   9.572  19.739  0.00  0.00    +0.000 A 
ATOM     13  N   UNL     1       1.525   8.326  19.228  0.00  0.00    +0.000 NA
ATOM     14  C   UNL     1       2.266   5.820  18.367  0.00  0.00    +0.000 C 
ATOM     15  C   UNL     1       2.026   4.440  17.718  0.00  0.00    +0.000 C 
ENDBRANCH   1   4
BRANCH   1  19
ATOM     16  C   UNL     1       6.598   5.840  17.263  0.00  0.00    +0.000 A 
ATOM     17  C   UNL     1       6.416   5.728  18.654  0.00  0.00    +0.000 A 
ATOM     18  C   UNL     1       5.504   4.812  19.194  0.00  0.00    +0.000 A 
ATOM     19  C   UNL     1       4.739   4.021  18.339  0.00  0.00    +0.000 A 
ATOM     20  C   UNL     1       4.886   4.146  16.957  0.00  0.00    +0.000 A 
ATOM     21  C   UNL     1       5.798   5.061  16.407  0.00  0.00    +0.000 A 
BRANCH  16  23
ATOM     22  C   UNL     1       7.769   7.905  17.453  0.00  0.00    +0.000 C 
ATOM     23  O   UNL     1       7.506   6.710  16.720  0.00  0.00    +0.000 OA
ENDBRANCH  16  23
BRANCH  21  24
ATOM     24  O   UNL     1       5.754   5.056  15.036  0.00  0.00    +0.000 OA
ATOM     25  C   UNL     1       6.455   4.058  14.313  0.00  0.00    +0.000 C 
ENDBRANCH  21  24
ENDBRANCH   1  19
TORSDOF 4
ENDMDL
MODEL 8
REMARK VINA RESULT:      -6.0      4.480      7.071
REMARK  Name = 
REMARK  6 active torsions:
REMARK  status: ('A' for Active; 'I' for Inactive)
REMARK    1  A    between atoms: C_1  and  O_2
REMARK    2  A    between atoms: O_2  and  C_3
REMARK    3  A    between atoms: C_6  and  S_7
REMARK    4  A    between atoms: S_7  and  N_10
REMARK    5  A    between atoms: C_23  and  O_24
REMARK    6  A    between atoms: O_24  and  C_25
REMARK                            x       y       z     vdW  Elec       q    Type
REMARK                         _______ _______ _______ _____ _____    ______ ____
ROOT
ATOM      1  S   UNL     1       1.093  10.098  18.340  0.00  0.00    +0.000 S 
ATOM      2  O   UNL     1       2.146  10.748  17.582  0.00  0.00    +0.000 OA
ATOM      3  O   UNL     1      -0.174   9.793  17.713  0.00  0.00    +0.000 OA
ENDROOT
BRANCH   1   4
ATOM      4  N   UNL     1       0.774  11.033  19.719  0.00  0.00    +0.000 NA
ATOM      5  C   UNL     1       1.853  11.949  20.211  0.00  0.00    +0.000 C 
ATOM      6  C   UNL     1       1.946  13.265  19.413  0.00  0.00    +0.000 C 
ATOM      7  N   UNL     1       0.640  13.933  19.382  0.00  0.00    +0.000 N 
ATOM      8  C   UNL     1       0.640  15.227  18.860  0.00  0.00    +0.000 A 
ATOM      9  N   UNL     1       1.810  15.844  18.609  0.00  0.00    +0.000 NA
ATOM     10  C   UNL     1       1.770  17.118  18.172  0.00  0.00    +0.000 A 
ATOM     11  C   UNL     1       0.608  17.824  17.994  0.00  0.00    +0.000 A 
ATOM     12  C   UNL     1      -0.535  17.127  18.278  0.00  0.00    +0.000 A 
ATOM     13  N   UNL     1      -0.546  15.847  18.696  0.00  0.00    +0.000 NA
ATOM     14  C   UNL     1      -0.485  13.105  18.924  0.00  0.00    +0.000 C 
ATOM     15  C   UNL     1      -0.540  11.767  19.693  0.00  0.00    +0.000 C 
ENDBRANCH   1   4
BRANCH   1  19
ATOM     16  C   UNL     1       2.540   6.023  19.879  0.00  0.00    +0.000 A 
ATOM     17  C   UNL     1       1.804   6.885  20.712  0.00  0.00    +0.000 A 
ATOM     18  C   UNL     1       1.389   8.146  20.263  0.00  0.00    +0.000 A 
ATOM     19  C   UNL     1       1.738   8.568  18.982  0.00  0.00    +0.000 A 
ATOM     20  C   UNL     1       2.496   7.735  18.158  0.00  0.00    +0.000 A 
ATOM     21  C   UNL     1       2.916   6.470  18.599  0.00  0.00    +0.000 A 
BRANCH  16  23
ATOM     22  C   UNL     1       2.114   4.141  21.275  0.00  0.00    +0.000 C 
ATOM     23  O   UNL     1       2.929   4.777  20.292  0.00  0.00    +0.000 OA
ENDBRANCH  16  23
BRANCH  21  24
ATOM     24  O   UNL     1       3.682   5.835  17.655  0.00  0.00    +0.000 OA
ATOM     25  C   UNL     1       4.667   6.563  16.941  0.00  0.00    +0.000 C 
ENDBRANCH  21  24
ENDBRANCH   1  19
TORSDOF 4
ENDMDL
MODEL 9
REMARK VINA RESULT:      -6.0      5.639     10.576
REMARK  Name = 
REMARK  6 active torsions:
REMARK  status: ('A' for Active; 'I' for Inactive)
REMARK    1  A    between atoms: C_1  and  O_2
REMARK    2  A    between atoms: O_2  and  C_3
REMARK    3  A    between atoms: C_6  and  S_7
REMARK    4  A    between atoms: S_7  and  N_10
REMARK    5  A    between atoms: C_23  and  O_24
REMARK    6  A    between atoms: O_24  and  C_25
REMARK                            x       y       z     vdW  Elec       q    Type
REMARK                         _______ _______ _______ _____ _____    ______ ____
ROOT
ATOM      1  S   UNL     1       0.269  12.111  20.710  0.00  0.00    +0.000 S 
ATOM      2  O   UNL     1       0.409  13.083  19.642  0.00  0.00    +0.000 OA
ATOM      3  O   UNL     1       1.429  11.674  21.455  0.00  0.00    +0.000 OA
ENDROOT
BRANCH   1   4
ATOM      4  N   UNL     1      -0.490  10.731  20.080  0.00  0.00    +0.000 NA
ATOM      5  C   UNL     1      -0.289  10.423  18.628  0.00  0.00    +0.000 C 
ATOM      6  C   UNL     1       1.063   9.743  18.330  0.00  0.00    +0.000 C 
ATOM      7  N   UNL     1       1.225   8.548  19.166  0.00  0.00    +0.000 N 
ATOM      8  C   UNL     1       2.316   7.738  18.849  0.00  0.00    +0.000 A 
ATOM      9  N   UNL     1       3.014   7.972  17.723  0.00  0.00    +0.000 NA
ATOM     10  C   UNL     1       4.018   7.126  17.415  0.00  0.00    +0.000 A 
ATOM     11  C   UNL     1       4.346   6.031  18.172  0.00  0.00    +0.000 A 
ATOM     12  C   UNL     1       3.584   5.861  19.296  0.00  0.00    +0.000 A 
ATOM     13  N   UNL     1       2.587   6.692  19.656  0.00  0.00    +0.000 NA
ATOM     14  C   UNL     1       1.033   8.754  20.608  0.00  0.00    +0.000 C 
ATOM     15  C   UNL     1      -0.299   9.480  20.894  0.00  0.00    +0.000 C 
ENDBRANCH   1   4
BRANCH   1  19
ATOM     16  C   UNL     1      -2.823  13.944  23.565  0.00  0.00    +0.000 A 
ATOM     17  C   UNL     1      -1.483  14.372  23.588  0.00  0.00    +0.000 A 
ATOM     18  C   UNL     1      -0.524  13.793  22.746  0.00  0.00    +0.000 A 
ATOM     19  C   UNL     1      -0.896  12.755  21.894  0.00  0.00    +0.000 A 
ATOM     20  C   UNL     1      -2.215  12.300  21.886  0.00  0.00    +0.000 A 
ATOM     21  C   UNL     1      -3.183  12.874  22.726  0.00  0.00    +0.000 A 
BRANCH  16  23
ATOM     22  C   UNL     1      -4.230  15.819  23.988  0.00  0.00    +0.000 C 
ATOM     23  O   UNL     1      -3.778  14.518  24.361  0.00  0.00    +0.000 OA
ENDBRANCH  16  23
BRANCH  21  24
ATOM     24  O   UNL     1      -4.399  12.254  22.593  0.00  0.00    +0.000 OA
ATOM     25  C   UNL     1      -5.339  12.743  21.650  0.00  0.00    +0.000 C 
ENDBRANCH  21  24
ENDBRANCH   1  19
TORSDOF 4
ENDMDL
