MODEL 1
REMARK VINA RESULT:      -7.5      0.000      0.000
REMARK  Name = 
REMARK  1 active torsions:
REMARK  status: ('A' for Active; 'I' for Inactive)
REMARK    1  A    between atoms: N_1  and  C_2
REMARK                            x       y       z     vdW  Elec       q    Type
REMARK                         _______ _______ _______ _____ _____    ______ ____
ROOT
ATOM      1  C   UNL     1       7.228   5.373  18.884  0.00  0.00    +0.000 A 
ATOM      2  C   UNL     1       7.364   4.595  17.731  0.00  0.00    +0.000 A 
ATOM      3  C   UNL     1       6.243   4.208  16.989  0.00  0.00    +0.000 A 
ATOM      4  C   UNL     1       4.954   4.534  17.424  0.00  0.00    +0.000 A 
ATOM      5  C   UNL     1       4.820   5.261  18.614  0.00  0.00    +0.000 A 
ATOM      6  C   UNL     1       5.945   5.676  19.337  0.00  0.00    +0.000 A 
ATOM      7  O   UNL     1       3.593   5.630  19.120  0.00  0.00    +0.000 OA
ATOM      8  C   UNL     1       2.796   4.569  19.491  0.00  0.00    +0.000 A 
ATOM      9  C   UNL     1       2.431   4.504  20.839  0.00  0.00    +0.000 A 
ATOM     10  C   UNL     1       1.625   3.462  21.290  0.00  0.00    +0.000 A 
ATOM     11  C   UNL     1       1.168   2.500  20.391  0.00  0.00    +0.000 A 
ATOM     12  C   UNL     1       1.504   2.586  19.038  0.00  0.00    +0.000 A 
ATOM     13  C   UNL     1       2.328   3.620  18.570  0.00  0.00    +0.000 A 
ATOM     14  C   UNL     1       2.634   3.690  17.135  0.00  0.00    +0.000 C 
ATOM     15  C   UNL     1       3.802   4.103  16.622  0.00  0.00    +0.000 C 
ENDROOT
BRANCH   1  16
ATOM     16  N   UNL     1       8.341   5.635  19.692  0.00  0.00    +0.000 N 
ATOM     17  H   UNL     1       8.234   6.445  20.294  0.00  0.00    +0.000 HD
ATOM     18  H   UNL     1       8.685   4.822  20.194  0.00  0.00    +0.000 HD
ENDBRANCH   1  16
TORSDOF 1
ENDMDL
MODEL 2
REMARK VINA RESULT:      -7.4      2.291      2.989
REMARK  Name = 
REMARK  1 active torsions:
REMARK  status: ('A' for Active; 'I' for Inactive)
REMARK    1  A    between atoms: N_1  and  C_2
REMARK                            x       y       z     vdW  Elec       q    Type
REMARK                         _______ _______ _______ _____ _____    ______ ____
ROOT
ATOM      1  C   UNL     1       5.911   4.310  15.108  0.00  0.00    +0.000 A 
ATOM      2  C   UNL     1       5.537   5.651  14.999  0.00  0.00    +0.000 A 
ATOM      3  C   UNL     1       4.982   6.334  16.088  0.00  0.00    +0.000 A 
ATOM      4  C   UNL     1       4.725   5.666  17.290  0.00  0.00    +0.000 A 
ATOM      5  C   UNL     1       5.045   4.305  17.374  0.00  0.00    +0.000 A 
ATOM      6  C   UNL     1       5.630   3.633  16.294  0.00  0.00    +0.000 A 
ATOM      7  O   UNL     1       4.830   3.565  18.516  0.00  0.00    +0.000 OA
ATOM      8  C   UNL     1       3.503   3.439  18.863  0.00  0.00    +0.000 A 
ATOM      9  C   UNL     1       2.986   2.140  18.893  0.00  0.00    +0.000 A 
ATOM     10  C   UNL     1       1.653   1.932  19.238  0.00  0.00    +0.000 A 
ATOM     11  C   UNL     1       0.845   3.018  19.572  0.00  0.00    +0.000 A 
ATOM     12  C   UNL     1       1.373   4.311  19.576  0.00  0.00    +0.000 A 
ATOM     13  C   UNL     1       2.709   4.540  19.216  0.00  0.00    +0.000 A 
ATOM     14  C   UNL     1       3.231   5.912  19.262  0.00  0.00    +0.000 C 
ATOM     15  C   UNL     1       4.135   6.414  18.407  0.00  0.00    +0.000 C 
ENDROOT
BRANCH   1  16
ATOM     16  N   UNL     1       6.333   3.602  13.976  0.00  0.00    +0.000 N 
ATOM     17  H   UNL     1       5.978   3.972  13.100  0.00  0.00    +0.000 HD
ATOM     18  H   UNL     1       7.333   3.430  13.947  0.00  0.00    +0.000 HD
ENDBRANCH   1  16
TORSDOF 1
ENDMDL
MODEL 3
REMARK VINA RESULT:      -7.2      1.509      1.669
REMARK  Name = 
REMARK  1 active torsions:
REMARK  status: ('A' for Active; 'I' for Inactive)
REMARK    1  A    between atoms: N_1  and  C_2
REMARK                            x       y       z     vdW  Elec       q    Type
REMARK                         _______ _______ _______ _____ _____    ______ ____
ROOT
ATOM      1  C   UNL     1       6.633   6.533  16.937  0.00  0.00    +0.000 A 
ATOM      2  C   UNL     1       6.995   5.246  16.531  0.00  0.00    +0.000 A 
ATOM      3  C   UNL     1       6.034   4.238  16.395  0.00  0.00    +0.000 A 
ATOM      4  C   UNL     1       4.698   4.479  16.731  0.00  0.00    +0.000 A 
ATOM      5  C   UNL     1       4.351   5.753  17.199  0.00  0.00    +0.000 A 
ATOM      6  C   UNL     1       5.308   6.769  17.302  0.00  0.00    +0.000 A 
ATOM      7  O   UNL     1       3.061   6.084  17.553  0.00  0.00    +0.000 OA
ATOM      8  C   UNL     1       2.577   5.380  18.633  0.00  0.00    +0.000 A 
ATOM      9  C   UNL     1       2.220   6.131  19.758  0.00  0.00    +0.000 A 
ATOM     10  C   UNL     1       1.719   5.491  20.889  0.00  0.00    +0.000 A 
ATOM     11  C   UNL     1       1.556   4.107  20.887  0.00  0.00    +0.000 A 
ATOM     12  C   UNL     1       1.880   3.362  19.750  0.00  0.00    +0.000 A 
ATOM     13  C   UNL     1       2.399   3.989  18.608  0.00  0.00    +0.000 A 
ATOM     14  C   UNL     1       2.699   3.173  17.425  0.00  0.00    +0.000 C 
ATOM     15  C   UNL     1       3.720   3.393  16.583  0.00  0.00    +0.000 C 
ENDROOT
BRANCH   1  16
ATOM     16  N   UNL     1       7.619   7.490  17.204  0.00  0.00    +0.000 N 
ATOM     17  H   UNL     1       8.557   7.110  17.275  0.00  0.00    +0.000 HD
ATOM     18  H   UNL     1       7.575   8.306  16.600  0.00  0.00    +0.000 HD
ENDBRANCH   1  16
TORSDOF 1
ENDMDL
MODEL 4
REMARK VINA RESULT:      -7.2      2.278      5.016
REMARK  Name = 
REMARK  1 active torsions:
REMARK  status: ('A' for Active; 'I' for Inactive)
REMARK    1  A    between atoms: N_1  and  C_2
REMARK                            x       y       z     vdW  Elec       q    Type
REMARK                         _______ _______ _______ _____ _____    ______ ____
ROOT
ATOM      1  C   UNL     1       2.188   3.807  19.910  0.00  0.00    +0.000 A 
ATOM      2  C   UNL     1       1.537   3.911  18.678  0.00  0.00    +0.000 A 
ATOM      3  C   UNL     1       2.257   3.881  17.479  0.00  0.00    +0.000 A 
ATOM      4  C   UNL     1       3.655   3.816  17.489  0.00  0.00    +0.000 A 
ATOM      5  C   UNL     1       4.307   3.776  18.728  0.00  0.00    +0.000 A 
ATOM      6  C   UNL     1       3.582   3.772  19.926  0.00  0.00    +0.000 A 
ATOM      7  O   UNL     1       5.679   3.710  18.839  0.00  0.00    +0.000 OA
ATOM      8  C   UNL     1       6.336   4.817  18.348  0.00  0.00    +0.000 A 
ATOM      9  C   UNL     1       7.104   5.543  19.264  0.00  0.00    +0.000 A 
ATOM     10  C   UNL     1       7.800   6.674  18.843  0.00  0.00    +0.000 A 
ATOM     11  C   UNL     1       7.745   7.064  17.506  0.00  0.00    +0.000 A 
ATOM     12  C   UNL     1       7.006   6.316  16.586  0.00  0.00    +0.000 A 
ATOM     13  C   UNL     1       6.287   5.185  16.996  0.00  0.00    +0.000 A 
ATOM     14  C   UNL     1       5.546   4.412  15.990  0.00  0.00    +0.000 C 
ATOM     15  C   UNL     1       4.375   3.795  16.210  0.00  0.00    +0.000 C 
ENDROOT
BRANCH   1  16
ATOM     16  N   UNL     1       1.474   3.979  21.101  0.00  0.00    +0.000 N 
ATOM     17  H   UNL     1       1.485   3.168  21.711  0.00  0.00    +0.000 HD
ATOM     18  H   UNL     1       1.697   4.838  21.595  0.00  0.00    +0.000 HD
ENDBRANCH   1  16
TORSDOF 1
ENDMDL
MODEL 5
REMARK VINA RESULT:      -7.1      2.346      5.158
REMARK  Name = 
REMARK  1 active torsions:
REMARK  status: ('A' for Active; 'I' for Inactive)
REMARK    1  A    between atoms: N_1  and  C_2
REMARK                            x       y       z     vdW  Elec       q    Type
REMARK                         _______ _______ _______ _____ _____    ______ ____
ROOT
ATOM      1  C   UNL     1       2.374   3.524  20.876  0.00  0.00    +0.000 A 
ATOM      2  C   UNL     1       1.839   4.769  21.214  0.00  0.00    +0.000 A 
ATOM      3  C   UNL     1       1.913   5.848  20.325  0.00  0.00    +0.000 A 
ATOM      4  C   UNL     1       2.589   5.722  19.107  0.00  0.00    +0.000 A 
ATOM      5  C   UNL     1       3.178   4.488  18.801  0.00  0.00    +0.000 A 
ATOM      6  C   UNL     1       3.073   3.401  19.676  0.00  0.00    +0.000 A 
ATOM      7  O   UNL     1       3.862   4.268  17.625  0.00  0.00    +0.000 OA
ATOM      8  C   UNL     1       5.002   5.029  17.486  0.00  0.00    +0.000 A 
ATOM      9  C   UNL     1       6.209   4.331  17.378  0.00  0.00    +0.000 A 
ATOM     10  C   UNL     1       7.404   5.030  17.233  0.00  0.00    +0.000 A 
ATOM     11  C   UNL     1       7.390   6.422  17.175  0.00  0.00    +0.000 A 
ATOM     12  C   UNL     1       6.180   7.117  17.248  0.00  0.00    +0.000 A 
ATOM     13  C   UNL     1       4.969   6.429  17.410  0.00  0.00    +0.000 A 
ATOM     14  C   UNL     1       3.717   7.196  17.454  0.00  0.00    +0.000 C 
ATOM     15  C   UNL     1       2.652   6.879  18.205  0.00  0.00    +0.000 C 
ENDROOT
BRANCH   1  16
ATOM     16  N   UNL     1       2.418   2.496  21.825  0.00  0.00    +0.000 N 
ATOM     17  H   UNL     1       2.923   2.735  22.672  0.00  0.00    +0.000 HD
ATOM     18  H   UNL     1       1.514   2.075  22.019  0.00  0.00    +0.000 HD
ENDBRANCH   1  16
TORSDOF 1
ENDMDL
MODEL 6
REMARK VINA RESULT:      -7.1      4.235      5.458
REMARK  Name = 
REMARK  1 active torsions:
REMARK  status: ('A' for Active; 'I' for Inactive)
REMARK    1  A    between atoms: N_1  and  C_2
REMARK                            x       y       z     vdW  Elec       q    Type
REMARK                         _______ _______ _______ _____ _____    ______ ____
ROOT
ATOM      1  C   UNL     1       1.415   3.899  20.108  0.00  0.00    +0.000 A 
ATOM      2  C   UNL     1       1.707   3.716  18.754  0.00  0.00    +0.000 A 
ATOM      3  C   UNL     1       2.245   4.756  17.987  0.00  0.00    +0.000 A 
ATOM      4  C   UNL     1       2.438   6.025  18.545  0.00  0.00    +0.000 A 
ATOM      5  C   UNL     1       2.085   6.220  19.886  0.00  0.00    +0.000 A 
ATOM      6  C   UNL     1       1.578   5.169  20.660  0.00  0.00    +0.000 A 
ATOM      7  O   UNL     1       2.240   7.432  20.522  0.00  0.00    +0.000 OA
ATOM      8  C   UNL     1       1.460   8.443  20.003  0.00  0.00    +0.000 A 
ATOM      9  C   UNL     1       0.528   9.020  20.871  0.00  0.00    +0.000 A 
ATOM     10  C   UNL     1      -0.296  10.049  20.420  0.00  0.00    +0.000 A 
ATOM     11  C   UNL     1      -0.171  10.513  19.112  0.00  0.00    +0.000 A 
ATOM     12  C   UNL     1       0.785   9.959  18.257  0.00  0.00    +0.000 A 
ATOM     13  C   UNL     1       1.611   8.913  18.691  0.00  0.00    +0.000 A 
ATOM     14  C   UNL     1       2.622   8.379  17.769  0.00  0.00    +0.000 C 
ATOM     15  C   UNL     1       2.997   7.093  17.707  0.00  0.00    +0.000 C 
ENDROOT
BRANCH   1  16
ATOM     16  N   UNL     1       0.749   2.899  20.826  0.00  0.00    +0.000 N 
ATOM     17  H   UNL     1       0.576   2.052  20.294  0.00  0.00    +0.000 HD
ATOM     18  H   UNL     1       1.154   2.707  21.738  0.00  0.00    +0.000 HD
ENDBRANCH   1  16
TORSDOF 1
ENDMDL
MODEL 7
REMARK VINA RESULT:      -7.1      1.444      1.763
REMARK  Name = 
REMARK  1 active torsions:
REMARK  status: ('A' for Active; 'I' for Inactive)
REMARK    1  A    between atoms: N_1  and  C_2
REMARK                            x       y       z     vdW  Elec       q    Type
REMARK                         _______ _______ _______ _____ _____    ______ ____
ROOT
ATOM      1  C   UNL     1       7.284   5.002  17.916  0.00  0.00    +0.000 A 
ATOM      2  C   UNL     1       6.894   5.819  16.853  0.00  0.00    +0.000 A 
ATOM      3  C   UNL     1       5.617   6.389  16.814  0.00  0.00    +0.000 A 
ATOM      4  C   UNL     1       4.676   6.095  17.807  0.00  0.00    +0.000 A 
ATOM      5  C   UNL     1       5.051   5.224  18.838  0.00  0.00    +0.000 A 
ATOM      6  C   UNL     1       6.340   4.682  18.892  0.00  0.00    +0.000 A 
ATOM      7  O   UNL     1       4.194   4.877  19.860  0.00  0.00    +0.000 OA
ATOM      8  C   UNL     1       3.086   4.169  19.448  0.00  0.00    +0.000 A 
ATOM      9  C   UNL     1       2.939   2.880  19.970  0.00  0.00    +0.000 A 
ATOM     10  C   UNL     1       1.843   2.104  19.604  0.00  0.00    +0.000 A 
ATOM     11  C   UNL     1       0.886   2.623  18.734  0.00  0.00    +0.000 A 
ATOM     12  C   UNL     1       1.016   3.924  18.240  0.00  0.00    +0.000 A 
ATOM     13  C   UNL     1       2.121   4.713  18.588  0.00  0.00    +0.000 A 
ATOM     14  C   UNL     1       2.204   6.085  18.070  0.00  0.00    +0.000 C 
ATOM     15  C   UNL     1       3.343   6.705  17.727  0.00  0.00    +0.000 C 
ENDROOT
BRANCH   1  16
ATOM     16  N   UNL     1       8.510   4.327  17.874  0.00  0.00    +0.000 N 
ATOM     17  H   UNL     1       9.284   4.852  18.267  0.00  0.00    +0.000 HD
ATOM     18  H   UNL     1       8.468   3.375  18.225  0.00  0.00    +0.000 HD
ENDBRANCH   1  16
TORSDOF 1
ENDMDL
MODEL 8
REMARK VINA RESULT:      -7.0      1.745      2.172
REMARK  Name = 
REMARK  1 active torsions:
REMARK  status: ('A' for Active; 'I' for Inactive)
REMARK    1  A    between atoms: N_1  and  C_2
REMARK                            x       y       z     vdW  Elec       q    Type
REMARK                         _______ _______ _______ _____ _____    ______ ____
ROOT
ATOM      1  C   UNL     1       6.753   5.113  16.780  0.00  0.00    +0.000 A 
ATOM      2  C   UNL     1       6.011   5.950  15.943  0.00  0.00    +0.000 A 
ATOM      3  C   UNL     1       4.848   6.579  16.403  0.00  0.00    +0.000 A 
ATOM      4  C   UNL     1       4.365   6.327  17.692  0.00  0.00    +0.000 A 
ATOM      5  C   UNL     1       5.079   5.437  18.505  0.00  0.00    +0.000 A 
ATOM      6  C   UNL     1       6.260   4.836  18.054  0.00  0.00    +0.000 A 
ATOM      7  O   UNL     1       4.682   5.128  19.788  0.00  0.00    +0.000 OA
ATOM      8  C   UNL     1       3.472   4.474  19.859  0.00  0.00    +0.000 A 
ATOM      9  C   UNL     1       3.488   3.192  20.418  0.00  0.00    +0.000 A 
ATOM     10  C   UNL     1       2.303   2.468  20.527  0.00  0.00    +0.000 A 
ATOM     11  C   UNL     1       1.103   3.033  20.098  0.00  0.00    +0.000 A 
ATOM     12  C   UNL     1       1.084   4.328  19.572  0.00  0.00    +0.000 A 
ATOM     13  C   UNL     1       2.270   5.064  19.442  0.00  0.00    +0.000 A 
ATOM     14  C   UNL     1       2.201   6.432  18.911  0.00  0.00    +0.000 C 
ATOM     15  C   UNL     1       3.137   6.998  18.135  0.00  0.00    +0.000 C 
ENDROOT
BRANCH   1  16
ATOM     16  N   UNL     1       7.832   4.382  16.268  0.00  0.00    +0.000 N 
ATOM     17  H   UNL     1       7.654   3.961  15.362  0.00  0.00    +0.000 HD
ATOM     18  H   UNL     1       8.717   4.880  16.296  0.00  0.00    +0.000 HD
ENDBRANCH   1  16
TORSDOF 1
ENDMDL
MODEL 9
REMARK VINA RESULT:      -6.9      1.905      2.612
REMARK  Name = 
REMARK  1 active torsions:
REMARK  status: ('A' for Active; 'I' for Inactive)
REMARK    1  A    between atoms: N_1  and  C_2
REMARK                            x       y       z     vdW  Elec       q    Type
REMARK                         _______ _______ _______ _____ _____    ______ ____
ROOT
ATOM      1  C   UNL     1       6.469   5.499  16.175  0.00  0.00    +0.000 A 
ATOM      2  C   UNL     1       5.719   6.654  15.941  0.00  0.00    +0.000 A 
ATOM      3  C   UNL     1       4.676   7.020  16.799  0.00  0.00    +0.000 A 
ATOM      4  C   UNL     1       4.315   6.198  17.872  0.00  0.00    +0.000 A 
ATOM      5  C   UNL     1       5.030   5.009  18.066  0.00  0.00    +0.000 A 
ATOM      6  C   UNL     1       6.095   4.662  17.226  0.00  0.00    +0.000 A 
ATOM      7  O   UNL     1       4.749   4.138  19.096  0.00  0.00    +0.000 OA
ATOM      8  C   UNL     1       3.500   3.562  19.020  0.00  0.00    +0.000 A 
ATOM      9  C   UNL     1       3.460   2.169  18.905  0.00  0.00    +0.000 A 
ATOM     10  C   UNL     1       2.234   1.514  18.826  0.00  0.00    +0.000 A 
ATOM     11  C   UNL     1       1.051   2.248  18.884  0.00  0.00    +0.000 A 
ATOM     12  C   UNL     1       1.092   3.637  19.034  0.00  0.00    +0.000 A 
ATOM     13  C   UNL     1       2.318   4.313  19.099  0.00  0.00    +0.000 A 
ATOM     14  C   UNL     1       2.316   5.770  19.286  0.00  0.00    +0.000 C 
ATOM     15  C   UNL     1       3.209   6.612  18.745  0.00  0.00    +0.000 C 
ENDROOT
BRANCH   1  16
ATOM     16  N   UNL     1       7.415   5.070  15.236  0.00  0.00    +0.000 N 
ATOM     17  H   UNL     1       8.369   5.333  15.460  0.00  0.00    +0.000 HD
ATOM     18  H   UNL     1       7.331   4.089  14.986  0.00  0.00    +0.000 HD
ENDBRANCH   1  16
TORSDOF 1
ENDMDL
