MODEL 1
REMARK VINA RESULT:      -7.4      0.000      0.000
REMARK  Name = 
REMARK  2 active torsions:
REMARK  status: ('A' for Active; 'I' for Inactive)
REMARK    1  A    between atoms: N_2  and  C_4
REMARK    2  A    between atoms: C_12  and  C_13
REMARK                            x       y       z     vdW  Elec       q    Type
REMARK                         _______ _______ _______ _____ _____    ______ ____
ROOT
ATOM      1  C   UNL     1       0.757   9.319  20.826  0.00  0.00    +0.000 A 
ATOM      2  C   UNL     1       0.435  10.604  20.387  0.00  0.00    +0.000 A 
ATOM      3  C   UNL     1       0.902  11.019  19.149  0.00  0.00    +0.000 A 
ATOM      4  N   UNL     1       1.672  10.190  18.347  0.00  0.00    +0.000 N 
ATOM      5  O   UNL     1       2.075  10.630  17.220  0.00  0.00    +0.000 OA
ATOM      6  C   UNL     1       1.983   8.882  18.795  0.00  0.00    +0.000 A 
ATOM      7  C   UNL     1       2.743   8.025  17.979  0.00  0.00    +0.000 A 
ATOM      8  C   UNL     1       3.055   6.727  18.378  0.00  0.00    +0.000 A 
ATOM      9  C   UNL     1       2.653   6.233  19.623  0.00  0.00    +0.000 A 
ATOM     10  C   UNL     1       1.864   7.081  20.428  0.00  0.00    +0.000 A 
ATOM     11  C   UNL     1       1.526   8.414  20.052  0.00  0.00    +0.000 A 
ENDROOT
BRANCH   9  12
ATOM     12  C   UNL     1       2.991   4.818  20.102  0.00  0.00    +0.000 C 
ATOM     13  C   UNL     1       1.922   4.127  20.978  0.00  0.00    +0.000 C 
ATOM     14  C   UNL     1       0.681   3.697  20.190  0.00  0.00    +0.000 C 
ATOM     15  C   UNL     1       1.018   2.857  18.964  0.00  0.00    +0.000 C 
ATOM     16  C   UNL     1       2.143   3.447  18.117  0.00  0.00    +0.000 C 
ATOM     17  C   UNL     1       3.354   3.848  18.957  0.00  0.00    +0.000 C 
ENDBRANCH   9  12
BRANCH   1  19
ATOM     18  O   UNL     1      -0.752   8.239  22.175  0.00  0.00    +0.000 OA
ATOM     19  N   UNL     1       0.265   8.942  22.141  0.00  0.00    +0.000 N 
ATOM     20  O   UNL     1       0.877   9.378  23.124  0.00  0.00    +0.000 OA
ENDBRANCH   1  19
TORSDOF 2
ENDMDL
MODEL 2
REMARK VINA RESULT:      -7.3      4.291      6.009
REMARK  Name = 
REMARK  2 active torsions:
REMARK  status: ('A' for Active; 'I' for Inactive)
REMARK    1  A    between atoms: N_2  and  C_4
REMARK    2  A    between atoms: C_12  and  C_13
REMARK                            x       y       z     vdW  Elec       q    Type
REMARK                         _______ _______ _______ _____ _____    ______ ____
ROOT
ATOM      1  C   UNL     1       3.247   3.260  19.751  0.00  0.00    +0.000 A 
ATOM      2  C   UNL     1       2.234   2.965  20.665  0.00  0.00    +0.000 A 
ATOM      3  C   UNL     1       1.360   3.976  21.035  0.00  0.00    +0.000 A 
ATOM      4  N   UNL     1       1.470   5.258  20.520  0.00  0.00    +0.000 N 
ATOM      5  O   UNL     1       0.638   6.146  20.902  0.00  0.00    +0.000 OA
ATOM      6  C   UNL     1       2.493   5.545  19.582  0.00  0.00    +0.000 A 
ATOM      7  C   UNL     1       2.598   6.836  19.035  0.00  0.00    +0.000 A 
ATOM      8  C   UNL     1       3.581   7.152  18.097  0.00  0.00    +0.000 A 
ATOM      9  C   UNL     1       4.525   6.205  17.688  0.00  0.00    +0.000 A 
ATOM     10  C   UNL     1       4.400   4.902  18.212  0.00  0.00    +0.000 A 
ATOM     11  C   UNL     1       3.408   4.544  19.172  0.00  0.00    +0.000 A 
ENDROOT
BRANCH   9  12
ATOM     12  C   UNL     1       5.628   6.520  16.673  0.00  0.00    +0.000 C 
ATOM     13  C   UNL     1       7.050   6.046  17.049  0.00  0.00    +0.000 C 
ATOM     14  C   UNL     1       7.225   4.527  16.954  0.00  0.00    +0.000 C 
ATOM     15  C   UNL     1       6.794   3.964  15.605  0.00  0.00    +0.000 C 
ATOM     16  C   UNL     1       5.436   4.484  15.140  0.00  0.00    +0.000 C 
ATOM     17  C   UNL     1       5.325   6.003  15.250  0.00  0.00    +0.000 C 
ENDBRANCH   9  12
BRANCH   1  19
ATOM     18  O   UNL     1       3.848   1.476  18.440  0.00  0.00    +0.000 OA
ATOM     19  N   UNL     1       4.152   2.173  19.415  0.00  0.00    +0.000 N 
ATOM     20  O   UNL     1       5.137   2.006  20.146  0.00  0.00    +0.000 OA
ENDBRANCH   1  19
TORSDOF 2
ENDMDL
MODEL 3
REMARK VINA RESULT:      -7.3      4.599      6.622
REMARK  Name = 
REMARK  2 active torsions:
REMARK  status: ('A' for Active; 'I' for Inactive)
REMARK    1  A    between atoms: N_2  and  C_4
REMARK    2  A    between atoms: C_12  and  C_13
REMARK                            x       y       z     vdW  Elec       q    Type
REMARK                         _______ _______ _______ _____ _____    ______ ____
ROOT
ATOM      1  C   UNL     1       3.646   2.505  20.473  0.00  0.00    +0.000 A 
ATOM      2  C   UNL     1       2.565   2.293  21.330  0.00  0.00    +0.000 A 
ATOM      3  C   UNL     1       1.523   3.207  21.322  0.00  0.00    +0.000 A 
ATOM      4  N   UNL     1       1.533   4.315  20.489  0.00  0.00    +0.000 N 
ATOM      5  O   UNL     1       0.547   5.122  20.531  0.00  0.00    +0.000 OA
ATOM      6  C   UNL     1       2.629   4.517  19.613  0.00  0.00    +0.000 A 
ATOM      7  C   UNL     1       2.638   5.624  18.746  0.00  0.00    +0.000 A 
ATOM      8  C   UNL     1       3.690   5.846  17.859  0.00  0.00    +0.000 A 
ATOM      9  C   UNL     1       4.798   4.994  17.819  0.00  0.00    +0.000 A 
ATOM     10  C   UNL     1       4.774   3.866  18.664  0.00  0.00    +0.000 A 
ATOM     11  C   UNL     1       3.716   3.607  19.584  0.00  0.00    +0.000 A 
ENDROOT
BRANCH   9  12
ATOM     12  C   UNL     1       5.979   5.215  16.869  0.00  0.00    +0.000 C 
ATOM     13  C   UNL     1       6.174   6.660  16.356  0.00  0.00    +0.000 C 
ATOM     14  C   UNL     1       6.701   7.616  17.431  0.00  0.00    +0.000 C 
ATOM     15  C   UNL     1       7.959   7.099  18.120  0.00  0.00    +0.000 C 
ATOM     16  C   UNL     1       7.852   5.639  18.556  0.00  0.00    +0.000 C 
ATOM     17  C   UNL     1       7.331   4.736  17.440  0.00  0.00    +0.000 C 
ENDBRANCH   9  12
BRANCH   1  19
ATOM     18  O   UNL     1       5.465   1.585  21.526  0.00  0.00    +0.000 OA
ATOM     19  N   UNL     1       4.725   1.532  20.537  0.00  0.00    +0.000 N 
ATOM     20  O   UNL     1       4.841   0.750  19.585  0.00  0.00    +0.000 OA
ENDBRANCH   1  19
TORSDOF 2
ENDMDL
MODEL 4
REMARK VINA RESULT:      -7.2      1.133      1.518
REMARK  Name = 
REMARK  2 active torsions:
REMARK  status: ('A' for Active; 'I' for Inactive)
REMARK    1  A    between atoms: N_2  and  C_4
REMARK    2  A    between atoms: C_12  and  C_13
REMARK                            x       y       z     vdW  Elec       q    Type
REMARK                         _______ _______ _______ _____ _____    ______ ____
ROOT
ATOM      1  C   UNL     1       0.103   9.845  21.444  0.00  0.00    +0.000 A 
ATOM      2  C   UNL     1      -0.571  11.054  21.266  0.00  0.00    +0.000 A 
ATOM      3  C   UNL     1      -0.496  11.679  20.030  0.00  0.00    +0.000 A 
ATOM      4  N   UNL     1       0.224  11.131  18.980  0.00  0.00    +0.000 N 
ATOM      5  O   UNL     1       0.257  11.755  17.868  0.00  0.00    +0.000 OA
ATOM      6  C   UNL     1       0.894   9.895  19.166  0.00  0.00    +0.000 A 
ATOM      7  C   UNL     1       1.607   9.319  18.100  0.00  0.00    +0.000 A 
ATOM      8  C   UNL     1       2.265   8.098  18.239  0.00  0.00    +0.000 A 
ATOM      9  C   UNL     1       2.271   7.412  19.457  0.00  0.00    +0.000 A 
ATOM     10  C   UNL     1       1.529   7.973  20.517  0.00  0.00    +0.000 A 
ATOM     11  C   UNL     1       0.845   9.220  20.410  0.00  0.00    +0.000 A 
ENDROOT
BRANCH   9  12
ATOM     12  C   UNL     1       2.995   6.076  19.653  0.00  0.00    +0.000 C 
ATOM     13  C   UNL     1       2.384   5.122  20.703  0.00  0.00    +0.000 C 
ATOM     14  C   UNL     1       1.069   4.483  20.246  0.00  0.00    +0.000 C 
ATOM     15  C   UNL     1       1.180   3.807  18.884  0.00  0.00    +0.000 C 
ATOM     16  C   UNL     1       1.871   4.674  17.834  0.00  0.00    +0.000 C 
ATOM     17  C   UNL     1       3.179   5.275  18.345  0.00  0.00    +0.000 C 
ENDBRANCH   9  12
BRANCH   1  19
ATOM     18  O   UNL     1       0.860   9.596  23.595  0.00  0.00    +0.000 OA
ATOM     19  N   UNL     1       0.015   9.243  22.765  0.00  0.00    +0.000 N 
ATOM     20  O   UNL     1      -0.873   8.401  22.948  0.00  0.00    +0.000 OA
ENDBRANCH   1  19
TORSDOF 2
ENDMDL
MODEL 5
REMARK VINA RESULT:      -7.1      4.520      6.311
REMARK  Name = 
REMARK  2 active torsions:
REMARK  status: ('A' for Active; 'I' for Inactive)
REMARK    1  A    between atoms: N_2  and  C_4
REMARK    2  A    between atoms: C_12  and  C_13
REMARK                            x       y       z     vdW  Elec       q    Type
REMARK                         _______ _______ _______ _____ _____    ______ ____
ROOT
ATOM      1  C   UNL     1       3.638   2.764  20.374  0.00  0.00    +0.000 A 
ATOM      2  C   UNL     1       2.499   2.535  21.147  0.00  0.00    +0.000 A 
ATOM      3  C   UNL     1       1.565   3.552  21.270  0.00  0.00    +0.000 A 
ATOM      4  N   UNL     1       1.737   4.777  20.645  0.00  0.00    +0.000 N 
ATOM      5  O   UNL     1       0.844   5.675  20.800  0.00  0.00    +0.000 OA
ATOM      6  C   UNL     1       2.890   4.998  19.850  0.00  0.00    +0.000 A 
ATOM      7  C   UNL     1       3.062   6.228  19.193  0.00  0.00    +0.000 A 
ATOM      8  C   UNL     1       4.174   6.475  18.390  0.00  0.00    +0.000 A 
ATOM      9  C   UNL     1       5.183   5.520  18.232  0.00  0.00    +0.000 A 
ATOM     10  C   UNL     1       4.995   4.275  18.865  0.00  0.00    +0.000 A 
ATOM     11  C   UNL     1       3.871   3.986  19.694  0.00  0.00    +0.000 A 
ENDROOT
BRANCH   9  12
ATOM     12  C   UNL     1       6.426   5.762  17.371  0.00  0.00    +0.000 C 
ATOM     13  C   UNL     1       7.126   4.498  16.822  0.00  0.00    +0.000 C 
ATOM     14  C   UNL     1       6.336   3.807  15.707  0.00  0.00    +0.000 C 
ATOM     15  C   UNL     1       5.947   4.756  14.579  0.00  0.00    +0.000 C 
ATOM     16  C   UNL     1       5.343   6.068  15.076  0.00  0.00    +0.000 C 
ATOM     17  C   UNL     1       6.179   6.713  16.179  0.00  0.00    +0.000 C 
ENDBRANCH   9  12
BRANCH   1  19
ATOM     18  O   UNL     1       4.523   0.934  19.310  0.00  0.00    +0.000 OA
ATOM     19  N   UNL     1       4.599   1.676  20.296  0.00  0.00    +0.000 N 
ATOM     20  O   UNL     1       5.395   1.553  21.236  0.00  0.00    +0.000 OA
ENDBRANCH   1  19
TORSDOF 2
ENDMDL
MODEL 6
REMARK VINA RESULT:      -7.0      4.233      6.009
REMARK  Name = 
REMARK  2 active torsions:
REMARK  status: ('A' for Active; 'I' for Inactive)
REMARK    1  A    between atoms: N_2  and  C_4
REMARK    2  A    between atoms: C_12  and  C_13
REMARK                            x       y       z     vdW  Elec       q    Type
REMARK                         _______ _______ _______ _____ _____    ______ ____
ROOT
ATOM      1  C   UNL     1       2.329   3.301  18.927  0.00  0.00    +0.000 A 
ATOM      2  C   UNL     1       1.391   3.070  19.934  0.00  0.00    +0.000 A 
ATOM      3  C   UNL     1       0.916   4.152  20.660  0.00  0.00    +0.000 A 
ATOM      4  N   UNL     1       1.349   5.444  20.406  0.00  0.00    +0.000 N 
ATOM      5  O   UNL     1       0.879   6.398  21.110  0.00  0.00    +0.000 OA
ATOM      6  C   UNL     1       2.292   5.672  19.372  0.00  0.00    +0.000 A 
ATOM      7  C   UNL     1       2.720   6.981  19.090  0.00  0.00    +0.000 A 
ATOM      8  C   UNL     1       3.633   7.246  18.071  0.00  0.00    +0.000 A 
ATOM      9  C   UNL     1       4.188   6.214  17.308  0.00  0.00    +0.000 A 
ATOM     10  C   UNL     1       3.736   4.905  17.569  0.00  0.00    +0.000 A 
ATOM     11  C   UNL     1       2.803   4.597  18.603  0.00  0.00    +0.000 A 
ENDROOT
BRANCH   9  12
ATOM     12  C   UNL     1       5.206   6.465  16.191  0.00  0.00    +0.000 C 
ATOM     13  C   UNL     1       6.616   6.904  16.645  0.00  0.00    +0.000 C 
ATOM     14  C   UNL     1       7.421   5.773  17.293  0.00  0.00    +0.000 C 
ATOM     15  C   UNL     1       7.485   4.520  16.428  0.00  0.00    +0.000 C 
ATOM     16  C   UNL     1       6.127   4.102  15.869  0.00  0.00    +0.000 C 
ATOM     17  C   UNL     1       5.377   5.269  15.229  0.00  0.00    +0.000 C 
ENDBRANCH   9  12
BRANCH   1  19
ATOM     18  O   UNL     1       2.282   1.883  17.124  0.00  0.00    +0.000 OA
ATOM     19  N   UNL     1       2.814   2.131  18.213  0.00  0.00    +0.000 N 
ATOM     20  O   UNL     1       3.693   1.454  18.760  0.00  0.00    +0.000 OA
ENDBRANCH   1  19
TORSDOF 2
ENDMDL
MODEL 7
REMARK VINA RESULT:      -7.0      4.875      6.107
REMARK  Name = 
REMARK  2 active torsions:
REMARK  status: ('A' for Active; 'I' for Inactive)
REMARK    1  A    between atoms: N_2  and  C_4
REMARK    2  A    between atoms: C_12  and  C_13
REMARK                            x       y       z     vdW  Elec       q    Type
REMARK                         _______ _______ _______ _____ _____    ______ ____
ROOT
ATOM      1  C   UNL     1       6.819   5.164  17.943  0.00  0.00    +0.000 A 
ATOM      2  C   UNL     1       7.649   4.937  16.844  0.00  0.00    +0.000 A 
ATOM      3  C   UNL     1       7.091   4.409  15.690  0.00  0.00    +0.000 A 
ATOM      4  N   UNL     1       5.741   4.107  15.606  0.00  0.00    +0.000 N 
ATOM      5  O   UNL     1       5.289   3.619  14.518  0.00  0.00    +0.000 OA
ATOM      6  C   UNL     1       4.902   4.353  16.722  0.00  0.00    +0.000 A 
ATOM      7  C   UNL     1       3.527   4.073  16.639  0.00  0.00    +0.000 A 
ATOM      8  C   UNL     1       2.668   4.318  17.710  0.00  0.00    +0.000 A 
ATOM      9  C   UNL     1       3.146   4.820  18.923  0.00  0.00    +0.000 A 
ATOM     10  C   UNL     1       4.519   5.131  18.996  0.00  0.00    +0.000 A 
ATOM     11  C   UNL     1       5.427   4.894  17.922  0.00  0.00    +0.000 A 
ENDROOT
BRANCH   9  12
ATOM     12  C   UNL     1       2.236   5.086  20.126  0.00  0.00    +0.000 C 
ATOM     13  C   UNL     1       0.773   4.610  19.986  0.00  0.00    +0.000 C 
ATOM     14  C   UNL     1       0.624   3.086  20.054  0.00  0.00    +0.000 C 
ATOM     15  C   UNL     1       1.287   2.481  21.286  0.00  0.00    +0.000 C 
ATOM     16  C   UNL     1       2.703   2.999  21.527  0.00  0.00    +0.000 C 
ATOM     17  C   UNL     1       2.785   4.523  21.455  0.00  0.00    +0.000 C 
ENDBRANCH   9  12
BRANCH   1  19
ATOM     18  O   UNL     1       8.123   6.728  19.000  0.00  0.00    +0.000 OA
ATOM     19  N   UNL     1       7.455   5.696  19.137  0.00  0.00    +0.000 N 
ATOM     20  O   UNL     1       7.311   5.060  20.189  0.00  0.00    +0.000 OA
ENDBRANCH   1  19
TORSDOF 2
ENDMDL
MODEL 8
REMARK VINA RESULT:      -6.9      3.578      5.715
REMARK  Name = 
REMARK  2 active torsions:
REMARK  status: ('A' for Active; 'I' for Inactive)
REMARK    1  A    between atoms: N_2  and  C_4
REMARK    2  A    between atoms: C_12  and  C_13
REMARK                            x       y       z     vdW  Elec       q    Type
REMARK                         _______ _______ _______ _____ _____    ______ ____
ROOT
ATOM      1  C   UNL     1       2.031   5.532  19.694  0.00  0.00    +0.000 A 
ATOM      2  C   UNL     1       1.143   4.970  20.612  0.00  0.00    +0.000 A 
ATOM      3  C   UNL     1       0.952   3.597  20.595  0.00  0.00    +0.000 A 
ATOM      4  N   UNL     1       1.619   2.781  19.695  0.00  0.00    +0.000 N 
ATOM      5  O   UNL     1       1.398   1.525  19.725  0.00  0.00    +0.000 OA
ATOM      6  C   UNL     1       2.529   3.358  18.774  0.00  0.00    +0.000 A 
ATOM      7  C   UNL     1       3.229   2.536  17.873  0.00  0.00    +0.000 A 
ATOM      8  C   UNL     1       4.145   3.066  16.965  0.00  0.00    +0.000 A 
ATOM      9  C   UNL     1       4.379   4.442  16.889  0.00  0.00    +0.000 A 
ATOM     10  C   UNL     1       3.702   5.263  17.814  0.00  0.00    +0.000 A 
ATOM     11  C   UNL     1       2.759   4.756  18.757  0.00  0.00    +0.000 A 
ENDROOT
BRANCH   9  12
ATOM     12  C   UNL     1       5.365   5.061  15.894  0.00  0.00    +0.000 C 
ATOM     13  C   UNL     1       5.437   6.605  15.883  0.00  0.00    +0.000 C 
ATOM     14  C   UNL     1       6.129   7.186  17.120  0.00  0.00    +0.000 C 
ATOM     15  C   UNL     1       7.500   6.571  17.376  0.00  0.00    +0.000 C 
ATOM     16  C   UNL     1       7.503   5.046  17.296  0.00  0.00    +0.000 C 
ATOM     17  C   UNL     1       6.807   4.529  16.038  0.00  0.00    +0.000 C 
ENDBRANCH   9  12
BRANCH   1  19
ATOM     18  O   UNL     1       1.883   7.537  20.799  0.00  0.00    +0.000 OA
ATOM     19  N   UNL     1       2.178   6.978  19.736  0.00  0.00    +0.000 N 
ATOM     20  O   UNL     1       2.551   7.542  18.700  0.00  0.00    +0.000 OA
ENDBRANCH   1  19
TORSDOF 2
ENDMDL
MODEL 9
REMARK VINA RESULT:      -6.8      5.059      5.691
REMARK  Name = 
REMARK  2 active torsions:
REMARK  status: ('A' for Active; 'I' for Inactive)
REMARK    1  A    between atoms: N_2  and  C_4
REMARK    2  A    between atoms: C_12  and  C_13
REMARK                            x       y       z     vdW  Elec       q    Type
REMARK                         _______ _______ _______ _____ _____    ______ ____
ROOT
ATOM      1  C   UNL     1       7.092   5.694  18.380  0.00  0.00    +0.000 A 
ATOM      2  C   UNL     1       7.575   6.763  17.625  0.00  0.00    +0.000 A 
ATOM      3  C   UNL     1       6.801   7.240  16.578  0.00  0.00    +0.000 A 
ATOM      4  N   UNL     1       5.570   6.682  16.271  0.00  0.00    +0.000 N 
ATOM      5  O   UNL     1       4.907   7.162  15.293  0.00  0.00    +0.000 OA
ATOM      6  C   UNL     1       5.080   5.604  17.051  0.00  0.00    +0.000 A 
ATOM      7  C   UNL     1       3.822   5.048  16.763  0.00  0.00    +0.000 A 
ATOM      8  C   UNL     1       3.300   3.998  17.519  0.00  0.00    +0.000 A 
ATOM      9  C   UNL     1       4.023   3.433  18.573  0.00  0.00    +0.000 A 
ATOM     10  C   UNL     1       5.270   4.012  18.883  0.00  0.00    +0.000 A 
ATOM     11  C   UNL     1       5.835   5.086  18.133  0.00  0.00    +0.000 A 
ENDROOT
BRANCH   9  12
ATOM     12  C   UNL     1       3.489   2.270  19.415  0.00  0.00    +0.000 C 
ATOM     13  C   UNL     1       3.461   2.496  20.943  0.00  0.00    +0.000 C 
ATOM     14  C   UNL     1       2.375   3.479  21.389  0.00  0.00    +0.000 C 
ATOM     15  C   UNL     1       0.992   3.115  20.859  0.00  0.00    +0.000 C 
ATOM     16  C   UNL     1       0.984   2.782  19.369  0.00  0.00    +0.000 C 
ATOM     17  C   UNL     1       2.083   1.792  18.989  0.00  0.00    +0.000 C 
ENDBRANCH   9  12
BRANCH   1  19
ATOM     18  O   UNL     1       8.910   4.506  19.120  0.00  0.00    +0.000 OA
ATOM     19  N   UNL     1       7.952   5.215  19.450  0.00  0.00    +0.000 N 
ATOM     20  O   UNL     1       7.642   5.521  20.609  0.00  0.00    +0.000 OA
ENDBRANCH   1  19
TORSDOF 2
ENDMDL
