MODEL 1
REMARK VINA RESULT:      -7.2      0.000      0.000
REMARK  Name = 
REMARK  3 active torsions:
REMARK  status: ('A' for Active; 'I' for Inactive)
REMARK    1  A    between atoms: N_7  and  C_8
REMARK    2  A    between atoms: C_8  and  C_9
REMARK    3  A    between atoms: C_11  and  C_12
REMARK                            x       y       z     vdW  Elec       q    Type
REMARK                         _______ _______ _______ _____ _____    ______ ____
ROOT
ATOM      1  C   UNL     1       5.477   5.686  17.256  0.00  0.00    +0.000 A 
ATOM      2  N   UNL     1       5.357   4.916  16.195  0.00  0.00    +0.000 NA
ATOM      3  C   UNL     1       6.523   5.173  15.518  0.00  0.00    +0.000 A 
ATOM      4  N   UNL     1       7.319   6.084  16.093  0.00  0.00    +0.000 NA
ATOM      5  O   UNL     1       6.622   6.430  17.254  0.00  0.00    +0.000 OA
ENDROOT
BRANCH   3   6
ATOM      6  C   UNL     1       6.952   4.377  14.346  0.00  0.00    +0.000 C 
ATOM      7  C   UNL     1       5.787   3.741  13.613  0.00  0.00    +0.000 C 
ATOM      8  C   UNL     1       6.355   3.495  12.236  0.00  0.00    +0.000 C 
ATOM      9  O   UNL     1       7.348   4.501  12.002  0.00  0.00    +0.000 OA
ATOM     10  C   UNL     1       7.613   5.182  13.242  0.00  0.00    +0.000 C 
ENDBRANCH   3   6
BRANCH   1  11
ATOM     11  C   UNL     1       4.661   5.713  18.495  0.00  0.00    +0.000 C 
BRANCH  11  18
ATOM     12  O   UNL     1       5.080   3.185  19.589  0.00  0.00    +0.000 OA
ATOM     13  C   UNL     1       4.000   3.427  19.060  0.00  0.00    +0.000 A 
ATOM     14  C   UNL     1       2.978   2.353  18.937  0.00  0.00    +0.000 A 
ATOM     15  C   UNL     1       1.790   2.610  18.379  0.00  0.00    +0.000 A 
ATOM     16  C   UNL     1       1.475   3.935  17.906  0.00  0.00    +0.000 A 
ATOM     17  C   UNL     1       2.395   4.903  17.974  0.00  0.00    +0.000 A 
ATOM     18  N   UNL     1       3.648   4.663  18.514  0.00  0.00    +0.000 N 
ENDBRANCH  11  18
ENDBRANCH   1  11
TORSDOF 3
ENDMDL
MODEL 2
REMARK VINA RESULT:      -7.1      2.566      6.641
REMARK  Name = 
REMARK  3 active torsions:
REMARK  status: ('A' for Active; 'I' for Inactive)
REMARK    1  A    between atoms: N_7  and  C_8
REMARK    2  A    between atoms: C_8  and  C_9
REMARK    3  A    between atoms: C_11  and  C_12
REMARK                            x       y       z     vdW  Elec       q    Type
REMARK                         _______ _______ _______ _____ _____    ______ ____
ROOT
ATOM      1  C   UNL     1       3.924   4.131  17.138  0.00  0.00    +0.000 A 
ATOM      2  N   UNL     1       3.591   4.491  18.360  0.00  0.00    +0.000 NA
ATOM      3  C   UNL     1       2.393   3.845  18.535  0.00  0.00    +0.000 A 
ATOM      4  N   UNL     1       1.968   3.149  17.473  0.00  0.00    +0.000 NA
ATOM      5  O   UNL     1       2.988   3.340  16.537  0.00  0.00    +0.000 OA
ENDROOT
BRANCH   3   6
ATOM      6  C   UNL     1       1.714   3.772  19.850  0.00  0.00    +0.000 C 
ATOM      7  C   UNL     1       1.473   2.345  20.304  0.00  0.00    +0.000 C 
ATOM      8  C   UNL     1       1.325   2.493  21.798  0.00  0.00    +0.000 C 
ATOM      9  O   UNL     1       2.111   3.625  22.191  0.00  0.00    +0.000 OA
ATOM     10  C   UNL     1       2.515   4.337  21.008  0.00  0.00    +0.000 C 
ENDBRANCH   3   6
BRANCH   1  11
ATOM     11  C   UNL     1       5.213   4.307  16.426  0.00  0.00    +0.000 C 
BRANCH  11  18
ATOM     12  O   UNL     1       5.378   7.016  15.794  0.00  0.00    +0.000 OA
ATOM     13  C   UNL     1       6.113   6.568  16.668  0.00  0.00    +0.000 A 
ATOM     14  C   UNL     1       7.127   7.450  17.306  0.00  0.00    +0.000 A 
ATOM     15  C   UNL     1       7.921   6.978  18.274  0.00  0.00    +0.000 A 
ATOM     16  C   UNL     1       7.794   5.615  18.725  0.00  0.00    +0.000 A 
ATOM     17  C   UNL     1       6.914   4.798  18.135  0.00  0.00    +0.000 A 
ATOM     18  N   UNL     1       6.100   5.243  17.107  0.00  0.00    +0.000 N 
ENDBRANCH  11  18
ENDBRANCH   1  11
TORSDOF 3
ENDMDL
MODEL 3
REMARK VINA RESULT:      -7.0      1.741      2.050
REMARK  Name = 
REMARK  3 active torsions:
REMARK  status: ('A' for Active; 'I' for Inactive)
REMARK    1  A    between atoms: N_7  and  C_8
REMARK    2  A    between atoms: C_8  and  C_9
REMARK    3  A    between atoms: C_11  and  C_12
REMARK                            x       y       z     vdW  Elec       q    Type
REMARK                         _______ _______ _______ _____ _____    ______ ____
ROOT
ATOM      1  C   UNL     1       4.849   5.359  18.830  0.00  0.00    +0.000 A 
ATOM      2  N   UNL     1       5.059   5.420  17.532  0.00  0.00    +0.000 NA
ATOM      3  C   UNL     1       6.244   4.739  17.399  0.00  0.00    +0.000 A 
ATOM      4  N   UNL     1       6.777   4.307  18.550  0.00  0.00    +0.000 NA
ATOM      5  O   UNL     1       5.848   4.721  19.508  0.00  0.00    +0.000 OA
ENDROOT
BRANCH   3   6
ATOM      6  C   UNL     1       6.795   4.353  16.080  0.00  0.00    +0.000 C 
ATOM      7  C   UNL     1       5.733   3.822  15.136  0.00  0.00    +0.000 C 
ATOM      8  C   UNL     1       6.360   4.033  13.779  0.00  0.00    +0.000 C 
ATOM      9  O   UNL     1       7.229   5.167  13.886  0.00  0.00    +0.000 OA
ATOM     10  C   UNL     1       7.380   5.501  15.278  0.00  0.00    +0.000 C 
ENDBRANCH   3   6
BRANCH   1  11
ATOM     11  C   UNL     1       3.631   5.711  19.602  0.00  0.00    +0.000 C 
BRANCH  11  18
ATOM     12  O   UNL     1       2.458   4.384  21.753  0.00  0.00    +0.000 OA
ATOM     13  C   UNL     1       2.101   4.095  20.615  0.00  0.00    +0.000 A 
ATOM     14  C   UNL     1       1.123   2.994  20.404  0.00  0.00    +0.000 A 
ATOM     15  C   UNL     1       0.712   2.682  19.170  0.00  0.00    +0.000 A 
ATOM     16  C   UNL     1       1.195   3.419  18.030  0.00  0.00    +0.000 A 
ATOM     17  C   UNL     1       2.104   4.387  18.198  0.00  0.00    +0.000 A 
ATOM     18  N   UNL     1       2.577   4.713  19.458  0.00  0.00    +0.000 N 
ENDBRANCH  11  18
ENDBRANCH   1  11
TORSDOF 3
ENDMDL
MODEL 4
REMARK VINA RESULT:      -7.0      1.938      2.367
REMARK  Name = 
REMARK  3 active torsions:
REMARK  status: ('A' for Active; 'I' for Inactive)
REMARK    1  A    between atoms: N_7  and  C_8
REMARK    2  A    between atoms: C_8  and  C_9
REMARK    3  A    between atoms: C_11  and  C_12
REMARK                            x       y       z     vdW  Elec       q    Type
REMARK                         _______ _______ _______ _____ _____    ______ ____
ROOT
ATOM      1  C   UNL     1       4.336   5.513  18.321  0.00  0.00    +0.000 A 
ATOM      2  N   UNL     1       4.677   5.481  17.050  0.00  0.00    +0.000 NA
ATOM      3  C   UNL     1       5.888   4.838  17.092  0.00  0.00    +0.000 A 
ATOM      4  N   UNL     1       6.313   4.516  18.321  0.00  0.00    +0.000 NA
ATOM      5  O   UNL     1       5.279   4.967  19.145  0.00  0.00    +0.000 OA
ENDROOT
BRANCH   3   6
ATOM      6  C   UNL     1       6.584   4.373  15.870  0.00  0.00    +0.000 C 
ATOM      7  C   UNL     1       5.625   3.879  14.804  0.00  0.00    +0.000 C 
ATOM      8  C   UNL     1       6.441   4.003  13.540  0.00  0.00    +0.000 C 
ATOM      9  O   UNL     1       7.362   5.083  13.735  0.00  0.00    +0.000 OA
ATOM     10  C   UNL     1       7.347   5.454  15.126  0.00  0.00    +0.000 C 
ENDBRANCH   3   6
BRANCH   1  11
ATOM     11  C   UNL     1       3.035   5.876  18.936  0.00  0.00    +0.000 C 
BRANCH  11  18
ATOM     12  O   UNL     1       1.368   4.100  17.582  0.00  0.00    +0.000 OA
ATOM     13  C   UNL     1       1.543   3.943  18.786  0.00  0.00    +0.000 A 
ATOM     14  C   UNL     1       0.803   2.874  19.509  0.00  0.00    +0.000 A 
ATOM     15  C   UNL     1       1.000   2.682  20.818  0.00  0.00    +0.000 A 
ATOM     16  C   UNL     1       1.944   3.494  21.543  0.00  0.00    +0.000 A 
ATOM     17  C   UNL     1       2.590   4.485  20.918  0.00  0.00    +0.000 A 
ATOM     18  N   UNL     1       2.385   4.735  19.570  0.00  0.00    +0.000 N 
ENDBRANCH  11  18
ENDBRANCH   1  11
TORSDOF 3
ENDMDL
MODEL 5
REMARK VINA RESULT:      -7.0      1.152      1.152
REMARK  Name = 
REMARK  3 active torsions:
REMARK  status: ('A' for Active; 'I' for Inactive)
REMARK    1  A    between atoms: N_7  and  C_8
REMARK    2  A    between atoms: C_8  and  C_9
REMARK    3  A    between atoms: C_11  and  C_12
REMARK                            x       y       z     vdW  Elec       q    Type
REMARK                         _______ _______ _______ _____ _____    ______ ____
ROOT
ATOM      1  C   UNL     1       5.191   5.173  17.579  0.00  0.00    +0.000 A 
ATOM      2  N   UNL     1       5.572   4.172  16.814  0.00  0.00    +0.000 NA
ATOM      3  C   UNL     1       5.780   4.793  15.608  0.00  0.00    +0.000 A 
ATOM      4  N   UNL     1       5.508   6.104  15.595  0.00  0.00    +0.000 NA
ATOM      5  O   UNL     1       5.113   6.362  16.910  0.00  0.00    +0.000 OA
ENDROOT
BRANCH   3   6
ATOM      6  C   UNL     1       6.426   4.109  14.463  0.00  0.00    +0.000 C 
ATOM      7  C   UNL     1       5.426   3.643  13.421  0.00  0.00    +0.000 C 
ATOM      8  C   UNL     1       6.275   3.519  12.180  0.00  0.00    +0.000 C 
ATOM      9  O   UNL     1       7.336   4.476  12.295  0.00  0.00    +0.000 OA
ATOM     10  C   UNL     1       7.347   4.990  13.639  0.00  0.00    +0.000 C 
ENDBRANCH   3   6
BRANCH   1  11
ATOM     11  C   UNL     1       5.026   5.219  19.053  0.00  0.00    +0.000 C 
BRANCH  11  18
ATOM     12  O   UNL     1       4.939   2.580  19.943  0.00  0.00    +0.000 OA
ATOM     13  C   UNL     1       3.892   3.217  19.881  0.00  0.00    +0.000 A 
ATOM     14  C   UNL     1       2.600   2.550  20.195  0.00  0.00    +0.000 A 
ATOM     15  C   UNL     1       1.454   3.239  20.150  0.00  0.00    +0.000 A 
ATOM     16  C   UNL     1       1.456   4.640  19.814  0.00  0.00    +0.000 A 
ATOM     17  C   UNL     1       2.604   5.247  19.491  0.00  0.00    +0.000 A 
ATOM     18  N   UNL     1       3.804   4.555  19.494  0.00  0.00    +0.000 N 
ENDBRANCH  11  18
ENDBRANCH   1  11
TORSDOF 3
ENDMDL
MODEL 6
REMARK VINA RESULT:      -6.8      1.539      1.835
REMARK  Name = 
REMARK  3 active torsions:
REMARK  status: ('A' for Active; 'I' for Inactive)
REMARK    1  A    between atoms: N_7  and  C_8
REMARK    2  A    between atoms: C_8  and  C_9
REMARK    3  A    between atoms: C_11  and  C_12
REMARK                            x       y       z     vdW  Elec       q    Type
REMARK                         _______ _______ _______ _____ _____    ______ ____
ROOT
ATOM      1  C   UNL     1       5.075   4.931  17.608  0.00  0.00    +0.000 A 
ATOM      2  N   UNL     1       5.398   3.961  16.778  0.00  0.00    +0.000 NA
ATOM      3  C   UNL     1       5.730   4.654  15.640  0.00  0.00    +0.000 A 
ATOM      4  N   UNL     1       5.587   5.983  15.728  0.00  0.00    +0.000 NA
ATOM      5  O   UNL     1       5.148   6.171  17.042  0.00  0.00    +0.000 OA
ENDROOT
BRANCH   3   6
ATOM      6  C   UNL     1       6.368   4.005  14.472  0.00  0.00    +0.000 C 
ATOM      7  C   UNL     1       5.362   3.581  13.418  0.00  0.00    +0.000 C 
ATOM      8  C   UNL     1       6.207   3.492  12.171  0.00  0.00    +0.000 C 
ATOM      9  O   UNL     1       7.275   4.437  12.314  0.00  0.00    +0.000 OA
ATOM     10  C   UNL     1       7.293   4.905  13.675  0.00  0.00    +0.000 C 
ENDBRANCH   3   6
BRANCH   1  11
ATOM     11  C   UNL     1       4.835   4.873  19.071  0.00  0.00    +0.000 C 
BRANCH  11  18
ATOM     12  O   UNL     1       2.708   6.485  19.871  0.00  0.00    +0.000 OA
ATOM     13  C   UNL     1       2.541   5.270  19.820  0.00  0.00    +0.000 A 
ATOM     14  C   UNL     1       1.249   4.681  20.263  0.00  0.00    +0.000 A 
ATOM     15  C   UNL     1       1.049   3.360  20.194  0.00  0.00    +0.000 A 
ATOM     16  C   UNL     1       2.074   2.491  19.672  0.00  0.00    +0.000 A 
ATOM     17  C   UNL     1       3.255   3.000  19.305  0.00  0.00    +0.000 A 
ATOM     18  N   UNL     1       3.509   4.359  19.395  0.00  0.00    +0.000 N 
ENDBRANCH  11  18
ENDBRANCH   1  11
TORSDOF 3
ENDMDL
MODEL 7
REMARK VINA RESULT:      -6.7      2.052      2.770
REMARK  Name = 
REMARK  3 active torsions:
REMARK  status: ('A' for Active; 'I' for Inactive)
REMARK    1  A    between atoms: N_7  and  C_8
REMARK    2  A    between atoms: C_8  and  C_9
REMARK    3  A    between atoms: C_11  and  C_12
REMARK                            x       y       z     vdW  Elec       q    Type
REMARK                         _______ _______ _______ _____ _____    ______ ____
ROOT
ATOM      1  C   UNL     1       6.818   4.749  15.529  0.00  0.00    +0.000 A 
ATOM      2  N   UNL     1       6.129   4.057  14.646  0.00  0.00    +0.000 NA
ATOM      3  C   UNL     1       6.724   4.422  13.465  0.00  0.00    +0.000 A 
ATOM      4  N   UNL     1       7.707   5.324  13.584  0.00  0.00    +0.000 NA
ATOM      5  O   UNL     1       7.771   5.546  14.962  0.00  0.00    +0.000 OA
ENDROOT
BRANCH   3   6
ATOM      6  C   UNL     1       6.431   3.739  12.183  0.00  0.00    +0.000 C 
ATOM      7  C   UNL     1       7.314   2.527  11.952  0.00  0.00    +0.000 C 
ATOM      8  C   UNL     1       6.510   1.716  10.964  0.00  0.00    +0.000 C 
ATOM      9  O   UNL     1       5.127   2.005  11.205  0.00  0.00    +0.000 OA
ATOM     10  C   UNL     1       5.042   3.136  12.091  0.00  0.00    +0.000 C 
ENDBRANCH   3   6
BRANCH   1  11
ATOM     11  C   UNL     1       6.826   4.642  17.009  0.00  0.00    +0.000 C 
BRANCH  11  18
ATOM     12  O   UNL     1       5.661   3.773  19.386  0.00  0.00    +0.000 OA
ATOM     13  C   UNL     1       5.152   4.716  18.790  0.00  0.00    +0.000 A 
ATOM     14  C   UNL     1       3.888   5.316  19.296  0.00  0.00    +0.000 A 
ATOM     15  C   UNL     1       3.333   6.357  18.665  0.00  0.00    +0.000 A 
ATOM     16  C   UNL     1       3.961   6.925  17.499  0.00  0.00    +0.000 A 
ATOM     17  C   UNL     1       5.077   6.374  17.008  0.00  0.00    +0.000 A 
ATOM     18  N   UNL     1       5.660   5.274  17.616  0.00  0.00    +0.000 N 
ENDBRANCH  11  18
ENDBRANCH   1  11
TORSDOF 3
ENDMDL
MODEL 8
REMARK VINA RESULT:      -6.7      2.778      3.818
REMARK  Name = 
REMARK  3 active torsions:
REMARK  status: ('A' for Active; 'I' for Inactive)
REMARK    1  A    between atoms: N_7  and  C_8
REMARK    2  A    between atoms: C_8  and  C_9
REMARK    3  A    between atoms: C_11  and  C_12
REMARK                            x       y       z     vdW  Elec       q    Type
REMARK                         _______ _______ _______ _____ _____    ______ ____
ROOT
ATOM      1  C   UNL     1       4.285   4.590  17.336  0.00  0.00    +0.000 A 
ATOM      2  N   UNL     1       5.036   5.532  17.867  0.00  0.00    +0.000 NA
ATOM      3  C   UNL     1       6.248   5.310  17.262  0.00  0.00    +0.000 A 
ATOM      4  N   UNL     1       6.277   4.263  16.426  0.00  0.00    +0.000 NA
ATOM      5  O   UNL     1       4.967   3.779  16.475  0.00  0.00    +0.000 OA
ENDROOT
BRANCH   3   6
ATOM      6  C   UNL     1       7.381   6.257  17.380  0.00  0.00    +0.000 C 
ATOM      7  C   UNL     1       6.964   7.697  17.150  0.00  0.00    +0.000 C 
ATOM      8  C   UNL     1       8.057   8.473  17.845  0.00  0.00    +0.000 C 
ATOM      9  O   UNL     1       8.541   7.655  18.917  0.00  0.00    +0.000 OA
ATOM     10  C   UNL     1       8.004   6.329  18.762  0.00  0.00    +0.000 C 
ENDBRANCH   3   6
BRANCH   1  11
ATOM     11  C   UNL     1       2.813   4.416  17.400  0.00  0.00    +0.000 C 
BRANCH  11  18
ATOM     12  O   UNL     1       2.650   1.748  18.188  0.00  0.00    +0.000 OA
ATOM     13  C   UNL     1       2.292   2.619  18.974  0.00  0.00    +0.000 A 
ATOM     14  C   UNL     1       1.703   2.235  20.285  0.00  0.00    +0.000 A 
ATOM     15  C   UNL     1       1.326   3.175  21.159  0.00  0.00    +0.000 A 
ATOM     16  C   UNL     1       1.501   4.572  20.851  0.00  0.00    +0.000 A 
ATOM     17  C   UNL     1       1.994   4.936  19.662  0.00  0.00    +0.000 A 
ATOM     18  N   UNL     1       2.362   3.989  18.720  0.00  0.00    +0.000 N 
ENDBRANCH  11  18
ENDBRANCH   1  11
TORSDOF 3
ENDMDL
MODEL 9
REMARK VINA RESULT:      -6.7      4.745      7.564
REMARK  Name = 
REMARK  3 active torsions:
REMARK  status: ('A' for Active; 'I' for Inactive)
REMARK    1  A    between atoms: N_7  and  C_8
REMARK    2  A    between atoms: C_8  and  C_9
REMARK    3  A    between atoms: C_11  and  C_12
REMARK                            x       y       z     vdW  Elec       q    Type
REMARK                         _______ _______ _______ _____ _____    ______ ____
ROOT
ATOM      1  C   UNL     1       2.378   7.301  18.936  0.00  0.00    +0.000 A 
ATOM      2  N   UNL     1       1.778   7.649  20.056  0.00  0.00    +0.000 NA
ATOM      3  C   UNL     1       1.246   8.872  19.731  0.00  0.00    +0.000 A 
ATOM      4  N   UNL     1       1.526   9.296  18.491  0.00  0.00    +0.000 NA
ATOM      5  O   UNL     1       2.283   8.249  17.958  0.00  0.00    +0.000 OA
ENDROOT
BRANCH   3   6
ATOM      6  C   UNL     1       0.290   9.582  20.611  0.00  0.00    +0.000 C 
ATOM      7  C   UNL     1       0.079   8.873  21.935  0.00  0.00    +0.000 C 
ATOM      8  C   UNL     1      -0.426   9.981  22.827  0.00  0.00    +0.000 C 
ATOM      9  O   UNL     1       0.143  11.205  22.345  0.00  0.00    +0.000 OA
ATOM     10  C   UNL     1       0.746  10.957  21.062  0.00  0.00    +0.000 C 
ENDBRANCH   3   6
BRANCH   1  11
ATOM     11  C   UNL     1       2.956   5.991  18.548  0.00  0.00    +0.000 C 
BRANCH  11  18
ATOM     12  O   UNL     1       1.240   4.102  17.430  0.00  0.00    +0.000 OA
ATOM     13  C   UNL     1       1.499   4.029  18.627  0.00  0.00    +0.000 A 
ATOM     14  C   UNL     1       0.832   2.998  19.467  0.00  0.00    +0.000 A 
ATOM     15  C   UNL     1       1.120   2.896  20.769  0.00  0.00    +0.000 A 
ATOM     16  C   UNL     1       2.093   3.770  21.373  0.00  0.00    +0.000 A 
ATOM     17  C   UNL     1       2.675   4.728  20.642  0.00  0.00    +0.000 A 
ATOM     18  N   UNL     1       2.374   4.884  19.298  0.00  0.00    +0.000 N 
ENDBRANCH  11  18
ENDBRANCH   1  11
TORSDOF 3
ENDMDL
