MODEL 1
REMARK VINA RESULT:      -6.7      0.000      0.000
REMARK  Name = 
REMARK  5 active torsions:
REMARK  status: ('A' for Active; 'I' for Inactive)
REMARK    1  A    between atoms: C_1  and  C_2
REMARK    2  A    between atoms: C_2  and  O_3
REMARK    3  A    between atoms: O_3  and  C_4
REMARK    4  A    between atoms: C_4  and  C_6
REMARK    5  A    between atoms: C_6  and  N_7
REMARK                            x       y       z     vdW  Elec       q    Type
REMARK                         _______ _______ _______ _____ _____    ______ ____
ROOT
ATOM      1  N   UNL     1       3.969   5.319  17.397  0.00  0.00    +0.000 N 
ATOM      2  C   UNL     1       3.377   6.483  17.862  0.00  0.00    +0.000 A 
ATOM      3  C   UNL     1       2.544   6.569  18.898  0.00  0.00    +0.000 A 
ATOM      4  C   UNL     1       2.189   5.357  19.655  0.00  0.00    +0.000 A 
ATOM      5  N   UNL     1       1.454   5.378  20.723  0.00  0.00    +0.000 NA
ATOM      6  C   UNL     1       2.713   4.073  19.107  0.00  0.00    +0.000 A 
ATOM      7  C   UNL     1       2.326   2.873  19.729  0.00  0.00    +0.000 A 
ATOM      8  C   UNL     1       2.756   1.651  19.224  0.00  0.00    +0.000 A 
ATOM      9  C   UNL     1       3.567   1.627  18.096  0.00  0.00    +0.000 A 
ATOM     10  C   UNL     1       3.970   2.824  17.484  0.00  0.00    +0.000 A 
ATOM     11  C   UNL     1       3.569   4.081  17.976  0.00  0.00    +0.000 A 
ATOM     12  C   UNL     1       2.044   7.937  19.164  0.00  0.00    +0.000 C 
ATOM     13  C   UNL     1       2.704   8.773  18.069  0.00  0.00    +0.000 C 
ATOM     14  C   UNL     1       3.577   7.831  17.235  0.00  0.00    +0.000 C 
ATOM     15  H   UNL     1       1.175   6.333  20.959  0.00  0.00    +0.000 HD
ENDROOT
BRANCH   1  16
ATOM     16  C   UNL     1       4.940   5.314  16.283  0.00  0.00    +0.000 C 
BRANCH  16  17
ATOM     17  C   UNL     1       6.379   5.380  16.778  0.00  0.00    +0.000 C 
ATOM     18  O   UNL     1       7.055   4.440  17.171  0.00  0.00    +0.000 OA
BRANCH  17  19
ATOM     19  O   UNL     1       6.808   6.679  16.723  0.00  0.00    +0.000 OA
BRANCH  19  21
ATOM     20  C   UNL     1       7.860   8.595  17.677  0.00  0.00    +0.000 C 
ATOM     21  C   UNL     1       7.602   7.108  17.838  0.00  0.00    +0.000 C 
ENDBRANCH  19  21
ENDBRANCH  17  19
ENDBRANCH  16  17
ENDBRANCH   1  16
TORSDOF 4
ENDMDL
MODEL 2
REMARK VINA RESULT:      -6.7      1.161      1.340
REMARK  Name = 
REMARK  5 active torsions:
REMARK  status: ('A' for Active; 'I' for Inactive)
REMARK    1  A    between atoms: C_1  and  C_2
REMARK    2  A    between atoms: C_2  and  O_3
REMARK    3  A    between atoms: O_3  and  C_4
REMARK    4  A    between atoms: C_4  and  C_6
REMARK    5  A    between atoms: C_6  and  N_7
REMARK                            x       y       z     vdW  Elec       q    Type
REMARK                         _______ _______ _______ _____ _____    ______ ____
ROOT
ATOM      1  N   UNL     1       3.952   5.334  18.382  0.00  0.00    +0.000 N 
ATOM      2  C   UNL     1       3.333   6.572  18.314  0.00  0.00    +0.000 A 
ATOM      3  C   UNL     1       2.451   7.048  19.193  0.00  0.00    +0.000 A 
ATOM      4  C   UNL     1       2.067   6.234  20.358  0.00  0.00    +0.000 A 
ATOM      5  N   UNL     1       1.282   6.665  21.296  0.00  0.00    +0.000 NA
ATOM      6  C   UNL     1       2.623   4.852  20.397  0.00  0.00    +0.000 A 
ATOM      7  C   UNL     1       2.214   3.995  21.433  0.00  0.00    +0.000 A 
ATOM      8  C   UNL     1       2.674   2.683  21.481  0.00  0.00    +0.000 A 
ATOM      9  C   UNL     1       3.539   2.227  20.493  0.00  0.00    +0.000 A 
ATOM     10  C   UNL     1       3.964   3.086  19.469  0.00  0.00    +0.000 A 
ATOM     11  C   UNL     1       3.532   4.424  19.395  0.00  0.00    +0.000 A 
ATOM     12  C   UNL     1       1.930   8.395  18.864  0.00  0.00    +0.000 C 
ATOM     13  C   UNL     1       2.637   8.735  17.552  0.00  0.00    +0.000 C 
ATOM     14  C   UNL     1       3.555   7.558  17.206  0.00  0.00    +0.000 C 
ATOM     15  H   UNL     1       0.986   7.628  21.115  0.00  0.00    +0.000 HD
ENDROOT
BRANCH   1  16
ATOM     16  C   UNL     1       4.975   4.905  17.407  0.00  0.00    +0.000 C 
BRANCH  16  17
ATOM     17  C   UNL     1       6.389   5.184  17.899  0.00  0.00    +0.000 C 
ATOM     18  O   UNL     1       7.092   4.425  18.552  0.00  0.00    +0.000 OA
BRANCH  17  19
ATOM     19  O   UNL     1       6.759   6.440  17.501  0.00  0.00    +0.000 OA
BRANCH  19  21
ATOM     20  C   UNL     1       8.025   8.447  17.746  0.00  0.00    +0.000 C 
ATOM     21  C   UNL     1       7.835   7.025  18.246  0.00  0.00    +0.000 C 
ENDBRANCH  19  21
ENDBRANCH  17  19
ENDBRANCH  16  17
ENDBRANCH   1  16
TORSDOF 4
ENDMDL
MODEL 3
REMARK VINA RESULT:      -6.6      2.421      5.071
REMARK  Name = 
REMARK  5 active torsions:
REMARK  status: ('A' for Active; 'I' for Inactive)
REMARK    1  A    between atoms: C_1  and  C_2
REMARK    2  A    between atoms: C_2  and  O_3
REMARK    3  A    between atoms: O_3  and  C_4
REMARK    4  A    between atoms: C_4  and  C_6
REMARK    5  A    between atoms: C_6  and  N_7
REMARK                            x       y       z     vdW  Elec       q    Type
REMARK                         _______ _______ _______ _____ _____    ______ ____
ROOT
ATOM      1  N   UNL     1       3.234   5.694  18.936  0.00  0.00    +0.000 N 
ATOM      2  C   UNL     1       2.536   4.617  19.459  0.00  0.00    +0.000 A 
ATOM      3  C   UNL     1       2.662   3.348  19.073  0.00  0.00    +0.000 A 
ATOM      4  C   UNL     1       3.612   3.000  18.004  0.00  0.00    +0.000 A 
ATOM      5  N   UNL     1       3.848   1.779  17.635  0.00  0.00    +0.000 NA
ATOM      6  C   UNL     1       4.290   4.148  17.337  0.00  0.00    +0.000 A 
ATOM      7  C   UNL     1       5.133   3.885  16.244  0.00  0.00    +0.000 A 
ATOM      8  C   UNL     1       5.750   4.931  15.566  0.00  0.00    +0.000 A 
ATOM      9  C   UNL     1       5.521   6.239  15.977  0.00  0.00    +0.000 A 
ATOM     10  C   UNL     1       4.695   6.503  17.080  0.00  0.00    +0.000 A 
ATOM     11  C   UNL     1       4.066   5.471  17.801  0.00  0.00    +0.000 A 
ATOM     12  C   UNL     1       1.777   2.402  19.791  0.00  0.00    +0.000 C 
ATOM     13  C   UNL     1       0.999   3.305  20.748  0.00  0.00    +0.000 C 
ATOM     14  C   UNL     1       1.502   4.737  20.541  0.00  0.00    +0.000 C 
ATOM     15  H   UNL     1       3.300   1.116  18.187  0.00  0.00    +0.000 HD
ENDROOT
BRANCH   1  16
ATOM     16  C   UNL     1       3.092   7.065  19.467  0.00  0.00    +0.000 C 
BRANCH  16  17
ATOM     17  C   UNL     1       2.007   7.851  18.741  0.00  0.00    +0.000 C 
ATOM     18  O   UNL     1       1.696   7.740  17.564  0.00  0.00    +0.000 OA
BRANCH  17  19
ATOM     19  O   UNL     1       1.428   8.725  19.621  0.00  0.00    +0.000 OA
BRANCH  19  21
ATOM     20  C   UNL     1      -0.005   8.651  21.526  0.00  0.00    +0.000 C 
ATOM     21  C   UNL     1       1.359   8.270  20.979  0.00  0.00    +0.000 C 
ENDBRANCH  19  21
ENDBRANCH  17  19
ENDBRANCH  16  17
ENDBRANCH   1  16
TORSDOF 4
ENDMDL
MODEL 4
REMARK VINA RESULT:      -6.6      1.652      2.074
REMARK  Name = 
REMARK  5 active torsions:
REMARK  status: ('A' for Active; 'I' for Inactive)
REMARK    1  A    between atoms: C_1  and  C_2
REMARK    2  A    between atoms: C_2  and  O_3
REMARK    3  A    between atoms: O_3  and  C_4
REMARK    4  A    between atoms: C_4  and  C_6
REMARK    5  A    between atoms: C_6  and  N_7
REMARK                            x       y       z     vdW  Elec       q    Type
REMARK                         _______ _______ _______ _____ _____    ______ ____
ROOT
ATOM      1  N   UNL     1       3.953   4.960  18.422  0.00  0.00    +0.000 N 
ATOM      2  C   UNL     1       3.446   6.241  18.275  0.00  0.00    +0.000 A 
ATOM      3  C   UNL     1       2.601   6.842  19.113  0.00  0.00    +0.000 A 
ATOM      4  C   UNL     1       2.136   6.134  20.316  0.00  0.00    +0.000 A 
ATOM      5  N   UNL     1       1.383   6.685  21.216  0.00  0.00    +0.000 NA
ATOM      6  C   UNL     1       2.567   4.712  20.440  0.00  0.00    +0.000 A 
ATOM      7  C   UNL     1       2.073   3.955  21.517  0.00  0.00    +0.000 A 
ATOM      8  C   UNL     1       2.416   2.613  21.645  0.00  0.00    +0.000 A 
ATOM      9  C   UNL     1       3.246   2.027  20.697  0.00  0.00    +0.000 A 
ATOM     10  C   UNL     1       3.755   2.785  19.632  0.00  0.00    +0.000 A 
ATOM     11  C   UNL     1       3.445   4.150  19.477  0.00  0.00    +0.000 A 
ATOM     12  C   UNL     1       2.205   8.209  18.701  0.00  0.00    +0.000 C 
ATOM     13  C   UNL     1       2.952   8.410  17.383  0.00  0.00    +0.000 C 
ATOM     14  C   UNL     1       3.766   7.140  17.117  0.00  0.00    +0.000 C 
ATOM     15  H   UNL     1       1.175   7.657  20.977  0.00  0.00    +0.000 HD
ENDROOT
BRANCH   1  16
ATOM     16  C   UNL     1       4.944   4.388  17.487  0.00  0.00    +0.000 C 
BRANCH  16  17
ATOM     17  C   UNL     1       6.375   4.677  17.921  0.00  0.00    +0.000 C 
ATOM     18  O   UNL     1       6.744   4.979  19.047  0.00  0.00    +0.000 OA
BRANCH  17  19
ATOM     19  O   UNL     1       7.201   4.555  16.836  0.00  0.00    +0.000 OA
BRANCH  19  21
ATOM     20  C   UNL     1       7.075   4.890  14.478  0.00  0.00    +0.000 C 
ATOM     21  C   UNL     1       6.577   4.056  15.645  0.00  0.00    +0.000 C 
ENDBRANCH  19  21
ENDBRANCH  17  19
ENDBRANCH  16  17
ENDBRANCH   1  16
TORSDOF 4
ENDMDL
MODEL 5
REMARK VINA RESULT:      -6.5      2.447      4.969
REMARK  Name = 
REMARK  5 active torsions:
REMARK  status: ('A' for Active; 'I' for Inactive)
REMARK    1  A    between atoms: C_1  and  C_2
REMARK    2  A    between atoms: C_2  and  O_3
REMARK    3  A    between atoms: O_3  and  C_4
REMARK    4  A    between atoms: C_4  and  C_6
REMARK    5  A    between atoms: C_6  and  N_7
REMARK                            x       y       z     vdW  Elec       q    Type
REMARK                         _______ _______ _______ _____ _____    ______ ____
ROOT
ATOM      1  N   UNL     1       3.604   6.062  17.709  0.00  0.00    +0.000 N 
ATOM      2  C   UNL     1       2.884   4.923  18.035  0.00  0.00    +0.000 A 
ATOM      3  C   UNL     1       3.378   3.834  18.622  0.00  0.00    +0.000 A 
ATOM      4  C   UNL     1       4.805   3.780  18.982  0.00  0.00    +0.000 A 
ATOM      5  N   UNL     1       5.335   2.790  19.630  0.00  0.00    +0.000 NA
ATOM      6  C   UNL     1       5.631   4.939  18.538  0.00  0.00    +0.000 A 
ATOM      7  C   UNL     1       7.017   4.898  18.767  0.00  0.00    +0.000 A 
ATOM      8  C   UNL     1       7.830   5.938  18.329  0.00  0.00    +0.000 A 
ATOM      9  C   UNL     1       7.261   7.014  17.659  0.00  0.00    +0.000 A 
ATOM     10  C   UNL     1       5.875   7.066  17.447  0.00  0.00    +0.000 A 
ATOM     11  C   UNL     1       5.017   6.041  17.889  0.00  0.00    +0.000 A 
ATOM     12  C   UNL     1       2.387   2.755  18.835  0.00  0.00    +0.000 C 
ATOM     13  C   UNL     1       1.101   3.337  18.249  0.00  0.00    +0.000 C 
ATOM     14  C   UNL     1       1.423   4.746  17.743  0.00  0.00    +0.000 C 
ATOM     15  H   UNL     1       4.635   2.079  19.854  0.00  0.00    +0.000 HD
ENDROOT
BRANCH   1  16
ATOM     16  C   UNL     1       2.970   7.260  17.123  0.00  0.00    +0.000 C 
BRANCH  16  17
ATOM     17  C   UNL     1       2.373   8.171  18.188  0.00  0.00    +0.000 C 
ATOM     18  O   UNL     1       2.251   7.914  19.377  0.00  0.00    +0.000 OA
BRANCH  17  19
ATOM     19  O   UNL     1       1.976   9.342  17.599  0.00  0.00    +0.000 OA
BRANCH  19  21
ATOM     20  C   UNL     1      -0.222  10.083  18.156  0.00  0.00    +0.000 C 
ATOM     21  C   UNL     1       1.259  10.243  18.453  0.00  0.00    +0.000 C 
ENDBRANCH  19  21
ENDBRANCH  17  19
ENDBRANCH  16  17
ENDBRANCH   1  16
TORSDOF 4
ENDMDL
MODEL 6
REMARK VINA RESULT:      -6.4      2.544      4.951
REMARK  Name = 
REMARK  5 active torsions:
REMARK  status: ('A' for Active; 'I' for Inactive)
REMARK    1  A    between atoms: C_1  and  C_2
REMARK    2  A    between atoms: C_2  and  O_3
REMARK    3  A    between atoms: O_3  and  C_4
REMARK    4  A    between atoms: C_4  and  C_6
REMARK    5  A    between atoms: C_6  and  N_7
REMARK                            x       y       z     vdW  Elec       q    Type
REMARK                         _______ _______ _______ _____ _____    ______ ____
ROOT
ATOM      1  N   UNL     1       2.769   5.603  18.484  0.00  0.00    +0.000 N 
ATOM      2  C   UNL     1       2.367   4.597  19.347  0.00  0.00    +0.000 A 
ATOM      3  C   UNL     1       3.127   3.587  19.770  0.00  0.00    +0.000 A 
ATOM      4  C   UNL     1       4.524   3.483  19.317  0.00  0.00    +0.000 A 
ATOM      5  N   UNL     1       5.345   2.579  19.752  0.00  0.00    +0.000 NA
ATOM      6  C   UNL     1       4.951   4.481  18.295  0.00  0.00    +0.000 A 
ATOM      7  C   UNL     1       6.243   4.371  17.752  0.00  0.00    +0.000 A 
ATOM      8  C   UNL     1       6.666   5.254  16.764  0.00  0.00    +0.000 A 
ATOM      9  C   UNL     1       5.798   6.243  16.316  0.00  0.00    +0.000 A 
ATOM     10  C   UNL     1       4.515   6.367  16.870  0.00  0.00    +0.000 A 
ATOM     11  C   UNL     1       4.057   5.502  17.882  0.00  0.00    +0.000 A 
ATOM     12  C   UNL     1       2.434   2.642  20.675  0.00  0.00    +0.000 C 
ATOM     13  C   UNL     1       1.021   3.215  20.769  0.00  0.00    +0.000 C 
ATOM     14  C   UNL     1       0.984   4.488  19.919  0.00  0.00    +0.000 C 
ATOM     15  H   UNL     1       4.894   1.974  20.442  0.00  0.00    +0.000 HD
ENDROOT
BRANCH   1  16
ATOM     16  C   UNL     1       1.889   6.731  18.116  0.00  0.00    +0.000 C 
BRANCH  16  17
ATOM     17  C   UNL     1       2.055   7.918  19.056  0.00  0.00    +0.000 C 
ATOM     18  O   UNL     1       2.073   7.878  20.279  0.00  0.00    +0.000 OA
BRANCH  17  19
ATOM     19  O   UNL     1       2.174   9.061  18.313  0.00  0.00    +0.000 OA
BRANCH  19  21
ATOM     20  C   UNL     1      -0.036   9.941  18.135  0.00  0.00    +0.000 C 
ATOM     21  C   UNL     1       1.344  10.153  18.732  0.00  0.00    +0.000 C 
ENDBRANCH  19  21
ENDBRANCH  17  19
ENDBRANCH  16  17
ENDBRANCH   1  16
TORSDOF 4
ENDMDL
MODEL 7
REMARK VINA RESULT:      -6.3      2.456      4.731
REMARK  Name = 
REMARK  5 active torsions:
REMARK  status: ('A' for Active; 'I' for Inactive)
REMARK    1  A    between atoms: C_1  and  C_2
REMARK    2  A    between atoms: C_2  and  O_3
REMARK    3  A    between atoms: O_3  and  C_4
REMARK    4  A    between atoms: C_4  and  C_6
REMARK    5  A    between atoms: C_6  and  N_7
REMARK                            x       y       z     vdW  Elec       q    Type
REMARK                         _______ _______ _______ _____ _____    ______ ____
ROOT
ATOM      1  N   UNL     1       3.989   4.546  19.036  0.00  0.00    +0.000 N 
ATOM      2  C   UNL     1       3.129   5.487  19.579  0.00  0.00    +0.000 A 
ATOM      3  C   UNL     1       2.831   6.669  19.039  0.00  0.00    +0.000 A 
ATOM      4  C   UNL     1       3.434   7.059  17.754  0.00  0.00    +0.000 A 
ATOM      5  N   UNL     1       3.126   8.153  17.130  0.00  0.00    +0.000 NA
ATOM      6  C   UNL     1       4.455   6.122  17.204  0.00  0.00    +0.000 A 
ATOM      7  C   UNL     1       5.137   6.489  16.031  0.00  0.00    +0.000 A 
ATOM      8  C   UNL     1       6.127   5.663  15.509  0.00  0.00    +0.000 A 
ATOM      9  C   UNL     1       6.440   4.476  16.161  0.00  0.00    +0.000 A 
ATOM     10  C   UNL     1       5.747   4.099  17.321  0.00  0.00    +0.000 A 
ATOM     11  C   UNL     1       4.728   4.899  17.871  0.00  0.00    +0.000 A 
ATOM     12  C   UNL     1       1.896   7.488  19.845  0.00  0.00    +0.000 C 
ATOM     13  C   UNL     1       1.629   6.614  21.070  0.00  0.00    +0.000 C 
ATOM     14  C   UNL     1       2.418   5.314  20.889  0.00  0.00    +0.000 C 
ATOM     15  H   UNL     1       2.417   8.682  17.643  0.00  0.00    +0.000 HD
ENDROOT
BRANCH   1  16
ATOM     16  C   UNL     1       4.214   3.226  19.660  0.00  0.00    +0.000 C 
BRANCH  16  17
ATOM     17  C   UNL     1       3.328   2.146  19.053  0.00  0.00    +0.000 C 
ATOM     18  O   UNL     1       3.638   1.371  18.159  0.00  0.00    +0.000 OA
BRANCH  17  19
ATOM     19  O   UNL     1       2.103   2.181  19.663  0.00  0.00    +0.000 OA
BRANCH  19  21
ATOM     20  C   UNL     1       0.874   3.504  18.104  0.00  0.00    +0.000 C 
ATOM     21  C   UNL     1       0.976   2.147  18.776  0.00  0.00    +0.000 C 
ENDBRANCH  19  21
ENDBRANCH  17  19
ENDBRANCH  16  17
ENDBRANCH   1  16
TORSDOF 4
ENDMDL
MODEL 8
REMARK VINA RESULT:      -6.3      0.978      1.673
REMARK  Name = 
REMARK  5 active torsions:
REMARK  status: ('A' for Active; 'I' for Inactive)
REMARK    1  A    between atoms: C_1  and  C_2
REMARK    2  A    between atoms: C_2  and  O_3
REMARK    3  A    between atoms: O_3  and  C_4
REMARK    4  A    between atoms: C_4  and  C_6
REMARK    5  A    between atoms: C_6  and  N_7
REMARK                            x       y       z     vdW  Elec       q    Type
REMARK                         _______ _______ _______ _____ _____    ______ ____
ROOT
ATOM      1  N   UNL     1       3.935   5.517  17.463  0.00  0.00    +0.000 N 
ATOM      2  C   UNL     1       3.287   6.636  17.960  0.00  0.00    +0.000 A 
ATOM      3  C   UNL     1       2.439   6.649  18.988  0.00  0.00    +0.000 A 
ATOM      4  C   UNL     1       2.128   5.396  19.696  0.00  0.00    +0.000 A 
ATOM      5  N   UNL     1       1.380   5.347  20.755  0.00  0.00    +0.000 NA
ATOM      6  C   UNL     1       2.714   4.157  19.111  0.00  0.00    +0.000 A 
ATOM      7  C   UNL     1       2.373   2.920  19.685  0.00  0.00    +0.000 A 
ATOM      8  C   UNL     1       2.862   1.737  19.142  0.00  0.00    +0.000 A 
ATOM      9  C   UNL     1       3.687   1.789  18.025  0.00  0.00    +0.000 A 
ATOM     10  C   UNL     1       4.045   3.023  17.462  0.00  0.00    +0.000 A 
ATOM     11  C   UNL     1       3.583   4.242  17.992  0.00  0.00    +0.000 A 
ATOM     12  C   UNL     1       1.875   7.984  19.296  0.00  0.00    +0.000 C 
ATOM     13  C   UNL     1       2.511   8.887  18.240  0.00  0.00    +0.000 C 
ATOM     14  C   UNL     1       3.435   8.014  17.385  0.00  0.00    +0.000 C 
ATOM     15  H   UNL     1       1.057   6.280  21.020  0.00  0.00    +0.000 HD
ENDROOT
BRANCH   1  16
ATOM     16  C   UNL     1       4.918   5.594  16.363  0.00  0.00    +0.000 C 
BRANCH  16  17
ATOM     17  C   UNL     1       6.338   5.790  16.877  0.00  0.00    +0.000 C 
ATOM     18  O   UNL     1       6.668   6.406  17.881  0.00  0.00    +0.000 OA
BRANCH  17  19
ATOM     19  O   UNL     1       7.209   5.168  16.024  0.00  0.00    +0.000 OA
BRANCH  19  21
ATOM     20  C   UNL     1       7.143   4.773  13.672  0.00  0.00    +0.000 C 
ATOM     21  C   UNL     1       6.600   4.341  15.023  0.00  0.00    +0.000 C 
ENDBRANCH  19  21
ENDBRANCH  17  19
ENDBRANCH  16  17
ENDBRANCH   1  16
TORSDOF 4
ENDMDL
MODEL 9
REMARK VINA RESULT:      -6.3      2.613      4.948
REMARK  Name = 
REMARK  5 active torsions:
REMARK  status: ('A' for Active; 'I' for Inactive)
REMARK    1  A    between atoms: C_1  and  C_2
REMARK    2  A    between atoms: C_2  and  O_3
REMARK    3  A    between atoms: O_3  and  C_4
REMARK    4  A    between atoms: C_4  and  C_6
REMARK    5  A    between atoms: C_6  and  N_7
REMARK                            x       y       z     vdW  Elec       q    Type
REMARK                         _______ _______ _______ _____ _____    ______ ____
ROOT
ATOM      1  N   UNL     1       2.691   5.998  19.863  0.00  0.00    +0.000 N 
ATOM      2  C   UNL     1       1.943   7.136  20.119  0.00  0.00    +0.000 A 
ATOM      3  C   UNL     1       1.857   8.203  19.325  0.00  0.00    +0.000 A 
ATOM      4  C   UNL     1       2.595   8.229  18.052  0.00  0.00    +0.000 A 
ATOM      5  N   UNL     1       2.492   9.195  17.192  0.00  0.00    +0.000 NA
ATOM      6  C   UNL     1       3.502   7.073  17.803  0.00  0.00    +0.000 A 
ATOM      7  C   UNL     1       4.307   7.090  16.650  0.00  0.00    +0.000 A 
ATOM      8  C   UNL     1       5.199   6.052  16.404  0.00  0.00    +0.000 A 
ATOM      9  C   UNL     1       5.292   5.002  17.309  0.00  0.00    +0.000 A 
ATOM     10  C   UNL     1       4.476   4.973  18.450  0.00  0.00    +0.000 A 
ATOM     11  C   UNL     1       3.549   5.996  18.726  0.00  0.00    +0.000 A 
ATOM     12  C   UNL     1       1.000   9.288  19.855  0.00  0.00    +0.000 C 
ATOM     13  C   UNL     1       0.527   8.739  21.200  0.00  0.00    +0.000 C 
ATOM     14  C   UNL     1       1.128   7.339  21.363  0.00  0.00    +0.000 C 
ATOM     15  H   UNL     1       1.835   9.908  17.517  0.00  0.00    +0.000 HD
ENDROOT
BRANCH   1  16
ATOM     16  C   UNL     1       2.679   4.824  20.759  0.00  0.00    +0.000 C 
BRANCH  16  17
ATOM     17  C   UNL     1       1.661   3.779  20.322  0.00  0.00    +0.000 C 
ATOM     18  O   UNL     1       0.456   3.947  20.201  0.00  0.00    +0.000 OA
BRANCH  17  19
ATOM     19  O   UNL     1       2.309   2.596  20.089  0.00  0.00    +0.000 OA
BRANCH  19  21
ATOM     20  C   UNL     1       3.521   1.481  18.363  0.00  0.00    +0.000 C 
ATOM     21  C   UNL     1       2.182   2.081  18.757  0.00  0.00    +0.000 C 
ENDBRANCH  19  21
ENDBRANCH  17  19
ENDBRANCH  16  17
ENDBRANCH   1  16
TORSDOF 4
ENDMDL
