MODEL 1
REMARK VINA RESULT:      -8.4      0.000      0.000
REMARK  Name = 
REMARK  7 active torsions:
REMARK  status: ('A' for Active; 'I' for Inactive)
REMARK    1  A    between atoms: C_2  and  C_19
REMARK    2  A    between atoms: N_3  and  C_4
REMARK    3  A    between atoms: C_4  and  C_5
REMARK    4  A    between atoms: C_5  and  C_6
REMARK    5  A    between atoms: C_6  and  O_7
REMARK    6  A    between atoms: N_10  and  C_11
REMARK    7  A    between atoms: C_23  and  C_24
REMARK                            x       y       z     vdW  Elec       q    Type
REMARK                         _______ _______ _______ _____ _____    ______ ____
ROOT
ATOM      1  C   UNL     1       7.492   6.594  18.015  0.00  0.00    +0.000 C 
ENDROOT
BRANCH   1   2
ATOM      2  C   UNL     1       6.190   6.057  17.356  0.00  0.00    +0.000 C 
ATOM      3  C   UNL     1       6.023   4.550  17.632  0.00  0.00    +0.000 C 
ATOM      4  C   UNL     1       4.690   3.991  17.151  0.00  0.00    +0.000 C 
ATOM      5  N   UNL     1       3.613   4.796  17.709  0.00  0.00    +0.000 N 
ATOM      6  C   UNL     1       3.654   6.213  17.340  0.00  0.00    +0.000 C 
ATOM      7  C   UNL     1       4.957   6.840  17.849  0.00  0.00    +0.000 C 
BRANCH   5   8
ATOM      8  C   UNL     1       2.648   4.247  18.530  0.00  0.00    +0.000 A 
ATOM      9  C   UNL     1       2.400   4.740  19.820  0.00  0.00    +0.000 A 
ATOM     10  C   UNL     1       1.439   4.163  20.660  0.00  0.00    +0.000 A 
ATOM     11  C   UNL     1       0.695   3.072  20.227  0.00  0.00    +0.000 A 
ATOM     12  C   UNL     1       0.908   2.565  18.953  0.00  0.00    +0.000 A 
ATOM     13  C   UNL     1       1.867   3.151  18.122  0.00  0.00    +0.000 A 
ENDBRANCH   5   8
BRANCH   2  14
ATOM     14  O   UNL     1       6.279   6.287  15.941  0.00  0.00    +0.000 OA
ATOM     15  H   UNL     1       7.167   6.042  15.629  0.00  0.00    +0.000 HD
ENDBRANCH   2  14
ENDBRANCH   1   2
BRANCH   1  16
ATOM     16  C   UNL     1       7.737   8.056  17.645  0.00  0.00    +0.000 C 
BRANCH  16  19
ATOM     17  O   UNL     1       8.030  10.738  17.466  0.00  0.00    +0.000 OA
ATOM     18  C   UNL     1       8.681  10.161  18.336  0.00  0.00    +0.000 C 
ATOM     19  N   UNL     1       8.615   8.791  18.515  0.00  0.00    +0.000 N 
ATOM     20  H   UNL     1       8.862   8.428  19.428  0.00  0.00    +0.000 HD
BRANCH  18  21
ATOM     21  C   UNL     1       9.497  10.885  19.275  0.00  0.00    +0.000 A 
ATOM     22  N   UNL     1       9.097  11.002  20.590  0.00  0.00    +0.000 N 
ATOM     23  C   UNL     1      10.031  11.688  21.317  0.00  0.00    +0.000 A 
ATOM     24  C   UNL     1      11.026  12.078  20.448  0.00  0.00    +0.000 A 
ATOM     25  C   UNL     1      10.679  11.596  19.163  0.00  0.00    +0.000 A 
ATOM     26  H   UNL     1       8.233  10.611  20.949  0.00  0.00    +0.000 HD
BRANCH  25  27
ATOM     27  C   UNL     1      11.453  11.845  17.877  0.00  0.00    +0.000 C 
ATOM     28  C   UNL     1      11.093  13.012  16.988  0.00  0.00    +0.000 C 
ATOM     29  C   UNL     1      12.333  13.077  17.813  0.00  0.00    +0.000 C 
ENDBRANCH  25  27
ENDBRANCH  18  21
ENDBRANCH  16  19
ENDBRANCH   1  16
TORSDOF 7
ENDMDL
MODEL 2
REMARK VINA RESULT:      -8.3      1.454      2.197
REMARK  Name = 
REMARK  7 active torsions:
REMARK  status: ('A' for Active; 'I' for Inactive)
REMARK    1  A    between atoms: C_2  and  C_19
REMARK    2  A    between atoms: N_3  and  C_4
REMARK    3  A    between atoms: C_4  and  C_5
REMARK    4  A    between atoms: C_5  and  C_6
REMARK    5  A    between atoms: C_6  and  O_7
REMARK    6  A    between atoms: N_10  and  C_11
REMARK    7  A    between atoms: C_23  and  C_24
REMARK                            x       y       z     vdW  Elec       q    Type
REMARK                         _______ _______ _______ _____ _____    ______ ____
ROOT
ATOM      1  C   UNL     1       6.818   6.952  16.588  0.00  0.00    +0.000 C 
ENDROOT
BRANCH   1   2
ATOM      2  C   UNL     1       6.421   5.533  17.087  0.00  0.00    +0.000 C 
ATOM      3  C   UNL     1       6.162   5.545  18.606  0.00  0.00    +0.000 C 
ATOM      4  C   UNL     1       5.617   4.226  19.137  0.00  0.00    +0.000 C 
ATOM      5  N   UNL     1       4.441   3.856  18.361  0.00  0.00    +0.000 N 
ATOM      6  C   UNL     1       4.685   3.686  16.927  0.00  0.00    +0.000 C 
ATOM      7  C   UNL     1       5.187   5.005  16.330  0.00  0.00    +0.000 C 
BRANCH   5   8
ATOM      8  C   UNL     1       3.203   3.698  18.951  0.00  0.00    +0.000 A 
ATOM      9  C   UNL     1       2.277   2.747  18.495  0.00  0.00    +0.000 A 
ATOM     10  C   UNL     1       1.012   2.608  19.079  0.00  0.00    +0.000 A 
ATOM     11  C   UNL     1       0.638   3.421  20.142  0.00  0.00    +0.000 A 
ATOM     12  C   UNL     1       1.532   4.366  20.624  0.00  0.00    +0.000 A 
ATOM     13  C   UNL     1       2.795   4.493  20.036  0.00  0.00    +0.000 A 
ENDBRANCH   5   8
BRANCH   2  14
ATOM     14  O   UNL     1       7.500   4.636  16.783  0.00  0.00    +0.000 OA
ATOM     15  H   UNL     1       8.078   4.550  17.560  0.00  0.00    +0.000 HD
ENDBRANCH   2  14
ENDBRANCH   1   2
BRANCH   1  16
ATOM     16  C   UNL     1       7.679   7.679  17.619  0.00  0.00    +0.000 C 
BRANCH  16  19
ATOM     17  O   UNL     1       9.178   9.201  19.277  0.00  0.00    +0.000 OA
ATOM     18  C   UNL     1       8.638   9.771  18.330  0.00  0.00    +0.000 C 
ATOM     19  N   UNL     1       7.844   9.094  17.422  0.00  0.00    +0.000 N 
ATOM     20  H   UNL     1       7.734   9.505  16.503  0.00  0.00    +0.000 HD
BRANCH  18  21
ATOM     21  C   UNL     1       8.860  11.167  18.062  0.00  0.00    +0.000 A 
ATOM     22  N   UNL     1       7.858  11.930  17.499  0.00  0.00    +0.000 N 
ATOM     23  C   UNL     1       8.259  13.231  17.367  0.00  0.00    +0.000 A 
ATOM     24  C   UNL     1       9.567  13.304  17.795  0.00  0.00    +0.000 A 
ATOM     25  C   UNL     1       9.951  12.005  18.207  0.00  0.00    +0.000 A 
ATOM     26  H   UNL     1       6.950  11.558  17.240  0.00  0.00    +0.000 HD
BRANCH  25  27
ATOM     27  C   UNL     1      11.334  11.596  18.692  0.00  0.00    +0.000 C 
ATOM     28  C   UNL     1      12.332  12.648  19.117  0.00  0.00    +0.000 C 
ATOM     29  C   UNL     1      11.661  11.814  20.155  0.00  0.00    +0.000 C 
ENDBRANCH  25  27
ENDBRANCH  18  21
ENDBRANCH  16  19
ENDBRANCH   1  16
TORSDOF 7
ENDMDL
MODEL 3
REMARK VINA RESULT:      -8.1      1.910      2.584
REMARK  Name = 
REMARK  7 active torsions:
REMARK  status: ('A' for Active; 'I' for Inactive)
REMARK    1  A    between atoms: C_2  and  C_19
REMARK    2  A    between atoms: N_3  and  C_4
REMARK    3  A    between atoms: C_4  and  C_5
REMARK    4  A    between atoms: C_5  and  C_6
REMARK    5  A    between atoms: C_6  and  O_7
REMARK    6  A    between atoms: N_10  and  C_11
REMARK    7  A    between atoms: C_23  and  C_24
REMARK                            x       y       z     vdW  Elec       q    Type
REMARK                         _______ _______ _______ _____ _____    ______ ____
ROOT
ATOM      1  C   UNL     1       6.738   8.358  17.522  0.00  0.00    +0.000 C 
ENDROOT
BRANCH   1   2
ATOM      2  C   UNL     1       6.561   6.852  17.177  0.00  0.00    +0.000 C 
ATOM      3  C   UNL     1       6.470   6.009  18.464  0.00  0.00    +0.000 C 
ATOM      4  C   UNL     1       6.138   4.545  18.205  0.00  0.00    +0.000 C 
ATOM      5  N   UNL     1       4.934   4.472  17.389  0.00  0.00    +0.000 N 
ATOM      6  C   UNL     1       5.037   5.137  16.088  0.00  0.00    +0.000 C 
ATOM      7  C   UNL     1       5.319   6.629  16.293  0.00  0.00    +0.000 C 
BRANCH   5   8
ATOM      8  C   UNL     1       3.793   3.834  17.835  0.00  0.00    +0.000 A 
ATOM      9  C   UNL     1       3.838   2.574  18.451  0.00  0.00    +0.000 A 
ATOM     10  C   UNL     1       2.676   1.918  18.877  0.00  0.00    +0.000 A 
ATOM     11  C   UNL     1       1.432   2.509  18.697  0.00  0.00    +0.000 A 
ATOM     12  C   UNL     1       1.352   3.759  18.098  0.00  0.00    +0.000 A 
ATOM     13  C   UNL     1       2.519   4.407  17.681  0.00  0.00    +0.000 A 
ENDBRANCH   5   8
BRANCH   2  14
ATOM     14  O   UNL     1       7.695   6.437  16.401  0.00  0.00    +0.000 OA
ATOM     15  H   UNL     1       8.347   6.010  16.982  0.00  0.00    +0.000 HD
ENDBRANCH   2  14
ENDBRANCH   1   2
BRANCH   1  16
ATOM     16  C   UNL     1       8.143   8.643  18.050  0.00  0.00    +0.000 C 
BRANCH  16  19
ATOM     17  O   UNL     1       9.371  10.361  19.739  0.00  0.00    +0.000 OA
ATOM     18  C   UNL     1       9.361  10.661  18.547  0.00  0.00    +0.000 C 
ATOM     19  N   UNL     1       8.757   9.860  17.593  0.00  0.00    +0.000 N 
ATOM     20  H   UNL     1       9.080   9.951  16.638  0.00  0.00    +0.000 HD
BRANCH  18  21
ATOM     21  C   UNL     1      10.045  11.827  18.055  0.00  0.00    +0.000 A 
ATOM     22  N   UNL     1      11.325  11.716  17.551  0.00  0.00    +0.000 N 
ATOM     23  C   UNL     1      11.771  12.928  17.101  0.00  0.00    +0.000 A 
ATOM     24  C   UNL     1      10.791  13.856  17.374  0.00  0.00    +0.000 A 
ATOM     25  C   UNL     1       9.719  13.170  17.994  0.00  0.00    +0.000 A 
ATOM     26  H   UNL     1      11.838  10.842  17.514  0.00  0.00    +0.000 HD
BRANCH  25  27
ATOM     27  C   UNL     1       8.445  13.806  18.531  0.00  0.00    +0.000 C 
ATOM     28  C   UNL     1       7.950  15.114  17.962  0.00  0.00    +0.000 C 
ATOM     29  C   UNL     1       7.239  13.851  17.616  0.00  0.00    +0.000 C 
ENDBRANCH  25  27
ENDBRANCH  18  21
ENDBRANCH  16  19
ENDBRANCH   1  16
TORSDOF 7
ENDMDL
MODEL 4
REMARK VINA RESULT:      -8.1      4.940      8.272
REMARK  Name = 
REMARK  7 active torsions:
REMARK  status: ('A' for Active; 'I' for Inactive)
REMARK    1  A    between atoms: C_2  and  C_19
REMARK    2  A    between atoms: N_3  and  C_4
REMARK    3  A    between atoms: C_4  and  C_5
REMARK    4  A    between atoms: C_5  and  C_6
REMARK    5  A    between atoms: C_6  and  O_7
REMARK    6  A    between atoms: N_10  and  C_11
REMARK    7  A    between atoms: C_23  and  C_24
REMARK                            x       y       z     vdW  Elec       q    Type
REMARK                         _______ _______ _______ _____ _____    ______ ____
ROOT
ATOM      1  C   UNL     1       7.437   5.001  16.141  0.00  0.00    +0.000 C 
ENDROOT
BRANCH   1   2
ATOM      2  C   UNL     1       6.462   5.593  17.199  0.00  0.00    +0.000 C 
ATOM      3  C   UNL     1       5.066   5.814  16.586  0.00  0.00    +0.000 C 
ATOM      4  C   UNL     1       4.019   6.243  17.605  0.00  0.00    +0.000 C 
ATOM      5  N   UNL     1       4.014   5.289  18.705  0.00  0.00    +0.000 N 
ATOM      6  C   UNL     1       5.291   5.165  19.412  0.00  0.00    +0.000 C 
ATOM      7  C   UNL     1       6.373   4.683  18.439  0.00  0.00    +0.000 C 
BRANCH   5   8
ATOM      8  C   UNL     1       2.886   4.561  19.029  0.00  0.00    +0.000 A 
ATOM      9  C   UNL     1       2.004   4.966  20.042  0.00  0.00    +0.000 A 
ATOM     10  C   UNL     1       0.876   4.210  20.386  0.00  0.00    +0.000 A 
ATOM     11  C   UNL     1       0.599   3.023  19.720  0.00  0.00    +0.000 A 
ATOM     12  C   UNL     1       1.446   2.598  18.706  0.00  0.00    +0.000 A 
ATOM     13  C   UNL     1       2.567   3.362  18.368  0.00  0.00    +0.000 A 
ENDBRANCH   5   8
BRANCH   2  14
ATOM     14  O   UNL     1       7.001   6.845  17.650  0.00  0.00    +0.000 OA
ATOM     15  H   UNL     1       6.600   7.571  17.144  0.00  0.00    +0.000 HD
ENDBRANCH   2  14
ENDBRANCH   1   2
BRANCH   1  16
ATOM     16  C   UNL     1       6.961   5.302  14.721  0.00  0.00    +0.000 C 
BRANCH  16  19
ATOM     17  O   UNL     1       7.611   4.949  12.121  0.00  0.00    +0.000 OA
ATOM     18  C   UNL     1       6.891   4.096  12.637  0.00  0.00    +0.000 C 
ATOM     19  N   UNL     1       6.490   4.178  13.959  0.00  0.00    +0.000 N 
ATOM     20  H   UNL     1       6.224   3.315  14.419  0.00  0.00    +0.000 HD
BRANCH  18  21
ATOM     21  C   UNL     1       6.481   2.918  11.921  0.00  0.00    +0.000 A 
ATOM     22  N   UNL     1       7.409   1.952  11.592  0.00  0.00    +0.000 N 
ATOM     23  C   UNL     1       6.806   0.902  10.955  0.00  0.00    +0.000 A 
ATOM     24  C   UNL     1       5.473   1.218  10.811  0.00  0.00    +0.000 A 
ATOM     25  C   UNL     1       5.274   2.492  11.395  0.00  0.00    +0.000 A 
ATOM     26  H   UNL     1       8.396   2.024  11.816  0.00  0.00    +0.000 HD
BRANCH  25  27
ATOM     27  C   UNL     1       3.968   3.272  11.410  0.00  0.00    +0.000 C 
ATOM     28  C   UNL     1       3.559   4.093  10.209  0.00  0.00    +0.000 C 
ATOM     29  C   UNL     1       2.859   2.807  10.489  0.00  0.00    +0.000 C 
ENDBRANCH  25  27
ENDBRANCH  18  21
ENDBRANCH  16  19
ENDBRANCH   1  16
TORSDOF 7
ENDMDL
MODEL 5
REMARK VINA RESULT:      -7.9      1.303      2.110
REMARK  Name = 
REMARK  7 active torsions:
REMARK  status: ('A' for Active; 'I' for Inactive)
REMARK    1  A    between atoms: C_2  and  C_19
REMARK    2  A    between atoms: N_3  and  C_4
REMARK    3  A    between atoms: C_4  and  C_5
REMARK    4  A    between atoms: C_5  and  C_6
REMARK    5  A    between atoms: C_6  and  O_7
REMARK    6  A    between atoms: N_10  and  C_11
REMARK    7  A    between atoms: C_23  and  C_24
REMARK                            x       y       z     vdW  Elec       q    Type
REMARK                         _______ _______ _______ _____ _____    ______ ____
ROOT
ATOM      1  C   UNL     1       8.090   7.385  18.313  0.00  0.00    +0.000 C 
ENDROOT
BRANCH   1   2
ATOM      2  C   UNL     1       7.023   6.528  17.574  0.00  0.00    +0.000 C 
ATOM      3  C   UNL     1       6.845   5.165  18.270  0.00  0.00    +0.000 C 
ATOM      4  C   UNL     1       5.704   4.336  17.695  0.00  0.00    +0.000 C 
ATOM      5  N   UNL     1       4.491   5.140  17.697  0.00  0.00    +0.000 N 
ATOM      6  C   UNL     1       4.575   6.376  16.914  0.00  0.00    +0.000 C 
ATOM      7  C   UNL     1       5.678   7.273  17.487  0.00  0.00    +0.000 C 
BRANCH   5   8
ATOM      8  C   UNL     1       3.366   4.755  18.400  0.00  0.00    +0.000 A 
ATOM      9  C   UNL     1       3.119   5.195  19.709  0.00  0.00    +0.000 A 
ATOM     10  C   UNL     1       1.991   4.780  20.428  0.00  0.00    +0.000 A 
ATOM     11  C   UNL     1       1.074   3.910  19.852  0.00  0.00    +0.000 A 
ATOM     12  C   UNL     1       1.282   3.463  18.555  0.00  0.00    +0.000 A 
ATOM     13  C   UNL     1       2.410   3.887  17.844  0.00  0.00    +0.000 A 
ENDBRANCH   5   8
BRANCH   2  14
ATOM     14  O   UNL     1       7.469   6.331  16.223  0.00  0.00    +0.000 OA
ATOM     15  H   UNL     1       8.183   5.672  16.210  0.00  0.00    +0.000 HD
ENDBRANCH   2  14
ENDBRANCH   1   2
BRANCH   1  16
ATOM     16  C   UNL     1       7.929   8.869  17.987  0.00  0.00    +0.000 C 
BRANCH  16  19
ATOM     17  O   UNL     1       7.952  11.509  17.402  0.00  0.00    +0.000 OA
ATOM     18  C   UNL     1       8.964  11.042  17.923  0.00  0.00    +0.000 C 
ATOM     19  N   UNL     1       9.067   9.704  18.260  0.00  0.00    +0.000 N 
ATOM     20  H   UNL     1       9.730   9.457  18.984  0.00  0.00    +0.000 HD
BRANCH  18  21
ATOM     21  C   UNL     1      10.080  11.876  18.286  0.00  0.00    +0.000 A 
ATOM     22  N   UNL     1      11.283  11.745  17.623  0.00  0.00    +0.000 N 
ATOM     23  C   UNL     1      12.191  12.654  18.092  0.00  0.00    +0.000 A 
ATOM     24  C   UNL     1      11.589  13.347  19.119  0.00  0.00    +0.000 A 
ATOM     25  C   UNL     1      10.274  12.842  19.257  0.00  0.00    +0.000 A 
ATOM     26  H   UNL     1      11.444  11.071  16.883  0.00  0.00    +0.000 HD
BRANCH  25  27
ATOM     27  C   UNL     1       9.262  13.264  20.312  0.00  0.00    +0.000 C 
ATOM     28  C   UNL     1       8.917  12.332  21.450  0.00  0.00    +0.000 C 
ATOM     29  C   UNL     1       9.773  13.524  21.714  0.00  0.00    +0.000 C 
ENDBRANCH  25  27
ENDBRANCH  18  21
ENDBRANCH  16  19
ENDBRANCH   1  16
TORSDOF 7
ENDMDL
MODEL 6
REMARK VINA RESULT:      -7.9      5.207      7.833
REMARK  Name = 
REMARK  7 active torsions:
REMARK  status: ('A' for Active; 'I' for Inactive)
REMARK    1  A    between atoms: C_2  and  C_19
REMARK    2  A    between atoms: N_3  and  C_4
REMARK    3  A    between atoms: C_4  and  C_5
REMARK    4  A    between atoms: C_5  and  C_6
REMARK    5  A    between atoms: C_6  and  O_7
REMARK    6  A    between atoms: N_10  and  C_11
REMARK    7  A    between atoms: C_23  and  C_24
REMARK                            x       y       z     vdW  Elec       q    Type
REMARK                         _______ _______ _______ _____ _____    ______ ____
ROOT
ATOM      1  C   UNL     1       1.070   4.128  20.444  0.00  0.00    +0.000 C 
ENDROOT
BRANCH   1   2
ATOM      2  C   UNL     1       1.903   3.313  19.414  0.00  0.00    +0.000 C 
ATOM      3  C   UNL     1       1.786   3.935  18.009  0.00  0.00    +0.000 C 
ATOM      4  C   UNL     1       2.700   3.283  16.980  0.00  0.00    +0.000 C 
ATOM      5  N   UNL     1       4.063   3.285  17.493  0.00  0.00    +0.000 N 
ATOM      6  C   UNL     1       4.241   2.568  18.758  0.00  0.00    +0.000 C 
ATOM      7  C   UNL     1       3.379   3.219  19.845  0.00  0.00    +0.000 C 
BRANCH   5   8
ATOM      8  C   UNL     1       5.087   3.931  16.829  0.00  0.00    +0.000 A 
ATOM      9  C   UNL     1       5.304   3.763  15.453  0.00  0.00    +0.000 A 
ATOM     10  C   UNL     1       6.361   4.398  14.789  0.00  0.00    +0.000 A 
ATOM     11  C   UNL     1       7.232   5.225  15.488  0.00  0.00    +0.000 A 
ATOM     12  C   UNL     1       7.040   5.420  16.848  0.00  0.00    +0.000 A 
ATOM     13  C   UNL     1       5.980   4.784  17.501  0.00  0.00    +0.000 A 
ENDBRANCH   5   8
BRANCH   2  14
ATOM     14  O   UNL     1       1.397   1.970  19.396  0.00  0.00    +0.000 OA
ATOM     15  H   UNL     1       1.858   1.459  18.710  0.00  0.00    +0.000 HD
ENDBRANCH   2  14
ENDBRANCH   1   2
BRANCH   1  16
ATOM     16  C   UNL     1       1.913   5.227  21.090  0.00  0.00    +0.000 C 
BRANCH  16  19
ATOM     17  O   UNL     1       3.001   6.881  19.248  0.00  0.00    +0.000 OA
ATOM     18  C   UNL     1       2.077   7.329  19.924  0.00  0.00    +0.000 C 
ATOM     19  N   UNL     1       1.449   6.575  20.900  0.00  0.00    +0.000 N 
ATOM     20  H   UNL     1       0.506   6.839  21.157  0.00  0.00    +0.000 HD
BRANCH  18  21
ATOM     21  C   UNL     1       1.538   8.642  19.692  0.00  0.00    +0.000 A 
ATOM     22  N   UNL     1       1.597   9.200  18.432  0.00  0.00    +0.000 N 
ATOM     23  C   UNL     1       0.994  10.428  18.420  0.00  0.00    +0.000 A 
ATOM     24  C   UNL     1       0.590  10.701  19.708  0.00  0.00    +0.000 A 
ATOM     25  C   UNL     1       0.953   9.592  20.511  0.00  0.00    +0.000 A 
ATOM     26  H   UNL     1       2.021   8.738  17.635  0.00  0.00    +0.000 HD
BRANCH  25  27
ATOM     27  C   UNL     1       0.763   9.480  22.016  0.00  0.00    +0.000 C 
ATOM     28  C   UNL     1      -0.268  10.332  22.717  0.00  0.00    +0.000 C 
ATOM     29  C   UNL     1      -0.532   8.878  22.521  0.00  0.00    +0.000 C 
ENDBRANCH  25  27
ENDBRANCH  18  21
ENDBRANCH  16  19
ENDBRANCH   1  16
TORSDOF 7
ENDMDL
MODEL 7
REMARK VINA RESULT:      -7.9      1.828      2.360
REMARK  Name = 
REMARK  7 active torsions:
REMARK  status: ('A' for Active; 'I' for Inactive)
REMARK    1  A    between atoms: C_2  and  C_19
REMARK    2  A    between atoms: N_3  and  C_4
REMARK    3  A    between atoms: C_4  and  C_5
REMARK    4  A    between atoms: C_5  and  C_6
REMARK    5  A    between atoms: C_6  and  O_7
REMARK    6  A    between atoms: N_10  and  C_11
REMARK    7  A    between atoms: C_23  and  C_24
REMARK                            x       y       z     vdW  Elec       q    Type
REMARK                         _______ _______ _______ _____ _____    ______ ____
ROOT
ATOM      1  C   UNL     1       8.150   7.580  17.803  0.00  0.00    +0.000 C 
ENDROOT
BRANCH   1   2
ATOM      2  C   UNL     1       7.129   6.482  17.390  0.00  0.00    +0.000 C 
ATOM      3  C   UNL     1       7.001   5.416  18.495  0.00  0.00    +0.000 C 
ATOM      4  C   UNL     1       5.903   4.395  18.227  0.00  0.00    +0.000 C 
ATOM      5  N   UNL     1       4.656   5.102  17.969  0.00  0.00    +0.000 N 
ATOM      6  C   UNL     1       4.697   6.016  16.825  0.00  0.00    +0.000 C 
ATOM      7  C   UNL     1       5.754   7.098  17.067  0.00  0.00    +0.000 C 
BRANCH   5   8
ATOM      8  C   UNL     1       3.541   4.920  18.763  0.00  0.00    +0.000 A 
ATOM      9  C   UNL     1       3.081   5.914  19.640  0.00  0.00    +0.000 A 
ATOM     10  C   UNL     1       1.966   5.714  20.464  0.00  0.00    +0.000 A 
ATOM     11  C   UNL     1       1.277   4.509  20.430  0.00  0.00    +0.000 A 
ATOM     12  C   UNL     1       1.700   3.507  19.567  0.00  0.00    +0.000 A 
ATOM     13  C   UNL     1       2.812   3.718  18.746  0.00  0.00    +0.000 A 
ENDBRANCH   5   8
BRANCH   2  14
ATOM     14  O   UNL     1       7.597   5.873  16.176  0.00  0.00    +0.000 OA
ATOM     15  H   UNL     1       7.205   4.988  16.086  0.00  0.00    +0.000 HD
ENDBRANCH   2  14
ENDBRANCH   1   2
BRANCH   1  16
ATOM     16  C   UNL     1       7.463   8.931  17.991  0.00  0.00    +0.000 C 
BRANCH  16  19
ATOM     17  O   UNL     1       9.220  10.176  19.626  0.00  0.00    +0.000 OA
ATOM     18  C   UNL     1       9.087  10.637  18.494  0.00  0.00    +0.000 C 
ATOM     19  N   UNL     1       8.212  10.086  17.575  0.00  0.00    +0.000 N 
ATOM     20  H   UNL     1       8.399  10.257  16.594  0.00  0.00    +0.000 HD
BRANCH  18  21
ATOM     21  C   UNL     1       9.889  11.737  18.026  0.00  0.00    +0.000 A 
ATOM     22  N   UNL     1      11.155  11.504  17.528  0.00  0.00    +0.000 N 
ATOM     23  C   UNL     1      11.725  12.672  17.101  0.00  0.00    +0.000 A 
ATOM     24  C   UNL     1      10.842  13.690  17.384  0.00  0.00    +0.000 A 
ATOM     25  C   UNL     1       9.701  13.107  17.986  0.00  0.00    +0.000 A 
ATOM     26  H   UNL     1      11.577  10.583  17.479  0.00  0.00    +0.000 HD
BRANCH  25  27
ATOM     27  C   UNL     1       8.494  13.859  18.526  0.00  0.00    +0.000 C 
ATOM     28  C   UNL     1       8.076  15.171  17.905  0.00  0.00    +0.000 C 
ATOM     29  C   UNL     1       7.266  13.946  17.645  0.00  0.00    +0.000 C 
ENDBRANCH  25  27
ENDBRANCH  18  21
ENDBRANCH  16  19
ENDBRANCH   1  16
TORSDOF 7
ENDMDL
MODEL 8
REMARK VINA RESULT:      -7.8      5.114      8.329
REMARK  Name = 
REMARK  7 active torsions:
REMARK  status: ('A' for Active; 'I' for Inactive)
REMARK    1  A    between atoms: C_2  and  C_19
REMARK    2  A    between atoms: N_3  and  C_4
REMARK    3  A    between atoms: C_4  and  C_5
REMARK    4  A    between atoms: C_5  and  C_6
REMARK    5  A    between atoms: C_6  and  O_7
REMARK    6  A    between atoms: N_10  and  C_11
REMARK    7  A    between atoms: C_23  and  C_24
REMARK                            x       y       z     vdW  Elec       q    Type
REMARK                         _______ _______ _______ _____ _____    ______ ____
ROOT
ATOM      1  C   UNL     1       5.583   6.108  15.350  0.00  0.00    +0.000 C 
ENDROOT
BRANCH   1   2
ATOM      2  C   UNL     1       5.333   6.216  16.881  0.00  0.00    +0.000 C 
ATOM      3  C   UNL     1       3.873   6.621  17.165  0.00  0.00    +0.000 C 
ATOM      4  C   UNL     1       3.514   6.592  18.645  0.00  0.00    +0.000 C 
ATOM      5  N   UNL     1       3.859   5.285  19.187  0.00  0.00    +0.000 N 
ATOM      6  C   UNL     1       5.276   4.930  19.071  0.00  0.00    +0.000 C 
ATOM      7  C   UNL     1       5.677   4.893  17.593  0.00  0.00    +0.000 C 
BRANCH   5   8
ATOM      8  C   UNL     1       2.906   4.459  19.750  0.00  0.00    +0.000 A 
ATOM      9  C   UNL     1       1.802   3.992  19.020  0.00  0.00    +0.000 A 
ATOM     10  C   UNL     1       0.824   3.176  19.602  0.00  0.00    +0.000 A 
ATOM     11  C   UNL     1       0.926   2.802  20.937  0.00  0.00    +0.000 A 
ATOM     12  C   UNL     1       2.010   3.239  21.684  0.00  0.00    +0.000 A 
ATOM     13  C   UNL     1       2.984   4.050  21.092  0.00  0.00    +0.000 A 
ENDBRANCH   5   8
BRANCH   2  14
ATOM     14  O   UNL     1       6.226   7.208  17.410  0.00  0.00    +0.000 OA
ATOM     15  H   UNL     1       6.926   6.772  17.925  0.00  0.00    +0.000 HD
ENDBRANCH   2  14
ENDBRANCH   1   2
BRANCH   1  16
ATOM     16  C   UNL     1       6.666   5.077  15.038  0.00  0.00    +0.000 C 
BRANCH  16  19
ATOM     17  O   UNL     1       7.470   4.977  12.458  0.00  0.00    +0.000 OA
ATOM     18  C   UNL     1       6.761   4.056  12.859  0.00  0.00    +0.000 C 
ATOM     19  N   UNL     1       6.287   4.005  14.158  0.00  0.00    +0.000 N 
ATOM     20  H   UNL     1       6.036   3.096  14.527  0.00  0.00    +0.000 HD
BRANCH  18  21
ATOM     21  C   UNL     1       6.442   2.929  12.023  0.00  0.00    +0.000 A 
ATOM     22  N   UNL     1       7.431   2.040  11.656  0.00  0.00    +0.000 N 
ATOM     23  C   UNL     1       6.910   1.025  10.900  0.00  0.00    +0.000 A 
ATOM     24  C   UNL     1       5.570   1.292  10.721  0.00  0.00    +0.000 A 
ATOM     25  C   UNL     1       5.282   2.498  11.404  0.00  0.00    +0.000 A 
ATOM     26  H   UNL     1       8.402   2.136  11.933  0.00  0.00    +0.000 HD
BRANCH  25  27
ATOM     27  C   UNL     1       3.939   3.213  11.424  0.00  0.00    +0.000 C 
ATOM     28  C   UNL     1       3.556   4.141  10.296  0.00  0.00    +0.000 C 
ATOM     29  C   UNL     1       2.907   2.803  10.394  0.00  0.00    +0.000 C 
ENDBRANCH  25  27
ENDBRANCH  18  21
ENDBRANCH  16  19
ENDBRANCH   1  16
TORSDOF 7
ENDMDL
MODEL 9
REMARK VINA RESULT:      -7.8      5.300      8.261
REMARK  Name = 
REMARK  7 active torsions:
REMARK  status: ('A' for Active; 'I' for Inactive)
REMARK    1  A    between atoms: C_2  and  C_19
REMARK    2  A    between atoms: N_3  and  C_4
REMARK    3  A    between atoms: C_4  and  C_5
REMARK    4  A    between atoms: C_5  and  C_6
REMARK    5  A    between atoms: C_6  and  O_7
REMARK    6  A    between atoms: N_10  and  C_11
REMARK    7  A    between atoms: C_23  and  C_24
REMARK                            x       y       z     vdW  Elec       q    Type
REMARK                         _______ _______ _______ _____ _____    ______ ____
ROOT
ATOM      1  C   UNL     1       2.718   6.166  18.210  0.00  0.00    +0.000 C 
ENDROOT
BRANCH   1   2
ATOM      2  C   UNL     1       4.102   5.534  17.887  0.00  0.00    +0.000 C 
ATOM      3  C   UNL     1       3.928   4.231  17.083  0.00  0.00    +0.000 C 
ATOM      4  C   UNL     1       5.245   3.641  16.596  0.00  0.00    +0.000 C 
ATOM      5  N   UNL     1       5.980   4.666  15.869  0.00  0.00    +0.000 N 
ATOM      6  C   UNL     1       6.297   5.862  16.653  0.00  0.00    +0.000 C 
ATOM      7  C   UNL     1       5.000   6.527  17.125  0.00  0.00    +0.000 C 
BRANCH   5   8
ATOM      8  C   UNL     1       6.327   4.507  14.542  0.00  0.00    +0.000 A 
ATOM      9  C   UNL     1       5.643   3.621  13.694  0.00  0.00    +0.000 A 
ATOM     10  C   UNL     1       6.016   3.442  12.357  0.00  0.00    +0.000 A 
ATOM     11  C   UNL     1       7.089   4.149  11.827  0.00  0.00    +0.000 A 
ATOM     12  C   UNL     1       7.782   5.040  12.635  0.00  0.00    +0.000 A 
ATOM     13  C   UNL     1       7.398   5.214  13.969  0.00  0.00    +0.000 A 
ENDBRANCH   5   8
BRANCH   2  14
ATOM     14  O   UNL     1       4.765   5.255  19.130  0.00  0.00    +0.000 OA
ATOM     15  H   UNL     1       5.669   5.612  19.102  0.00  0.00    +0.000 HD
ENDBRANCH   2  14
ENDBRANCH   1   2
BRANCH   1  16
ATOM     16  C   UNL     1       2.851   7.656  18.524  0.00  0.00    +0.000 C 
BRANCH  16  19
ATOM     17  O   UNL     1       2.233  10.096  17.536  0.00  0.00    +0.000 OA
ATOM     18  C   UNL     1       1.422   9.582  18.304  0.00  0.00    +0.000 C 
ATOM     19  N   UNL     1       1.636   8.340  18.875  0.00  0.00    +0.000 N 
ATOM     20  H   UNL     1       0.821   7.823  19.184  0.00  0.00    +0.000 HD
BRANCH  18  21
ATOM     21  C   UNL     1       0.160  10.208  18.600  0.00  0.00    +0.000 A 
ATOM     22  N   UNL     1      -0.742  10.455  17.586  0.00  0.00    +0.000 N 
ATOM     23  C   UNL     1      -1.887  11.013  18.086  0.00  0.00    +0.000 A 
ATOM     24  C   UNL     1      -1.702  11.189  19.440  0.00  0.00    +0.000 A 
ATOM     25  C   UNL     1      -0.410  10.706  19.758  0.00  0.00    +0.000 A 
ATOM     26  H   UNL     1      -0.566  10.231  16.613  0.00  0.00    +0.000 HD
BRANCH  25  27
ATOM     27  C   UNL     1       0.250  10.760  21.128  0.00  0.00    +0.000 C 
ATOM     28  C   UNL     1      -0.596  10.803  22.378  0.00  0.00    +0.000 C 
ATOM     29  C   UNL     1       0.118   9.544  22.021  0.00  0.00    +0.000 C 
ENDBRANCH  25  27
ENDBRANCH  18  21
ENDBRANCH  16  19
ENDBRANCH   1  16
TORSDOF 7
ENDMDL
