MODEL 1
REMARK VINA RESULT:      -8.1      0.000      0.000
REMARK  Name = 
REMARK  12 active torsions:
REMARK  status: ('A' for Active; 'I' for Inactive)
REMARK    1  A    between atoms: C_1  and  C_2
REMARK    2  A    between atoms: C_2  and  C_3
REMARK    3  A    between atoms: C_3  and  C_4
REMARK    4  A    between atoms: C_6  and  C_7
REMARK    5  A    between atoms: C_6  and  C_20
REMARK    6  A    between atoms: C_7  and  C_8
REMARK    7  A    between atoms: C_8  and  N_9
REMARK    8  A    between atoms: N_9  and  C_10
REMARK    9  A    between atoms: C_10  and  C_11
REMARK   10  A    between atoms: C_14  and  N_15
REMARK   11  A    between atoms: N_15  and  C_16
REMARK   12  A    between atoms: N_15  and  C_17
REMARK                            x       y       z     vdW  Elec       q    Type
REMARK                         _______ _______ _______ _____ _____    ______ ____
ROOT
ATOM      1  C   UNL     1       2.017   3.187  19.474  0.00  0.00    +0.000 C 
ATOM      2  C   UNL     1       1.024   2.055  19.204  0.00  0.00    +0.000 C 
ATOM      3  C   UNL     1       1.603   4.602  19.085  0.00  0.00    +0.000 C 
ATOM      4  C   UNL     1       2.889   5.492  18.812  0.00  0.00    +0.000 C 
ATOM      5  C   UNL     1       3.280   5.002  17.403  0.00  0.00    +0.000 C 
ATOM      6  C   UNL     1       3.174   3.456  17.348  0.00  0.00    +0.000 C 
ATOM      7  O   UNL     1       3.181   2.867  18.679  0.00  0.00    +0.000 OA
ENDROOT
BRANCH   4   8
ATOM      8  C   UNL     1       2.387   6.954  18.937  0.00  0.00    +0.000 A 
ATOM      9  C   UNL     1       1.848   7.386  20.180  0.00  0.00    +0.000 A 
ATOM     10  C   UNL     1       1.306   8.661  20.340  0.00  0.00    +0.000 A 
ATOM     11  C   UNL     1       1.328   9.538  19.269  0.00  0.00    +0.000 A 
ATOM     12  F   UNL     1       0.788  10.755  19.400  0.00  0.00    +0.000 F 
ATOM     13  C   UNL     1       1.903   9.165  18.058  0.00  0.00    +0.000 A 
ATOM     14  C   UNL     1       2.440   7.882  17.892  0.00  0.00    +0.000 A 
ENDBRANCH   4   8
BRANCH   1  16
ATOM     15  C   UNL     1       1.354   2.454  21.973  0.00  0.00    +0.000 C 
ATOM     16  C   UNL     1       2.154   3.313  21.032  0.00  0.00    +0.000 C 
ENDBRANCH   1  16
BRANCH   4  17
ATOM     17  C   UNL     1       4.202   5.440  19.741  0.00  0.00    +0.000 C 
BRANCH  17  18
ATOM     18  C   UNL     1       5.699   5.508  19.268  0.00  0.00    +0.000 C 
BRANCH  18  19
ATOM     19  N   UNL     1       6.309   4.419  18.515  0.00  0.00    +0.000 NA
ATOM     20  H   UNL     1       5.583   3.842  18.104  0.00  0.00    +0.000 HD
BRANCH  19  21
ATOM     21  C   UNL     1       7.293   4.831  17.529  0.00  0.00    +0.000 C 
BRANCH  21  22
ATOM     22  C   UNL     1       6.871   4.536  16.107  0.00  0.00    +0.000 A 
ATOM     23  C   UNL     1       7.532   5.143  15.037  0.00  0.00    +0.000 A 
ATOM     24  C   UNL     1       7.260   4.775  13.707  0.00  0.00    +0.000 A 
ATOM     25  C   UNL     1       6.313   3.792  13.378  0.00  0.00    +0.000 A 
ATOM     26  C   UNL     1       5.598   3.263  14.468  0.00  0.00    +0.000 A 
ATOM     27  C   UNL     1       5.875   3.608  15.803  0.00  0.00    +0.000 A 
BRANCH  25  28
ATOM     28  N   UNL     1       6.042   3.405  12.063  0.00  0.00    +0.000 N 
ATOM     29  C   UNL     1       6.922   2.473  11.355  0.00  0.00    +0.000 C 
ATOM     30  C   UNL     1       4.643   3.299  11.627  0.00  0.00    +0.000 C 
ENDBRANCH  25  28
ENDBRANCH  21  22
ENDBRANCH  19  21
ENDBRANCH  18  19
ENDBRANCH  17  18
ENDBRANCH   4  17
TORSDOF 8
ENDMDL
MODEL 2
REMARK VINA RESULT:      -7.9      5.269      7.897
REMARK  Name = 
REMARK  12 active torsions:
REMARK  status: ('A' for Active; 'I' for Inactive)
REMARK    1  A    between atoms: C_1  and  C_2
REMARK    2  A    between atoms: C_2  and  C_3
REMARK    3  A    between atoms: C_3  and  C_4
REMARK    4  A    between atoms: C_6  and  C_7
REMARK    5  A    between atoms: C_6  and  C_20
REMARK    6  A    between atoms: C_7  and  C_8
REMARK    7  A    between atoms: C_8  and  N_9
REMARK    8  A    between atoms: N_9  and  C_10
REMARK    9  A    between atoms: C_10  and  C_11
REMARK   10  A    between atoms: C_14  and  N_15
REMARK   11  A    between atoms: N_15  and  C_16
REMARK   12  A    between atoms: N_15  and  C_17
REMARK                            x       y       z     vdW  Elec       q    Type
REMARK                         _______ _______ _______ _____ _____    ______ ____
ROOT
ATOM      1  C   UNL     1       3.401   5.811  18.360  0.00  0.00    +0.000 C 
ATOM      2  C   UNL     1       1.996   5.398  18.801  0.00  0.00    +0.000 C 
ATOM      3  C   UNL     1       3.987   5.127  17.130  0.00  0.00    +0.000 C 
ATOM      4  C   UNL     1       5.573   5.151  17.194  0.00  0.00    +0.000 C 
ATOM      5  C   UNL     1       5.834   4.012  18.201  0.00  0.00    +0.000 C 
ATOM      6  C   UNL     1       4.839   4.132  19.384  0.00  0.00    +0.000 C 
ATOM      7  O   UNL     1       4.262   5.466  19.470  0.00  0.00    +0.000 OA
ENDROOT
BRANCH   4   8
ATOM      8  C   UNL     1       6.029   4.918  15.731  0.00  0.00    +0.000 A 
ATOM      9  C   UNL     1       5.204   4.137  14.876  0.00  0.00    +0.000 A 
ATOM     10  C   UNL     1       5.590   3.821  13.574  0.00  0.00    +0.000 A 
ATOM     11  C   UNL     1       6.792   4.312  13.093  0.00  0.00    +0.000 A 
ATOM     12  F   UNL     1       7.187   3.995  11.855  0.00  0.00    +0.000 F 
ATOM     13  C   UNL     1       7.593   5.129  13.885  0.00  0.00    +0.000 A 
ATOM     14  C   UNL     1       7.211   5.440  15.197  0.00  0.00    +0.000 A 
ENDBRANCH   4   8
BRANCH   1  16
ATOM     15  C   UNL     1       2.030   8.087  17.958  0.00  0.00    +0.000 C 
ATOM     16  C   UNL     1       3.312   7.302  17.883  0.00  0.00    +0.000 C 
ENDBRANCH   1  16
BRANCH   4  17
ATOM     17  C   UNL     1       6.410   6.440  17.673  0.00  0.00    +0.000 C 
BRANCH  17  18
ATOM     18  C   UNL     1       7.734   6.448  18.519  0.00  0.00    +0.000 C 
BRANCH  18  19
ATOM     19  N   UNL     1       8.448   7.688  18.804  0.00  0.00    +0.000 NA
ATOM     20  H   UNL     1       9.417   7.479  19.018  0.00  0.00    +0.000 HD
BRANCH  19  21
ATOM     21  C   UNL     1       8.329   8.713  17.783  0.00  0.00    +0.000 C 
BRANCH  21  22
ATOM     22  C   UNL     1       8.650  10.101  18.291  0.00  0.00    +0.000 A 
ATOM     23  C   UNL     1       9.401  10.268  19.457  0.00  0.00    +0.000 A 
ATOM     24  C   UNL     1       9.838  11.539  19.868  0.00  0.00    +0.000 A 
ATOM     25  C   UNL     1       9.543  12.706  19.145  0.00  0.00    +0.000 A 
ATOM     26  C   UNL     1       8.710  12.520  18.027  0.00  0.00    +0.000 A 
ATOM     27  C   UNL     1       8.283  11.252  17.594  0.00  0.00    +0.000 A 
BRANCH  25  28
ATOM     28  N   UNL     1       9.982  13.975  19.533  0.00  0.00    +0.000 N 
ATOM     29  C   UNL     1      10.927  14.139  20.640  0.00  0.00    +0.000 C 
ATOM     30  C   UNL     1      10.123  15.021  18.512  0.00  0.00    +0.000 C 
ENDBRANCH  25  28
ENDBRANCH  21  22
ENDBRANCH  19  21
ENDBRANCH  18  19
ENDBRANCH  17  18
ENDBRANCH   4  17
TORSDOF 8
ENDMDL
MODEL 3
REMARK VINA RESULT:      -7.8      5.689      8.391
REMARK  Name = 
REMARK  12 active torsions:
REMARK  status: ('A' for Active; 'I' for Inactive)
REMARK    1  A    between atoms: C_1  and  C_2
REMARK    2  A    between atoms: C_2  and  C_3
REMARK    3  A    between atoms: C_3  and  C_4
REMARK    4  A    between atoms: C_6  and  C_7
REMARK    5  A    between atoms: C_6  and  C_20
REMARK    6  A    between atoms: C_7  and  C_8
REMARK    7  A    between atoms: C_8  and  N_9
REMARK    8  A    between atoms: N_9  and  C_10
REMARK    9  A    between atoms: C_10  and  C_11
REMARK   10  A    between atoms: C_14  and  N_15
REMARK   11  A    between atoms: N_15  and  C_16
REMARK   12  A    between atoms: N_15  and  C_17
REMARK                            x       y       z     vdW  Elec       q    Type
REMARK                         _______ _______ _______ _____ _____    ______ ____
ROOT
ATOM      1  C   UNL     1       3.728   5.811  18.145  0.00  0.00    +0.000 C 
ATOM      2  C   UNL     1       2.508   5.230  18.861  0.00  0.00    +0.000 C 
ATOM      3  C   UNL     1       4.327   5.005  16.998  0.00  0.00    +0.000 C 
ATOM      4  C   UNL     1       5.863   5.367  16.820  0.00  0.00    +0.000 C 
ATOM      5  C   UNL     1       6.481   4.558  17.980  0.00  0.00    +0.000 C 
ATOM      6  C   UNL     1       5.611   4.734  19.251  0.00  0.00    +0.000 C 
ATOM      7  O   UNL     1       4.753   5.906  19.159  0.00  0.00    +0.000 OA
ENDROOT
BRANCH   4   8
ATOM      8  C   UNL     1       6.209   4.911  15.379  0.00  0.00    +0.000 A 
ATOM      9  C   UNL     1       7.413   5.382  14.786  0.00  0.00    +0.000 A 
ATOM     10  C   UNL     1       7.748   5.078  13.467  0.00  0.00    +0.000 A 
ATOM     11  C   UNL     1       6.901   4.267  12.730  0.00  0.00    +0.000 A 
ATOM     12  F   UNL     1       7.196   3.989  11.455  0.00  0.00    +0.000 F 
ATOM     13  C   UNL     1       5.746   3.742  13.302  0.00  0.00    +0.000 A 
ATOM     14  C   UNL     1       5.403   4.053  14.624  0.00  0.00    +0.000 A 
ENDBRANCH   4   8
BRANCH   1  16
ATOM     15  C   UNL     1       2.290   8.080  18.040  0.00  0.00    +0.000 C 
ATOM     16  C   UNL     1       3.248   7.109  17.404  0.00  0.00    +0.000 C 
ENDBRANCH   1  16
BRANCH   4  17
ATOM     17  C   UNL     1       6.423   6.873  16.908  0.00  0.00    +0.000 C 
BRANCH  17  18
ATOM     18  C   UNL     1       7.641   7.381  17.761  0.00  0.00    +0.000 C 
BRANCH  18  19
ATOM     19  N   UNL     1       7.975   8.798  17.843  0.00  0.00    +0.000 NA
ATOM     20  H   UNL     1       7.124   9.342  17.941  0.00  0.00    +0.000 HD
BRANCH  19  21
ATOM     21  C   UNL     1       8.953   9.140  18.859  0.00  0.00    +0.000 C 
BRANCH  21  22
ATOM     22  C   UNL     1       9.209  10.628  18.965  0.00  0.00    +0.000 A 
ATOM     23  C   UNL     1       9.721  11.171  20.144  0.00  0.00    +0.000 A 
ATOM     24  C   UNL     1      10.107  12.522  20.218  0.00  0.00    +0.000 A 
ATOM     25  C   UNL     1       9.993  13.397  19.127  0.00  0.00    +0.000 A 
ATOM     26  C   UNL     1       9.389  12.847  17.981  0.00  0.00    +0.000 A 
ATOM     27  C   UNL     1       9.019  11.493  17.888  0.00  0.00    +0.000 A 
BRANCH  25  28
ATOM     28  N   UNL     1      10.383  14.738  19.180  0.00  0.00    +0.000 N 
ATOM     29  C   UNL     1       9.396  15.803  19.375  0.00  0.00    +0.000 C 
ATOM     30  C   UNL     1      11.695  15.074  19.750  0.00  0.00    +0.000 C 
ENDBRANCH  25  28
ENDBRANCH  21  22
ENDBRANCH  19  21
ENDBRANCH  18  19
ENDBRANCH  17  18
ENDBRANCH   4  17
TORSDOF 8
ENDMDL
MODEL 4
REMARK VINA RESULT:      -7.8      0.726      1.133
REMARK  Name = 
REMARK  12 active torsions:
REMARK  status: ('A' for Active; 'I' for Inactive)
REMARK    1  A    between atoms: C_1  and  C_2
REMARK    2  A    between atoms: C_2  and  C_3
REMARK    3  A    between atoms: C_3  and  C_4
REMARK    4  A    between atoms: C_6  and  C_7
REMARK    5  A    between atoms: C_6  and  C_20
REMARK    6  A    between atoms: C_7  and  C_8
REMARK    7  A    between atoms: C_8  and  N_9
REMARK    8  A    between atoms: N_9  and  C_10
REMARK    9  A    between atoms: C_10  and  C_11
REMARK   10  A    between atoms: C_14  and  N_15
REMARK   11  A    between atoms: N_15  and  C_16
REMARK   12  A    between atoms: N_15  and  C_17
REMARK                            x       y       z     vdW  Elec       q    Type
REMARK                         _______ _______ _______ _____ _____    ______ ____
ROOT
ATOM      1  C   UNL     1       2.456   2.946  19.229  0.00  0.00    +0.000 C 
ATOM      2  C   UNL     1       1.533   1.755  18.964  0.00  0.00    +0.000 C 
ATOM      3  C   UNL     1       1.870   4.345  19.076  0.00  0.00    +0.000 C 
ATOM      4  C   UNL     1       3.021   5.386  18.738  0.00  0.00    +0.000 C 
ATOM      5  C   UNL     1       3.237   5.092  17.238  0.00  0.00    +0.000 C 
ATOM      6  C   UNL     1       3.254   3.559  17.011  0.00  0.00    +0.000 C 
ATOM      7  O   UNL     1       3.511   2.834  18.247  0.00  0.00    +0.000 OA
ENDROOT
BRANCH   4   8
ATOM      8  C   UNL     1       2.422   6.768  19.108  0.00  0.00    +0.000 A 
ATOM      9  C   UNL     1       1.997   6.989  20.446  0.00  0.00    +0.000 A 
ATOM     10  C   UNL     1       1.378   8.178  20.830  0.00  0.00    +0.000 A 
ATOM     11  C   UNL     1       1.205   9.179  19.889  0.00  0.00    +0.000 A 
ATOM     12  F   UNL     1       0.588  10.314  20.237  0.00  0.00    +0.000 F 
ATOM     13  C   UNL     1       1.665   9.014  18.586  0.00  0.00    +0.000 A 
ATOM     14  C   UNL     1       2.280   7.818  18.196  0.00  0.00    +0.000 A 
ENDBRANCH   4   8
BRANCH   1  16
ATOM     15  C   UNL     1       1.857   3.411  21.807  0.00  0.00    +0.000 C 
ATOM     16  C   UNL     1       2.814   2.917  20.756  0.00  0.00    +0.000 C 
ENDBRANCH   1  16
BRANCH   4  17
ATOM     17  C   UNL     1       4.458   5.367  19.461  0.00  0.00    +0.000 C 
BRANCH  17  18
ATOM     18  C   UNL     1       5.867   5.423  18.769  0.00  0.00    +0.000 C 
BRANCH  18  19
ATOM     19  N   UNL     1       6.056   6.077  17.478  0.00  0.00    +0.000 NA
ATOM     20  H   UNL     1       6.010   7.083  17.598  0.00  0.00    +0.000 HD
BRANCH  19  21
ATOM     21  C   UNL     1       7.247   5.672  16.754  0.00  0.00    +0.000 C 
BRANCH  21  22
ATOM     22  C   UNL     1       6.943   4.926  15.474  0.00  0.00    +0.000 A 
ATOM     23  C   UNL     1       6.127   3.794  15.496  0.00  0.00    +0.000 A 
ATOM     24  C   UNL     1       5.709   3.171  14.306  0.00  0.00    +0.000 A 
ATOM     25  C   UNL     1       6.089   3.641  13.039  0.00  0.00    +0.000 A 
ATOM     26  C   UNL     1       6.984   4.726  13.048  0.00  0.00    +0.000 A 
ATOM     27  C   UNL     1       7.393   5.369  14.230  0.00  0.00    +0.000 A 
BRANCH  25  28
ATOM     28  N   UNL     1       5.671   3.042  11.847  0.00  0.00    +0.000 N 
ATOM     29  C   UNL     1       6.185   1.732  11.442  0.00  0.00    +0.000 C 
ATOM     30  C   UNL     1       4.301   3.280  11.374  0.00  0.00    +0.000 C 
ENDBRANCH  25  28
ENDBRANCH  21  22
ENDBRANCH  19  21
ENDBRANCH  18  19
ENDBRANCH  17  18
ENDBRANCH   4  17
TORSDOF 8
ENDMDL
MODEL 5
REMARK VINA RESULT:      -7.8      0.576      1.082
REMARK  Name = 
REMARK  12 active torsions:
REMARK  status: ('A' for Active; 'I' for Inactive)
REMARK    1  A    between atoms: C_1  and  C_2
REMARK    2  A    between atoms: C_2  and  C_3
REMARK    3  A    between atoms: C_3  and  C_4
REMARK    4  A    between atoms: C_6  and  C_7
REMARK    5  A    between atoms: C_6  and  C_20
REMARK    6  A    between atoms: C_7  and  C_8
REMARK    7  A    between atoms: C_8  and  N_9
REMARK    8  A    between atoms: N_9  and  C_10
REMARK    9  A    between atoms: C_10  and  C_11
REMARK   10  A    between atoms: C_14  and  N_15
REMARK   11  A    between atoms: N_15  and  C_16
REMARK   12  A    between atoms: N_15  and  C_17
REMARK                            x       y       z     vdW  Elec       q    Type
REMARK                         _______ _______ _______ _____ _____    ______ ____
ROOT
ATOM      1  C   UNL     1       2.185   2.936  19.356  0.00  0.00    +0.000 C 
ATOM      2  C   UNL     1       1.268   1.741  19.089  0.00  0.00    +0.000 C 
ATOM      3  C   UNL     1       1.559   4.326  19.344  0.00  0.00    +0.000 C 
ATOM      4  C   UNL     1       2.655   5.416  18.982  0.00  0.00    +0.000 C 
ATOM      5  C   UNL     1       2.752   5.225  17.454  0.00  0.00    +0.000 C 
ATOM      6  C   UNL     1       2.783   3.710  17.125  0.00  0.00    +0.000 C 
ATOM      7  O   UNL     1       3.157   2.914  18.286  0.00  0.00    +0.000 OA
ENDROOT
BRANCH   4   8
ATOM      8  C   UNL     1       2.060   6.755  19.490  0.00  0.00    +0.000 A 
ATOM      9  C   UNL     1       2.051   7.873  18.611  0.00  0.00    +0.000 A 
ATOM     10  C   UNL     1       1.605   9.127  19.027  0.00  0.00    +0.000 A 
ATOM     11  C   UNL     1       1.127   9.275  20.318  0.00  0.00    +0.000 A 
ATOM     12  F   UNL     1       0.720  10.478  20.738  0.00  0.00    +0.000 F 
ATOM     13  C   UNL     1       1.067   8.185  21.181  0.00  0.00    +0.000 A 
ATOM     14  C   UNL     1       1.523   6.927  20.769  0.00  0.00    +0.000 A 
ENDBRANCH   4   8
BRANCH   1  16
ATOM     15  C   UNL     1       1.751   3.094  22.003  0.00  0.00    +0.000 C 
ATOM     16  C   UNL     1       2.669   2.818  20.844  0.00  0.00    +0.000 C 
ENDBRANCH   1  16
BRANCH   4  17
ATOM     17  C   UNL     1       4.148   5.389  19.583  0.00  0.00    +0.000 C 
BRANCH  17  18
ATOM     18  C   UNL     1       5.486   5.661  18.806  0.00  0.00    +0.000 C 
BRANCH  18  19
ATOM     19  N   UNL     1       6.574   4.691  18.801  0.00  0.00    +0.000 NA
ATOM     20  H   UNL     1       6.191   3.752  18.776  0.00  0.00    +0.000 HD
BRANCH  19  21
ATOM     21  C   UNL     1       7.572   4.894  17.765  0.00  0.00    +0.000 C 
BRANCH  21  22
ATOM     22  C   UNL     1       7.048   4.625  16.371  0.00  0.00    +0.000 A 
ATOM     23  C   UNL     1       7.601   5.284  15.272  0.00  0.00    +0.000 A 
ATOM     24  C   UNL     1       7.236   4.944  13.957  0.00  0.00    +0.000 A 
ATOM     25  C   UNL     1       6.297   3.940  13.673  0.00  0.00    +0.000 A 
ATOM     26  C   UNL     1       5.689   3.357  14.800  0.00  0.00    +0.000 A 
ATOM     27  C   UNL     1       6.060   3.673  16.119  0.00  0.00    +0.000 A 
BRANCH  25  28
ATOM     28  N   UNL     1       5.934   3.581  12.373  0.00  0.00    +0.000 N 
ATOM     29  C   UNL     1       6.844   2.812  11.521  0.00  0.00    +0.000 C 
ATOM     30  C   UNL     1       4.521   3.306  12.080  0.00  0.00    +0.000 C 
ENDBRANCH  25  28
ENDBRANCH  21  22
ENDBRANCH  19  21
ENDBRANCH  18  19
ENDBRANCH  17  18
ENDBRANCH   4  17
TORSDOF 8
ENDMDL
MODEL 6
REMARK VINA RESULT:      -7.7      1.014      1.530
REMARK  Name = 
REMARK  12 active torsions:
REMARK  status: ('A' for Active; 'I' for Inactive)
REMARK    1  A    between atoms: C_1  and  C_2
REMARK    2  A    between atoms: C_2  and  C_3
REMARK    3  A    between atoms: C_3  and  C_4
REMARK    4  A    between atoms: C_6  and  C_7
REMARK    5  A    between atoms: C_6  and  C_20
REMARK    6  A    between atoms: C_7  and  C_8
REMARK    7  A    between atoms: C_8  and  N_9
REMARK    8  A    between atoms: N_9  and  C_10
REMARK    9  A    between atoms: C_10  and  C_11
REMARK   10  A    between atoms: C_14  and  N_15
REMARK   11  A    between atoms: N_15  and  C_16
REMARK   12  A    between atoms: N_15  and  C_17
REMARK                            x       y       z     vdW  Elec       q    Type
REMARK                         _______ _______ _______ _____ _____    ______ ____
ROOT
ATOM      1  C   UNL     1       2.171   2.686  19.322  0.00  0.00    +0.000 C 
ATOM      2  C   UNL     1       1.215   1.533  19.011  0.00  0.00    +0.000 C 
ATOM      3  C   UNL     1       1.646   4.107  19.149  0.00  0.00    +0.000 C 
ATOM      4  C   UNL     1       2.849   5.104  18.866  0.00  0.00    +0.000 C 
ATOM      5  C   UNL     1       3.119   4.806  17.376  0.00  0.00    +0.000 C 
ATOM      6  C   UNL     1       3.088   3.274  17.143  0.00  0.00    +0.000 C 
ATOM      7  O   UNL     1       3.262   2.536  18.386  0.00  0.00    +0.000 OA
ENDROOT
BRANCH   4   8
ATOM      8  C   UNL     1       2.288   6.506  19.215  0.00  0.00    +0.000 A 
ATOM      9  C   UNL     1       2.248   7.497  18.196  0.00  0.00    +0.000 A 
ATOM     10  C   UNL     1       1.830   8.801  18.459  0.00  0.00    +0.000 A 
ATOM     11  C   UNL     1       1.412   9.127  19.738  0.00  0.00    +0.000 A 
ATOM     12  F   UNL     1       1.034  10.381  20.011  0.00  0.00    +0.000 F 
ATOM     13  C   UNL     1       1.383   8.163  20.741  0.00  0.00    +0.000 A 
ATOM     14  C   UNL     1       1.810   6.855  20.482  0.00  0.00    +0.000 A 
ENDBRANCH   4   8
BRANCH   1  16
ATOM     15  C   UNL     1       1.513   3.237  21.868  0.00  0.00    +0.000 C 
ATOM     16  C   UNL     1       2.460   2.639  20.863  0.00  0.00    +0.000 C 
ENDBRANCH   1  16
BRANCH   4  17
ATOM     17  C   UNL     1       4.252   5.028  19.651  0.00  0.00    +0.000 C 
BRANCH  17  18
ATOM     18  C   UNL     1       5.667   4.734  19.035  0.00  0.00    +0.000 C 
BRANCH  18  19
ATOM     19  N   UNL     1       6.682   5.776  18.930  0.00  0.00    +0.000 NA
ATOM     20  H   UNL     1       7.604   5.353  18.940  0.00  0.00    +0.000 HD
BRANCH  19  21
ATOM     21  C   UNL     1       6.517   6.682  17.808  0.00  0.00    +0.000 C 
BRANCH  21  22
ATOM     22  C   UNL     1       6.434   5.971  16.475  0.00  0.00    +0.000 A 
ATOM     23  C   UNL     1       7.367   4.988  16.142  0.00  0.00    +0.000 A 
ATOM     24  C   UNL     1       7.226   4.211  14.978  0.00  0.00    +0.000 A 
ATOM     25  C   UNL     1       6.155   4.381  14.086  0.00  0.00    +0.000 A 
ATOM     26  C   UNL     1       5.282   5.439  14.397  0.00  0.00    +0.000 A 
ATOM     27  C   UNL     1       5.400   6.209  15.569  0.00  0.00    +0.000 A 
BRANCH  25  28
ATOM     28  N   UNL     1       5.993   3.608  12.933  0.00  0.00    +0.000 N 
ATOM     29  C   UNL     1       4.689   3.501  12.276  0.00  0.00    +0.000 C 
ATOM     30  C   UNL     1       7.111   3.501  11.987  0.00  0.00    +0.000 C 
ENDBRANCH  25  28
ENDBRANCH  21  22
ENDBRANCH  19  21
ENDBRANCH  18  19
ENDBRANCH  17  18
ENDBRANCH   4  17
TORSDOF 8
ENDMDL
MODEL 7
REMARK VINA RESULT:      -7.7      3.707      8.643
REMARK  Name = 
REMARK  12 active torsions:
REMARK  status: ('A' for Active; 'I' for Inactive)
REMARK    1  A    between atoms: C_1  and  C_2
REMARK    2  A    between atoms: C_2  and  C_3
REMARK    3  A    between atoms: C_3  and  C_4
REMARK    4  A    between atoms: C_6  and  C_7
REMARK    5  A    between atoms: C_6  and  C_20
REMARK    6  A    between atoms: C_7  and  C_8
REMARK    7  A    between atoms: C_8  and  N_9
REMARK    8  A    between atoms: N_9  and  C_10
REMARK    9  A    between atoms: C_10  and  C_11
REMARK   10  A    between atoms: C_14  and  N_15
REMARK   11  A    between atoms: N_15  and  C_16
REMARK   12  A    between atoms: N_15  and  C_17
REMARK                            x       y       z     vdW  Elec       q    Type
REMARK                         _______ _______ _______ _____ _____    ______ ____
ROOT
ATOM      1  C   UNL     1       6.411   5.010  17.529  0.00  0.00    +0.000 C 
ATOM      2  C   UNL     1       7.736   4.324  17.194  0.00  0.00    +0.000 C 
ATOM      3  C   UNL     1       5.327   4.172  18.198  0.00  0.00    +0.000 C 
ATOM      4  C   UNL     1       3.894   4.779  17.884  0.00  0.00    +0.000 C 
ATOM      5  C   UNL     1       3.681   4.271  16.443  0.00  0.00    +0.000 C 
ATOM      6  C   UNL     1       4.987   4.464  15.630  0.00  0.00    +0.000 C 
ATOM      7  O   UNL     1       5.873   5.435  16.256  0.00  0.00    +0.000 OA
ENDROOT
BRANCH   4   8
ATOM      8  C   UNL     1       2.970   4.193  18.983  0.00  0.00    +0.000 A 
ATOM      9  C   UNL     1       3.242   4.511  20.342  0.00  0.00    +0.000 A 
ATOM     10  C   UNL     1       2.502   3.957  21.386  0.00  0.00    +0.000 A 
ATOM     11  C   UNL     1       1.455   3.103  21.086  0.00  0.00    +0.000 A 
ATOM     12  F   UNL     1       0.753   2.543  22.078  0.00  0.00    +0.000 F 
ATOM     13  C   UNL     1       1.126   2.820  19.763  0.00  0.00    +0.000 A 
ATOM     14  C   UNL     1       1.874   3.369  18.713  0.00  0.00    +0.000 A 
ENDBRANCH   4   8
BRANCH   1  16
ATOM     15  C   UNL     1       7.781   5.865  19.677  0.00  0.00    +0.000 C 
ATOM     16  C   UNL     1       6.715   6.079  18.637  0.00  0.00    +0.000 C 
ENDBRANCH   1  16
BRANCH   4  17
ATOM     17  C   UNL     1       3.590   6.359  17.906  0.00  0.00    +0.000 C 
BRANCH  17  18
ATOM     18  C   UNL     1       2.253   7.059  18.345  0.00  0.00    +0.000 C 
BRANCH  18  19
ATOM     19  N   UNL     1       2.220   8.012  19.449  0.00  0.00    +0.000 NA
ATOM     20  H   UNL     1       1.984   8.933  19.094  0.00  0.00    +0.000 HD
BRANCH  19  21
ATOM     21  C   UNL     1       1.372   7.629  20.563  0.00  0.00    +0.000 C 
BRANCH  21  22
ATOM     22  C   UNL     1       0.579   8.785  21.134  0.00  0.00    +0.000 A 
ATOM     23  C   UNL     1       0.131   8.746  22.455  0.00  0.00    +0.000 A 
ATOM     24  C   UNL     1      -0.477   9.865  23.054  0.00  0.00    +0.000 A 
ATOM     25  C   UNL     1      -0.674  11.071  22.364  0.00  0.00    +0.000 A 
ATOM     26  C   UNL     1      -0.297  11.053  21.009  0.00  0.00    +0.000 A 
ATOM     27  C   UNL     1       0.330   9.948  20.405  0.00  0.00    +0.000 A 
BRANCH  25  28
ATOM     28  N   UNL     1      -1.264  12.196  22.948  0.00  0.00    +0.000 N 
ATOM     29  C   UNL     1      -0.800  13.546  22.617  0.00  0.00    +0.000 C 
ATOM     30  C   UNL     1      -2.694  12.157  23.281  0.00  0.00    +0.000 C 
ENDBRANCH  25  28
ENDBRANCH  21  22
ENDBRANCH  19  21
ENDBRANCH  18  19
ENDBRANCH  17  18
ENDBRANCH   4  17
TORSDOF 8
ENDMDL
MODEL 8
REMARK VINA RESULT:      -7.7      0.935      1.316
REMARK  Name = 
REMARK  12 active torsions:
REMARK  status: ('A' for Active; 'I' for Inactive)
REMARK    1  A    between atoms: C_1  and  C_2
REMARK    2  A    between atoms: C_2  and  C_3
REMARK    3  A    between atoms: C_3  and  C_4
REMARK    4  A    between atoms: C_6  and  C_7
REMARK    5  A    between atoms: C_6  and  C_20
REMARK    6  A    between atoms: C_7  and  C_8
REMARK    7  A    between atoms: C_8  and  N_9
REMARK    8  A    between atoms: N_9  and  C_10
REMARK    9  A    between atoms: C_10  and  C_11
REMARK   10  A    between atoms: C_14  and  N_15
REMARK   11  A    between atoms: N_15  and  C_16
REMARK   12  A    between atoms: N_15  and  C_17
REMARK                            x       y       z     vdW  Elec       q    Type
REMARK                         _______ _______ _______ _____ _____    ______ ____
ROOT
ATOM      1  C   UNL     1       2.238   3.082  19.296  0.00  0.00    +0.000 C 
ATOM      2  C   UNL     1       1.311   1.911  18.967  0.00  0.00    +0.000 C 
ATOM      3  C   UNL     1       1.750   4.488  18.964  0.00  0.00    +0.000 C 
ATOM      4  C   UNL     1       2.987   5.458  18.743  0.00  0.00    +0.000 C 
ATOM      5  C   UNL     1       3.414   5.052  17.317  0.00  0.00    +0.000 C 
ATOM      6  C   UNL     1       3.393   3.507  17.194  0.00  0.00    +0.000 C 
ATOM      7  O   UNL     1       3.424   2.861  18.498  0.00  0.00    +0.000 OA
ENDROOT
BRANCH   4   8
ATOM      8  C   UNL     1       2.405   6.884  18.926  0.00  0.00    +0.000 A 
ATOM      9  C   UNL     1       1.903   7.256  20.203  0.00  0.00    +0.000 A 
ATOM     10  C   UNL     1       1.294   8.491  20.420  0.00  0.00    +0.000 A 
ATOM     11  C   UNL     1       1.209   9.390  19.370  0.00  0.00    +0.000 A 
ATOM     12  F   UNL     1       0.605  10.569  19.556  0.00  0.00    +0.000 F 
ATOM     13  C   UNL     1       1.746   9.079  18.124  0.00  0.00    +0.000 A 
ATOM     14  C   UNL     1       2.350   7.835  17.903  0.00  0.00    +0.000 A 
ENDBRANCH   4   8
BRANCH   1  16
ATOM     15  C   UNL     1       1.209   2.783  21.760  0.00  0.00    +0.000 C 
ATOM     16  C   UNL     1       2.357   3.147  20.859  0.00  0.00    +0.000 C 
ENDBRANCH   1  16
BRANCH   4  17
ATOM     17  C   UNL     1       4.294   5.437  19.681  0.00  0.00    +0.000 C 
BRANCH  17  18
ATOM     18  C   UNL     1       5.638   4.668  19.413  0.00  0.00    +0.000 C 
BRANCH  18  19
ATOM     19  N   UNL     1       6.931   5.253  19.752  0.00  0.00    +0.000 NA
ATOM     20  H   UNL     1       7.594   4.514  19.955  0.00  0.00    +0.000 HD
BRANCH  19  21
ATOM     21  C   UNL     1       7.452   6.194  18.778  0.00  0.00    +0.000 C 
BRANCH  21  22
ATOM     22  C   UNL     1       7.174   5.788  17.347  0.00  0.00    +0.000 A 
ATOM     23  C   UNL     1       7.600   4.546  16.873  0.00  0.00    +0.000 A 
ATOM     24  C   UNL     1       7.226   4.084  15.598  0.00  0.00    +0.000 A 
ATOM     25  C   UNL     1       6.418   4.837  14.732  0.00  0.00    +0.000 A 
ATOM     26  C   UNL     1       6.079   6.121  15.198  0.00  0.00    +0.000 A 
ATOM     27  C   UNL     1       6.429   6.587  16.479  0.00  0.00    +0.000 A 
BRANCH  25  28
ATOM     28  N   UNL     1       6.026   4.387  13.469  0.00  0.00    +0.000 N 
ATOM     29  C   UNL     1       7.017   4.127  12.422  0.00  0.00    +0.000 C 
ATOM     30  C   UNL     1       4.848   3.517  13.358  0.00  0.00    +0.000 C 
ENDBRANCH  25  28
ENDBRANCH  21  22
ENDBRANCH  19  21
ENDBRANCH  18  19
ENDBRANCH  17  18
ENDBRANCH   4  17
TORSDOF 8
ENDMDL
MODEL 9
REMARK VINA RESULT:      -7.6      3.590      8.440
REMARK  Name = 
REMARK  12 active torsions:
REMARK  status: ('A' for Active; 'I' for Inactive)
REMARK    1  A    between atoms: C_1  and  C_2
REMARK    2  A    between atoms: C_2  and  C_3
REMARK    3  A    between atoms: C_3  and  C_4
REMARK    4  A    between atoms: C_6  and  C_7
REMARK    5  A    between atoms: C_6  and  C_20
REMARK    6  A    between atoms: C_7  and  C_8
REMARK    7  A    between atoms: C_8  and  N_9
REMARK    8  A    between atoms: N_9  and  C_10
REMARK    9  A    between atoms: C_10  and  C_11
REMARK   10  A    between atoms: C_14  and  N_15
REMARK   11  A    between atoms: N_15  and  C_16
REMARK   12  A    between atoms: N_15  and  C_17
REMARK                            x       y       z     vdW  Elec       q    Type
REMARK                         _______ _______ _______ _____ _____    ______ ____
ROOT
ATOM      1  C   UNL     1       6.573   5.009  17.790  0.00  0.00    +0.000 C 
ATOM      2  C   UNL     1       7.831   4.274  17.322  0.00  0.00    +0.000 C 
ATOM      3  C   UNL     1       5.482   4.187  18.466  0.00  0.00    +0.000 C 
ATOM      4  C   UNL     1       4.073   4.898  18.289  0.00  0.00    +0.000 C 
ATOM      5  C   UNL     1       3.742   4.513  16.832  0.00  0.00    +0.000 C 
ATOM      6  C   UNL     1       5.006   4.690  15.952  0.00  0.00    +0.000 C 
ATOM      7  O   UNL     1       5.987   5.558  16.587  0.00  0.00    +0.000 OA
ENDROOT
BRANCH   4   8
ATOM      8  C   UNL     1       3.182   4.286  19.401  0.00  0.00    +0.000 A 
ATOM      9  C   UNL     1       3.703   3.217  20.179  0.00  0.00    +0.000 A 
ATOM     10  C   UNL     1       2.930   2.568  21.141  0.00  0.00    +0.000 A 
ATOM     11  C   UNL     1       1.634   3.001  21.365  0.00  0.00    +0.000 A 
ATOM     12  F   UNL     1       0.872   2.371  22.266  0.00  0.00    +0.000 F 
ATOM     13  C   UNL     1       1.117   4.084  20.661  0.00  0.00    +0.000 A 
ATOM     14  C   UNL     1       1.889   4.732  19.688  0.00  0.00    +0.000 A 
ENDBRANCH   4   8
BRANCH   1  16
ATOM     15  C   UNL     1       8.098   6.996  18.765  0.00  0.00    +0.000 C 
ATOM     16  C   UNL     1       7.010   5.973  18.948  0.00  0.00    +0.000 C 
ENDBRANCH   1  16
BRANCH   4  17
ATOM     17  C   UNL     1       3.869   6.487  18.442  0.00  0.00    +0.000 C 
BRANCH  17  18
ATOM     18  C   UNL     1       3.031   7.429  17.505  0.00  0.00    +0.000 C 
BRANCH  18  19
ATOM     19  N   UNL     1       1.857   8.142  17.996  0.00  0.00    +0.000 NA
ATOM     20  H   UNL     1       1.644   7.835  18.939  0.00  0.00    +0.000 HD
BRANCH  19  21
ATOM     21  C   UNL     1       1.935   9.588  17.903  0.00  0.00    +0.000 C 
BRANCH  21  22
ATOM     22  C   UNL     1       1.171  10.298  19.000  0.00  0.00    +0.000 A 
ATOM     23  C   UNL     1       0.742   9.596  20.127  0.00  0.00    +0.000 A 
ATOM     24  C   UNL     1       0.163  10.258  21.224  0.00  0.00    +0.000 A 
ATOM     25  C   UNL     1      -0.024  11.649  21.249  0.00  0.00    +0.000 A 
ATOM     26  C   UNL     1       0.333  12.320  20.065  0.00  0.00    +0.000 A 
ATOM     27  C   UNL     1       0.932  11.672  18.969  0.00  0.00    +0.000 A 
BRANCH  25  28
ATOM     28  N   UNL     1      -0.584  12.324  22.336  0.00  0.00    +0.000 N 
ATOM     29  C   UNL     1      -0.527  13.785  22.427  0.00  0.00    +0.000 C 
ATOM     30  C   UNL     1      -1.782  11.767  22.978  0.00  0.00    +0.000 C 
ENDBRANCH  25  28
ENDBRANCH  21  22
ENDBRANCH  19  21
ENDBRANCH  18  19
ENDBRANCH  17  18
ENDBRANCH   4  17
TORSDOF 8
ENDMDL
