MODEL 1
REMARK VINA RESULT:      -7.5      0.000      0.000
REMARK  Name = 
REMARK  2 active torsions:
REMARK  status: ('A' for Active; 'I' for Inactive)
REMARK    1  A    between atoms: C_2  and  C_3
REMARK    2  A    between atoms: C_7  and  C_8
REMARK                            x       y       z     vdW  Elec       q    Type
REMARK                         _______ _______ _______ _____ _____    ______ ____
ROOT
ATOM      1  C   UNL     1       3.972   3.896  17.846  0.00  0.00    +0.000 C 
ATOM      2  C   UNL     1       2.728   3.957  17.328  0.00  0.00    +0.000 C 
ATOM      3  C   UNL     1       1.506   3.999  18.216  0.00  0.00    +0.000 C 
ATOM      4  C   UNL     1       0.970   2.579  18.501  0.00  0.00    +0.000 C 
ATOM      5  N   UNL     1       1.866   1.754  19.328  0.00  0.00    +0.000 NA
ATOM      6  C   UNL     1       2.298   2.476  20.528  0.00  0.00    +0.000 C 
ATOM      7  C   UNL     1       2.938   3.842  20.222  0.00  0.00    +0.000 C 
ATOM      8  C   UNL     1       4.208   3.726  19.341  0.00  0.00    +0.000 C 
ATOM      9  C   UNL     1       1.891   4.711  19.521  0.00  0.00    +0.000 C 
ATOM     10  H   UNL     1       2.688   1.523  18.770  0.00  0.00    +0.000 HD
ENDROOT
BRANCH   1  15
ATOM     11  C   UNL     1       6.191   4.110  14.809  0.00  0.00    +0.000 A 
ATOM     12  C   UNL     1       7.223   4.865  15.336  0.00  0.00    +0.000 A 
ATOM     13  N   UNL     1       7.288   5.243  16.632  0.00  0.00    +0.000 NA
ATOM     14  C   UNL     1       6.257   4.867  17.429  0.00  0.00    +0.000 A 
ATOM     15  C   UNL     1       5.158   4.126  16.999  0.00  0.00    +0.000 A 
ATOM     16  C   UNL     1       5.150   3.732  15.654  0.00  0.00    +0.000 A 
BRANCH  11  18
ATOM     17  N   UNL     1       6.167   3.463  12.306  0.00  0.00    +0.000 NA
ATOM     18  C   UNL     1       6.174   3.759  13.425  0.00  0.00    +0.000 C 
ENDBRANCH  11  18
ENDBRANCH   1  15
TORSDOF 2
ENDMDL
MODEL 2
REMARK VINA RESULT:      -7.4      1.151      1.491
REMARK  Name = 
REMARK  2 active torsions:
REMARK  status: ('A' for Active; 'I' for Inactive)
REMARK    1  A    between atoms: C_2  and  C_3
REMARK    2  A    between atoms: C_7  and  C_8
REMARK                            x       y       z     vdW  Elec       q    Type
REMARK                         _______ _______ _______ _____ _____    ______ ____
ROOT
ATOM      1  C   UNL     1       4.147   4.310  17.290  0.00  0.00    +0.000 C 
ATOM      2  C   UNL     1       3.528   3.115  17.395  0.00  0.00    +0.000 C 
ATOM      3  C   UNL     1       2.198   2.975  18.097  0.00  0.00    +0.000 C 
ATOM      4  C   UNL     1       2.385   2.646  19.594  0.00  0.00    +0.000 C 
ATOM      5  N   UNL     1       2.983   3.739  20.380  0.00  0.00    +0.000 NA
ATOM      6  C   UNL     1       2.293   5.009  20.134  0.00  0.00    +0.000 C 
ATOM      7  C   UNL     1       2.215   5.384  18.643  0.00  0.00    +0.000 C 
ATOM      8  C   UNL     1       3.612   5.551  17.992  0.00  0.00    +0.000 C 
ATOM      9  C   UNL     1       1.426   4.291  17.919  0.00  0.00    +0.000 C 
ATOM     10  H   UNL     1       3.958   3.835  20.096  0.00  0.00    +0.000 HD
ENDROOT
BRANCH   1  15
ATOM     11  C   UNL     1       6.304   4.172  14.204  0.00  0.00    +0.000 A 
ATOM     12  C   UNL     1       7.261   5.106  14.557  0.00  0.00    +0.000 A 
ATOM     13  N   UNL     1       7.302   5.720  15.760  0.00  0.00    +0.000 NA
ATOM     14  C   UNL     1       6.321   5.400  16.640  0.00  0.00    +0.000 A 
ATOM     15  C   UNL     1       5.296   4.491  16.383  0.00  0.00    +0.000 A 
ATOM     16  C   UNL     1       5.314   3.859  15.133  0.00  0.00    +0.000 A 
BRANCH  11  18
ATOM     17  N   UNL     1       6.324   3.086  11.859  0.00  0.00    +0.000 NA
ATOM     18  C   UNL     1       6.308   3.574  12.909  0.00  0.00    +0.000 C 
ENDBRANCH  11  18
ENDBRANCH   1  15
TORSDOF 2
ENDMDL
MODEL 3
REMARK VINA RESULT:      -7.4      1.835      6.255
REMARK  Name = 
REMARK  2 active torsions:
REMARK  status: ('A' for Active; 'I' for Inactive)
REMARK    1  A    between atoms: C_2  and  C_3
REMARK    2  A    between atoms: C_7  and  C_8
REMARK                            x       y       z     vdW  Elec       q    Type
REMARK                         _______ _______ _______ _____ _____    ______ ____
ROOT
ATOM      1  C   UNL     1       4.577   4.477  17.838  0.00  0.00    +0.000 C 
ATOM      2  C   UNL     1       5.395   5.007  18.772  0.00  0.00    +0.000 C 
ATOM      3  C   UNL     1       6.552   5.900  18.392  0.00  0.00    +0.000 C 
ATOM      4  C   UNL     1       7.847   5.084  18.186  0.00  0.00    +0.000 C 
ATOM      5  N   UNL     1       7.813   4.188  17.018  0.00  0.00    +0.000 NA
ATOM      6  C   UNL     1       7.362   4.897  15.817  0.00  0.00    +0.000 C 
ATOM      7  C   UNL     1       6.010   5.611  16.000  0.00  0.00    +0.000 C 
ATOM      8  C   UNL     1       4.858   4.634  16.350  0.00  0.00    +0.000 C 
ATOM      9  C   UNL     1       6.170   6.653  17.109  0.00  0.00    +0.000 C 
ATOM     10  H   UNL     1       7.158   3.432  17.219  0.00  0.00    +0.000 HD
ENDROOT
BRANCH   1  15
ATOM     11  C   UNL     1       1.817   3.019  19.946  0.00  0.00    +0.000 A 
ATOM     12  C   UNL     1       0.812   2.967  18.997  0.00  0.00    +0.000 A 
ATOM     13  N   UNL     1       0.990   3.298  17.700  0.00  0.00    +0.000 NA
ATOM     14  C   UNL     1       2.227   3.725  17.343  0.00  0.00    +0.000 A 
ATOM     15  C   UNL     1       3.305   3.836  18.220  0.00  0.00    +0.000 A 
ATOM     16  C   UNL     1       3.079   3.453  19.549  0.00  0.00    +0.000 A 
BRANCH  11  18
ATOM     17  N   UNL     1       1.339   2.381  22.406  0.00  0.00    +0.000 NA
ATOM     18  C   UNL     1       1.557   2.672  21.306  0.00  0.00    +0.000 C 
ENDBRANCH  11  18
ENDBRANCH   1  15
TORSDOF 2
ENDMDL
MODEL 4
REMARK VINA RESULT:      -7.3      1.065      1.795
REMARK  Name = 
REMARK  2 active torsions:
REMARK  status: ('A' for Active; 'I' for Inactive)
REMARK    1  A    between atoms: C_2  and  C_3
REMARK    2  A    between atoms: C_7  and  C_8
REMARK                            x       y       z     vdW  Elec       q    Type
REMARK                         _______ _______ _______ _____ _____    ______ ____
ROOT
ATOM      1  C   UNL     1       4.029   3.768  18.333  0.00  0.00    +0.000 C 
ATOM      2  C   UNL     1       3.972   2.673  19.120  0.00  0.00    +0.000 C 
ATOM      3  C   UNL     1       2.684   2.243  19.781  0.00  0.00    +0.000 C 
ATOM      4  C   UNL     1       2.539   2.865  21.187  0.00  0.00    +0.000 C 
ATOM      5  N   UNL     1       2.356   4.326  21.182  0.00  0.00    +0.000 NA
ATOM      6  C   UNL     1       1.301   4.727  20.245  0.00  0.00    +0.000 C 
ATOM      7  C   UNL     1       1.519   4.196  18.816  0.00  0.00    +0.000 C 
ATOM      8  C   UNL     1       2.838   4.705  18.182  0.00  0.00    +0.000 C 
ATOM      9  C   UNL     1       1.520   2.666  18.873  0.00  0.00    +0.000 C 
ATOM     10  H   UNL     1       3.235   4.754  20.889  0.00  0.00    +0.000 HD
ENDROOT
BRANCH   1  15
ATOM     11  C   UNL     1       6.205   4.134  15.280  0.00  0.00    +0.000 A 
ATOM     12  C   UNL     1       7.257   4.838  15.836  0.00  0.00    +0.000 A 
ATOM     13  N   UNL     1       7.349   5.133  17.152  0.00  0.00    +0.000 NA
ATOM     14  C   UNL     1       6.324   4.725  17.940  0.00  0.00    +0.000 A 
ATOM     15  C   UNL     1       5.205   4.030  17.483  0.00  0.00    +0.000 A 
ATOM     16  C   UNL     1       5.170   3.722  16.117  0.00  0.00    +0.000 A 
BRANCH  11  18
ATOM     17  N   UNL     1       6.130   3.646  12.742  0.00  0.00    +0.000 NA
ATOM     18  C   UNL     1       6.161   3.871  13.877  0.00  0.00    +0.000 C 
ENDBRANCH  11  18
ENDBRANCH   1  15
TORSDOF 2
ENDMDL
MODEL 5
REMARK VINA RESULT:      -7.3      1.992      6.204
REMARK  Name = 
REMARK  2 active torsions:
REMARK  status: ('A' for Active; 'I' for Inactive)
REMARK    1  A    between atoms: C_2  and  C_3
REMARK    2  A    between atoms: C_7  and  C_8
REMARK                            x       y       z     vdW  Elec       q    Type
REMARK                         _______ _______ _______ _____ _____    ______ ____
ROOT
ATOM      1  C   UNL     1       4.957   4.450  17.875  0.00  0.00    +0.000 C 
ATOM      2  C   UNL     1       5.561   4.153  16.706  0.00  0.00    +0.000 C 
ATOM      3  C   UNL     1       7.009   4.504  16.455  0.00  0.00    +0.000 C 
ATOM      4  C   UNL     1       7.144   5.896  15.800  0.00  0.00    +0.000 C 
ATOM      5  N   UNL     1       6.752   7.012  16.677  0.00  0.00    +0.000 NA
ATOM      6  C   UNL     1       7.396   6.910  17.990  0.00  0.00    +0.000 C 
ATOM      7  C   UNL     1       7.156   5.557  18.684  0.00  0.00    +0.000 C 
ATOM      8  C   UNL     1       5.655   5.276  18.948  0.00  0.00    +0.000 C 
ATOM      9  C   UNL     1       7.748   4.457  17.800  0.00  0.00    +0.000 C 
ATOM     10  H   UNL     1       5.740   6.974  16.804  0.00  0.00    +0.000 HD
ENDROOT
BRANCH   1  15
ATOM     11  C   UNL     1       2.071   3.113  19.895  0.00  0.00    +0.000 A 
ATOM     12  C   UNL     1       1.088   3.131  18.923  0.00  0.00    +0.000 A 
ATOM     13  N   UNL     1       1.315   3.472  17.635  0.00  0.00    +0.000 NA
ATOM     14  C   UNL     1       2.581   3.835  17.314  0.00  0.00    +0.000 A 
ATOM     15  C   UNL     1       3.643   3.874  18.217  0.00  0.00    +0.000 A 
ATOM     16  C   UNL     1       3.365   3.484  19.534  0.00  0.00    +0.000 A 
BRANCH  11  18
ATOM     17  N   UNL     1       1.497   2.471  22.333  0.00  0.00    +0.000 NA
ATOM     18  C   UNL     1       1.761   2.760  21.243  0.00  0.00    +0.000 C 
ENDBRANCH  11  18
ENDBRANCH   1  15
TORSDOF 2
ENDMDL
MODEL 6
REMARK VINA RESULT:      -7.2      1.360      2.031
REMARK  Name = 
REMARK  2 active torsions:
REMARK  status: ('A' for Active; 'I' for Inactive)
REMARK    1  A    between atoms: C_2  and  C_3
REMARK    2  A    between atoms: C_7  and  C_8
REMARK                            x       y       z     vdW  Elec       q    Type
REMARK                         _______ _______ _______ _____ _____    ______ ____
ROOT
ATOM      1  C   UNL     1       3.557   4.072  18.160  0.00  0.00    +0.000 C 
ATOM      2  C   UNL     1       3.985   3.066  18.951  0.00  0.00    +0.000 C 
ATOM      3  C   UNL     1       3.016   2.217  19.740  0.00  0.00    +0.000 C 
ATOM      4  C   UNL     1       2.783   2.797  21.152  0.00  0.00    +0.000 C 
ATOM      5  N   UNL     1       2.070   4.086  21.162  0.00  0.00    +0.000 NA
ATOM      6  C   UNL     1       0.860   4.030  20.336  0.00  0.00    +0.000 C 
ATOM      7  C   UNL     1       1.125   3.561  18.894  0.00  0.00    +0.000 C 
ATOM      8  C   UNL     1       2.095   4.496  18.127  0.00  0.00    +0.000 C 
ATOM      9  C   UNL     1       1.700   2.143  18.954  0.00  0.00    +0.000 C 
ATOM     10  H   UNL     1       2.695   4.796  20.780  0.00  0.00    +0.000 HD
ENDROOT
BRANCH   1  15
ATOM     11  C   UNL     1       5.587   4.691  15.047  0.00  0.00    +0.000 A 
ATOM     12  C   UNL     1       5.873   6.032  15.228  0.00  0.00    +0.000 A 
ATOM     13  N   UNL     1       5.522   6.731  16.329  0.00  0.00    +0.000 NA
ATOM     14  C   UNL     1       4.828   6.059  17.281  0.00  0.00    +0.000 A 
ATOM     15  C   UNL     1       4.467   4.716  17.194  0.00  0.00    +0.000 A 
ATOM     16  C   UNL     1       4.881   4.026  16.046  0.00  0.00    +0.000 A 
BRANCH  11  18
ATOM     17  N   UNL     1       6.291   3.458  12.886  0.00  0.00    +0.000 NA
ATOM     18  C   UNL     1       5.973   4.015  13.850  0.00  0.00    +0.000 C 
ENDBRANCH  11  18
ENDBRANCH   1  15
TORSDOF 2
ENDMDL
MODEL 7
REMARK VINA RESULT:      -7.2      1.661      3.098
REMARK  Name = 
REMARK  2 active torsions:
REMARK  status: ('A' for Active; 'I' for Inactive)
REMARK    1  A    between atoms: C_2  and  C_3
REMARK    2  A    between atoms: C_7  and  C_8
REMARK                            x       y       z     vdW  Elec       q    Type
REMARK                         _______ _______ _______ _____ _____    ______ ____
ROOT
ATOM      1  C   UNL     1       3.782   4.058  18.296  0.00  0.00    +0.000 C 
ATOM      2  C   UNL     1       3.970   2.920  18.996  0.00  0.00    +0.000 C 
ATOM      3  C   UNL     1       2.821   2.214  19.677  0.00  0.00    +0.000 C 
ATOM      4  C   UNL     1       2.647   2.700  21.132  0.00  0.00    +0.000 C 
ATOM      5  N   UNL     1       2.202   4.098  21.250  0.00  0.00    +0.000 NA
ATOM      6  C   UNL     1       1.040   4.361  20.395  0.00  0.00    +0.000 C 
ATOM      7  C   UNL     1       1.268   3.980  18.921  0.00  0.00    +0.000 C 
ATOM      8  C   UNL     1       2.434   4.767  18.270  0.00  0.00    +0.000 C 
ATOM      9  C   UNL     1       1.550   2.477  18.856  0.00  0.00    +0.000 C 
ATOM     10  H   UNL     1       2.970   4.701  20.953  0.00  0.00    +0.000 HD
ENDROOT
BRANCH   1  15
ATOM     11  C   UNL     1       6.613   6.193  17.023  0.00  0.00    +0.000 A 
ATOM     12  C   UNL     1       7.041   5.399  15.975  0.00  0.00    +0.000 A 
ATOM     13  N   UNL     1       6.424   4.257  15.601  0.00  0.00    +0.000 NA
ATOM     14  C   UNL     1       5.344   3.881  16.329  0.00  0.00    +0.000 A 
ATOM     15  C   UNL     1       4.840   4.592  17.418  0.00  0.00    +0.000 A 
ATOM     16  C   UNL     1       5.495   5.785  17.748  0.00  0.00    +0.000 A 
BRANCH  11  18
ATOM     17  N   UNL     1       7.885   8.350  17.667  0.00  0.00    +0.000 NA
ATOM     18  C   UNL     1       7.322   7.381  17.378  0.00  0.00    +0.000 C 
ENDBRANCH  11  18
ENDBRANCH   1  15
TORSDOF 2
ENDMDL
MODEL 8
REMARK VINA RESULT:      -7.2      1.054      1.941
REMARK  Name = 
REMARK  2 active torsions:
REMARK  status: ('A' for Active; 'I' for Inactive)
REMARK    1  A    between atoms: C_2  and  C_3
REMARK    2  A    between atoms: C_7  and  C_8
REMARK                            x       y       z     vdW  Elec       q    Type
REMARK                         _______ _______ _______ _____ _____    ______ ____
ROOT
ATOM      1  C   UNL     1       4.440   3.811  17.605  0.00  0.00    +0.000 C 
ATOM      2  C   UNL     1       4.710   3.769  18.927  0.00  0.00    +0.000 C 
ATOM      3  C   UNL     1       3.752   3.134  19.907  0.00  0.00    +0.000 C 
ATOM      4  C   UNL     1       2.757   4.171  20.472  0.00  0.00    +0.000 C 
ATOM      5  N   UNL     1       1.805   4.694  19.477  0.00  0.00    +0.000 NA
ATOM      6  C   UNL     1       1.167   3.606  18.728  0.00  0.00    +0.000 C 
ATOM      7  C   UNL     1       2.174   2.644  18.072  0.00  0.00    +0.000 C 
ATOM      8  C   UNL     1       3.100   3.350  17.048  0.00  0.00    +0.000 C 
ATOM      9  C   UNL     1       3.011   2.002  19.181  0.00  0.00    +0.000 C 
ATOM     10  H   UNL     1       2.323   5.283  18.823  0.00  0.00    +0.000 HD
ENDROOT
BRANCH   1  15
ATOM     11  C   UNL     1       6.326   4.143  14.361  0.00  0.00    +0.000 A 
ATOM     12  C   UNL     1       7.214   5.141  14.718  0.00  0.00    +0.000 A 
ATOM     13  N   UNL     1       7.298   5.659  15.963  0.00  0.00    +0.000 NA
ATOM     14  C   UNL     1       6.433   5.171  16.886  0.00  0.00    +0.000 A 
ATOM     15  C   UNL     1       5.483   4.183  16.631  0.00  0.00    +0.000 A 
ATOM     16  C   UNL     1       5.455   3.655  15.333  0.00  0.00    +0.000 A 
BRANCH  11  18
ATOM     17  N   UNL     1       6.250   3.254  11.934  0.00  0.00    +0.000 NA
ATOM     18  C   UNL     1       6.277   3.651  13.022  0.00  0.00    +0.000 C 
ENDBRANCH  11  18
ENDBRANCH   1  15
TORSDOF 2
ENDMDL
MODEL 9
REMARK VINA RESULT:      -7.0      1.356      2.590
REMARK  Name = 
REMARK  2 active torsions:
REMARK  status: ('A' for Active; 'I' for Inactive)
REMARK    1  A    between atoms: C_2  and  C_3
REMARK    2  A    between atoms: C_7  and  C_8
REMARK                            x       y       z     vdW  Elec       q    Type
REMARK                         _______ _______ _______ _____ _____    ______ ____
ROOT
ATOM      1  C   UNL     1       3.645   4.231  18.134  0.00  0.00    +0.000 C 
ATOM      2  C   UNL     1       2.408   4.144  17.603  0.00  0.00    +0.000 C 
ATOM      3  C   UNL     1       1.190   3.930  18.471  0.00  0.00    +0.000 C 
ATOM      4  C   UNL     1       0.874   2.428  18.636  0.00  0.00    +0.000 C 
ATOM      5  N   UNL     1       1.882   1.684  19.411  0.00  0.00    +0.000 NA
ATOM      6  C   UNL     1       2.195   2.366  20.670  0.00  0.00    +0.000 C 
ATOM      7  C   UNL     1       2.622   3.833  20.481  0.00  0.00    +0.000 C 
ATOM      8  C   UNL     1       3.898   3.980  19.614  0.00  0.00    +0.000 C 
ATOM      9  C   UNL     1       1.458   4.586  19.833  0.00  0.00    +0.000 C 
ATOM     10  H   UNL     1       2.732   1.625  18.849  0.00  0.00    +0.000 HD
ENDROOT
BRANCH   1  15
ATOM     11  C   UNL     1       6.655   6.215  17.039  0.00  0.00    +0.000 A 
ATOM     12  C   UNL     1       7.115   5.388  16.031  0.00  0.00    +0.000 A 
ATOM     13  N   UNL     1       6.473   4.271  15.627  0.00  0.00    +0.000 NA
ATOM     14  C   UNL     1       5.328   3.955  16.282  0.00  0.00    +0.000 A 
ATOM     15  C   UNL     1       4.785   4.703  17.326  0.00  0.00    +0.000 A 
ATOM     16  C   UNL     1       5.472   5.869  17.689  0.00  0.00    +0.000 A 
BRANCH  11  18
ATOM     17  N   UNL     1       7.979   8.318  17.751  0.00  0.00    +0.000 NA
ATOM     18  C   UNL     1       7.392   7.373  17.431  0.00  0.00    +0.000 C 
ENDBRANCH  11  18
ENDBRANCH   1  15
TORSDOF 2
ENDMDL
