MODEL 1
REMARK VINA RESULT:      -7.3      0.000      0.000
REMARK  Name = 
REMARK  13 active torsions:
REMARK  status: ('A' for Active; 'I' for Inactive)
REMARK    1  A    between atoms: C_1  and  C_2
REMARK    2  A    between atoms: C_2  and  C_3
REMARK    3  A    between atoms: C_3  and  C_4
REMARK    4  A    between atoms: C_4  and  C_5
REMARK    5  A    between atoms: C_5  and  C_6
REMARK    6  A    between atoms: C_6  and  N_7
REMARK    7  A    between atoms: N_10  and  C_11
REMARK    8  A    between atoms: C_11  and  C_12
REMARK    9  A    between atoms: C_12  and  O_13
REMARK   10  A    between atoms: C_12  and  C_14
REMARK   11  A    between atoms: C_14  and  O_15
REMARK   12  A    between atoms: O_15  and  C_16
REMARK   13  A    between atoms: C_21  and  C_22
REMARK                            x       y       z     vdW  Elec       q    Type
REMARK                         _______ _______ _______ _____ _____    ______ ____
ROOT
ATOM      1  N   UNL     1       5.134   4.985  17.618  0.00  0.00    +0.000 N 
ATOM      2  C   UNL     1       4.723   6.285  17.613  0.00  0.00    +0.000 A 
ATOM      3  N   UNL     1       5.517   7.288  17.486  0.00  0.00    +0.000 NA
ATOM      4  N   UNL     1       3.367   6.405  17.740  0.00  0.00    +0.000 N 
ATOM      5  C   UNL     1       2.933   5.129  17.855  0.00  0.00    +0.000 A 
ATOM      6  C   UNL     1       1.624   4.657  17.998  0.00  0.00    +0.000 A 
ATOM      7  C   UNL     1       1.433   3.264  18.088  0.00  0.00    +0.000 A 
ATOM      8  C   UNL     1       2.535   2.386  18.048  0.00  0.00    +0.000 A 
ATOM      9  C   UNL     1       3.838   2.888  17.907  0.00  0.00    +0.000 A 
ATOM     10  C   UNL     1       4.002   4.272  17.800  0.00  0.00    +0.000 A 
ATOM     11  H   UNL     1       6.535   7.225  17.387  0.00  0.00    +0.000 HD
ENDROOT
BRANCH   1  12
ATOM     12  C   UNL     1       6.493   4.452  17.410  0.00  0.00    +0.000 C 
BRANCH  12  13
ATOM     13  C   UNL     1       6.882   4.545  15.923  0.00  0.00    +0.000 C 
BRANCH  13  14
ATOM     14  C   UNL     1       6.052   3.596  15.043  0.00  0.00    +0.000 C 
BRANCH  14  15
ATOM     15  C   UNL     1       5.663   4.280  13.730  0.00  0.00    +0.000 C 
BRANCH  15  17
ATOM     16  C   UNL     1       5.130   2.917  11.680  0.00  0.00    +0.000 C 
ATOM     17  C   UNL     1       6.241   3.527  12.529  0.00  0.00    +0.000 C 
ENDBRANCH  15  17
ENDBRANCH  14  15
ENDBRANCH  13  14
ENDBRANCH  12  13
ENDBRANCH   1  12
BRANCH   4  18
ATOM     18  C   UNL     1       2.494   7.596  17.744  0.00  0.00    +0.000 C 
BRANCH  18  19
ATOM     19  C   UNL     1       1.809   7.889  19.100  0.00  0.00    +0.000 C 
BRANCH  19  20
ATOM     20  O   UNL     1       2.600   7.446  20.178  0.00  0.00    +0.000 OA
ATOM     21  H   UNL     1       3.087   8.229  20.545  0.00  0.00    +0.000 HD
ENDBRANCH  19  20
BRANCH  19  22
ATOM     22  C   UNL     1       1.512   9.374  19.276  0.00  0.00    +0.000 C 
BRANCH  22  23
ATOM     23  O   UNL     1       0.175   9.536  19.587  0.00  0.00    +0.000 OA
BRANCH  23  24
ATOM     24  C   UNL     1      -0.300  10.077  20.738  0.00  0.00    +0.000 A 
ATOM     25  C   UNL     1      -0.155   9.416  21.976  0.00  0.00    +0.000 A 
ATOM     26  C   UNL     1      -0.663   9.980  23.143  0.00  0.00    +0.000 A 
ATOM     27  C   UNL     1      -1.321  11.208  23.098  0.00  0.00    +0.000 A 
ATOM     28  C   UNL     1      -1.469  11.880  21.882  0.00  0.00    +0.000 A 
ATOM     29  C   UNL     1      -0.962  11.324  20.695  0.00  0.00    +0.000 A 
ATOM     30  C   UNL     1      -1.133  12.059  19.392  0.00  0.00    +0.000 C 
ENDBRANCH  23  24
ENDBRANCH  22  23
ENDBRANCH  19  22
ENDBRANCH  18  19
ENDBRANCH   4  18
TORSDOF 11
ENDMDL
MODEL 2
REMARK VINA RESULT:      -7.3      2.091      3.977
REMARK  Name = 
REMARK  13 active torsions:
REMARK  status: ('A' for Active; 'I' for Inactive)
REMARK    1  A    between atoms: C_1  and  C_2
REMARK    2  A    between atoms: C_2  and  C_3
REMARK    3  A    between atoms: C_3  and  C_4
REMARK    4  A    between atoms: C_4  and  C_5
REMARK    5  A    between atoms: C_5  and  C_6
REMARK    6  A    between atoms: C_6  and  N_7
REMARK    7  A    between atoms: N_10  and  C_11
REMARK    8  A    between atoms: C_11  and  C_12
REMARK    9  A    between atoms: C_12  and  O_13
REMARK   10  A    between atoms: C_12  and  C_14
REMARK   11  A    between atoms: C_14  and  O_15
REMARK   12  A    between atoms: O_15  and  C_16
REMARK   13  A    between atoms: C_21  and  C_22
REMARK                            x       y       z     vdW  Elec       q    Type
REMARK                         _______ _______ _______ _____ _____    ______ ____
ROOT
ATOM      1  N   UNL     1       4.902   4.494  16.306  0.00  0.00    +0.000 N 
ATOM      2  C   UNL     1       4.028   3.851  17.132  0.00  0.00    +0.000 A 
ATOM      3  N   UNL     1       3.014   3.177  16.721  0.00  0.00    +0.000 NA
ATOM      4  N   UNL     1       4.361   3.988  18.451  0.00  0.00    +0.000 N 
ATOM      5  C   UNL     1       5.465   4.767  18.434  0.00  0.00    +0.000 A 
ATOM      6  C   UNL     1       6.240   5.217  19.509  0.00  0.00    +0.000 A 
ATOM      7  C   UNL     1       7.361   6.019  19.221  0.00  0.00    +0.000 A 
ATOM      8  C   UNL     1       7.675   6.362  17.890  0.00  0.00    +0.000 A 
ATOM      9  C   UNL     1       6.879   5.899  16.832  0.00  0.00    +0.000 A 
ATOM     10  C   UNL     1       5.782   5.088  17.139  0.00  0.00    +0.000 A 
ATOM     11  H   UNL     1       2.745   3.057  15.738  0.00  0.00    +0.000 HD
ENDROOT
BRANCH   1  12
ATOM     12  C   UNL     1       4.934   4.499  14.832  0.00  0.00    +0.000 C 
BRANCH  12  13
ATOM     13  C   UNL     1       6.141   3.689  14.320  0.00  0.00    +0.000 C 
BRANCH  13  14
ATOM     14  C   UNL     1       6.379   3.887  12.815  0.00  0.00    +0.000 C 
BRANCH  14  15
ATOM     15  C   UNL     1       5.454   2.982  11.998  0.00  0.00    +0.000 C 
BRANCH  15  17
ATOM     16  C   UNL     1       3.298   2.924  10.697  0.00  0.00    +0.000 C 
ATOM     17  C   UNL     1       4.420   3.809  11.228  0.00  0.00    +0.000 C 
ENDBRANCH  15  17
ENDBRANCH  14  15
ENDBRANCH  13  14
ENDBRANCH  12  13
ENDBRANCH   1  12
BRANCH   4  18
ATOM     18  C   UNL     1       3.736   3.440  19.672  0.00  0.00    +0.000 C 
BRANCH  18  19
ATOM     19  C   UNL     1       2.531   4.253  20.201  0.00  0.00    +0.000 C 
BRANCH  19  20
ATOM     20  O   UNL     1       2.775   4.741  21.500  0.00  0.00    +0.000 OA
ATOM     21  H   UNL     1       1.947   4.620  22.034  0.00  0.00    +0.000 HD
ENDBRANCH  19  20
BRANCH  19  22
ATOM     22  C   UNL     1       2.189   5.422  19.285  0.00  0.00    +0.000 C 
BRANCH  22  23
ATOM     23  O   UNL     1       2.467   6.608  19.938  0.00  0.00    +0.000 OA
BRANCH  23  24
ATOM     24  C   UNL     1       1.999   7.829  19.575  0.00  0.00    +0.000 A 
ATOM     25  C   UNL     1       1.125   8.560  20.408  0.00  0.00    +0.000 A 
ATOM     26  C   UNL     1       0.644   9.804  20.010  0.00  0.00    +0.000 A 
ATOM     27  C   UNL     1       1.023  10.341  18.781  0.00  0.00    +0.000 A 
ATOM     28  C   UNL     1       1.891   9.635  17.945  0.00  0.00    +0.000 A 
ATOM     29  C   UNL     1       2.386   8.377  18.332  0.00  0.00    +0.000 A 
ATOM     30  C   UNL     1       3.319   7.628  17.419  0.00  0.00    +0.000 C 
ENDBRANCH  23  24
ENDBRANCH  22  23
ENDBRANCH  19  22
ENDBRANCH  18  19
ENDBRANCH   4  18
TORSDOF 11
ENDMDL
MODEL 3
REMARK VINA RESULT:      -7.3      4.659      7.548
REMARK  Name = 
REMARK  13 active torsions:
REMARK  status: ('A' for Active; 'I' for Inactive)
REMARK    1  A    between atoms: C_1  and  C_2
REMARK    2  A    between atoms: C_2  and  C_3
REMARK    3  A    between atoms: C_3  and  C_4
REMARK    4  A    between atoms: C_4  and  C_5
REMARK    5  A    between atoms: C_5  and  C_6
REMARK    6  A    between atoms: C_6  and  N_7
REMARK    7  A    between atoms: N_10  and  C_11
REMARK    8  A    between atoms: C_11  and  C_12
REMARK    9  A    between atoms: C_12  and  O_13
REMARK   10  A    between atoms: C_12  and  C_14
REMARK   11  A    between atoms: C_14  and  O_15
REMARK   12  A    between atoms: O_15  and  C_16
REMARK   13  A    between atoms: C_21  and  C_22
REMARK                            x       y       z     vdW  Elec       q    Type
REMARK                         _______ _______ _______ _____ _____    ______ ____
ROOT
ATOM      1  N   UNL     1       5.022   4.190  17.542  0.00  0.00    +0.000 N 
ATOM      2  C   UNL     1       5.773   4.974  18.367  0.00  0.00    +0.000 A 
ATOM      3  N   UNL     1       5.530   5.140  19.618  0.00  0.00    +0.000 NA
ATOM      4  N   UNL     1       6.829   5.552  17.719  0.00  0.00    +0.000 N 
ATOM      5  C   UNL     1       6.703   5.128  16.441  0.00  0.00    +0.000 A 
ATOM      6  C   UNL     1       7.522   5.403  15.340  0.00  0.00    +0.000 A 
ATOM      7  C   UNL     1       7.177   4.825  14.103  0.00  0.00    +0.000 A 
ATOM      8  C   UNL     1       6.034   4.007  13.988  0.00  0.00    +0.000 A 
ATOM      9  C   UNL     1       5.229   3.751  15.108  0.00  0.00    +0.000 A 
ATOM     10  C   UNL     1       5.602   4.320  16.330  0.00  0.00    +0.000 A 
ATOM     11  H   UNL     1       4.747   4.715  20.128  0.00  0.00    +0.000 HD
ENDROOT
BRANCH   1  12
ATOM     12  C   UNL     1       3.872   3.335  17.887  0.00  0.00    +0.000 C 
BRANCH  12  13
ATOM     13  C   UNL     1       2.551   4.054  17.555  0.00  0.00    +0.000 C 
BRANCH  13  14
ATOM     14  C   UNL     1       1.571   4.049  18.740  0.00  0.00    +0.000 C 
BRANCH  14  15
ATOM     15  C   UNL     1       2.011   5.051  19.809  0.00  0.00    +0.000 C 
BRANCH  15  17
ATOM     16  C   UNL     1       1.901   2.883  21.086  0.00  0.00    +0.000 C 
ATOM     17  C   UNL     1       2.035   4.399  21.194  0.00  0.00    +0.000 C 
ENDBRANCH  15  17
ENDBRANCH  14  15
ENDBRANCH  13  14
ENDBRANCH  12  13
ENDBRANCH   1  12
BRANCH   4  18
ATOM     18  C   UNL     1       7.909   6.430  18.213  0.00  0.00    +0.000 C 
BRANCH  18  19
ATOM     19  C   UNL     1       7.910   7.854  17.610  0.00  0.00    +0.000 C 
BRANCH  19  20
ATOM     20  O   UNL     1       6.618   8.235  17.196  0.00  0.00    +0.000 OA
ATOM     21  H   UNL     1       6.001   7.479  17.379  0.00  0.00    +0.000 HD
ENDBRANCH  19  20
BRANCH  19  22
ATOM     22  C   UNL     1       8.444   8.888  18.595  0.00  0.00    +0.000 C 
BRANCH  22  23
ATOM     23  O   UNL     1       8.362  10.144  18.024  0.00  0.00    +0.000 OA
BRANCH  23  24
ATOM     24  C   UNL     1       9.222  11.168  18.262  0.00  0.00    +0.000 A 
ATOM     25  C   UNL     1      10.435  10.964  18.953  0.00  0.00    +0.000 A 
ATOM     26  C   UNL     1      11.296  12.030  19.200  0.00  0.00    +0.000 A 
ATOM     27  C   UNL     1      10.965  13.312  18.765  0.00  0.00    +0.000 A 
ATOM     28  C   UNL     1       9.770  13.532  18.076  0.00  0.00    +0.000 A 
ATOM     29  C   UNL     1       8.890  12.467  17.818  0.00  0.00    +0.000 A 
ATOM     30  C   UNL     1       7.605  12.721  17.076  0.00  0.00    +0.000 C 
ENDBRANCH  23  24
ENDBRANCH  22  23
ENDBRANCH  19  22
ENDBRANCH  18  19
ENDBRANCH   4  18
TORSDOF 11
ENDMDL
MODEL 4
REMARK VINA RESULT:      -7.3      1.950      3.015
REMARK  Name = 
REMARK  13 active torsions:
REMARK  status: ('A' for Active; 'I' for Inactive)
REMARK    1  A    between atoms: C_1  and  C_2
REMARK    2  A    between atoms: C_2  and  C_3
REMARK    3  A    between atoms: C_3  and  C_4
REMARK    4  A    between atoms: C_4  and  C_5
REMARK    5  A    between atoms: C_5  and  C_6
REMARK    6  A    between atoms: C_6  and  N_7
REMARK    7  A    between atoms: N_10  and  C_11
REMARK    8  A    between atoms: C_11  and  C_12
REMARK    9  A    between atoms: C_12  and  O_13
REMARK   10  A    between atoms: C_12  and  C_14
REMARK   11  A    between atoms: C_14  and  O_15
REMARK   12  A    between atoms: O_15  and  C_16
REMARK   13  A    between atoms: C_21  and  C_22
REMARK                            x       y       z     vdW  Elec       q    Type
REMARK                         _______ _______ _______ _____ _____    ______ ____
ROOT
ATOM      1  N   UNL     1       3.909   5.014  17.131  0.00  0.00    +0.000 N 
ATOM      2  C   UNL     1       3.792   6.220  17.757  0.00  0.00    +0.000 A 
ATOM      3  N   UNL     1       4.480   7.260  17.446  0.00  0.00    +0.000 NA
ATOM      4  N   UNL     1       2.846   6.206  18.744  0.00  0.00    +0.000 N 
ATOM      5  C   UNL     1       2.386   4.935  18.741  0.00  0.00    +0.000 A 
ATOM      6  C   UNL     1       1.393   4.359  19.542  0.00  0.00    +0.000 A 
ATOM      7  C   UNL     1       1.086   3.001  19.334  0.00  0.00    +0.000 A 
ATOM      8  C   UNL     1       1.772   2.253  18.355  0.00  0.00    +0.000 A 
ATOM      9  C   UNL     1       2.765   2.855  17.568  0.00  0.00    +0.000 A 
ATOM     10  C   UNL     1       3.040   4.210  17.779  0.00  0.00    +0.000 A 
ATOM     11  H   UNL     1       5.192   7.297  16.708  0.00  0.00    +0.000 HD
ENDROOT
BRANCH   1  12
ATOM     12  C   UNL     1       4.742   4.663  15.966  0.00  0.00    +0.000 C 
BRANCH  12  13
ATOM     13  C   UNL     1       6.039   3.972  16.425  0.00  0.00    +0.000 C 
BRANCH  13  14
ATOM     14  C   UNL     1       7.150   4.981  16.761  0.00  0.00    +0.000 C 
BRANCH  14  15
ATOM     15  C   UNL     1       7.407   5.018  18.269  0.00  0.00    +0.000 C 
BRANCH  15  17
ATOM     16  C   UNL     1       7.706   7.426  17.594  0.00  0.00    +0.000 C 
ATOM     17  C   UNL     1       7.902   6.400  18.705  0.00  0.00    +0.000 C 
ENDBRANCH  15  17
ENDBRANCH  14  15
ENDBRANCH  13  14
ENDBRANCH  12  13
ENDBRANCH   1  12
BRANCH   4  18
ATOM     18  C   UNL     1       2.363   7.276  19.641  0.00  0.00    +0.000 C 
BRANCH  18  19
ATOM     19  C   UNL     1       1.943   8.579  18.922  0.00  0.00    +0.000 C 
BRANCH  19  20
ATOM     20  O   UNL     1       1.488   8.319  17.615  0.00  0.00    +0.000 OA
ATOM     21  H   UNL     1       2.164   8.669  16.979  0.00  0.00    +0.000 HD
ENDBRANCH  19  20
BRANCH  19  22
ATOM     22  C   UNL     1       0.857   9.325  19.689  0.00  0.00    +0.000 C 
BRANCH  22  23
ATOM     23  O   UNL     1       0.353  10.338  18.894  0.00  0.00    +0.000 OA
BRANCH  23  24
ATOM     24  C   UNL     1      -0.803  11.011  19.125  0.00  0.00    +0.000 A 
ATOM     25  C   UNL     1      -0.932  11.901  20.213  0.00  0.00    +0.000 A 
ATOM     26  C   UNL     1      -2.130  12.570  20.442  0.00  0.00    +0.000 A 
ATOM     27  C   UNL     1      -3.218  12.368  19.593  0.00  0.00    +0.000 A 
ATOM     28  C   UNL     1      -3.107  11.496  18.508  0.00  0.00    +0.000 A 
ATOM     29  C   UNL     1      -1.904  10.812  18.263  0.00  0.00    +0.000 A 
ATOM     30  C   UNL     1      -1.802   9.873  17.091  0.00  0.00    +0.000 C 
ENDBRANCH  23  24
ENDBRANCH  22  23
ENDBRANCH  19  22
ENDBRANCH  18  19
ENDBRANCH   4  18
TORSDOF 11
ENDMDL
MODEL 5
REMARK VINA RESULT:      -7.3      1.817      4.233
REMARK  Name = 
REMARK  13 active torsions:
REMARK  status: ('A' for Active; 'I' for Inactive)
REMARK    1  A    between atoms: C_1  and  C_2
REMARK    2  A    between atoms: C_2  and  C_3
REMARK    3  A    between atoms: C_3  and  C_4
REMARK    4  A    between atoms: C_4  and  C_5
REMARK    5  A    between atoms: C_5  and  C_6
REMARK    6  A    between atoms: C_6  and  N_7
REMARK    7  A    between atoms: N_10  and  C_11
REMARK    8  A    between atoms: C_11  and  C_12
REMARK    9  A    between atoms: C_12  and  O_13
REMARK   10  A    between atoms: C_12  and  C_14
REMARK   11  A    between atoms: C_14  and  O_15
REMARK   12  A    between atoms: O_15  and  C_16
REMARK   13  A    between atoms: C_21  and  C_22
REMARK                            x       y       z     vdW  Elec       q    Type
REMARK                         _______ _______ _______ _____ _____    ______ ____
ROOT
ATOM      1  N   UNL     1       4.379   4.204  18.404  0.00  0.00    +0.000 N 
ATOM      2  C   UNL     1       3.883   5.413  18.796  0.00  0.00    +0.000 A 
ATOM      3  N   UNL     1       3.276   5.613  19.911  0.00  0.00    +0.000 NA
ATOM      4  N   UNL     1       4.118   6.396  17.876  0.00  0.00    +0.000 N 
ATOM      5  C   UNL     1       4.758   5.760  16.870  0.00  0.00    +0.000 A 
ATOM      6  C   UNL     1       5.249   6.286  15.670  0.00  0.00    +0.000 A 
ATOM      7  C   UNL     1       5.895   5.405  14.781  0.00  0.00    +0.000 A 
ATOM      8  C   UNL     1       6.024   4.037  15.095  0.00  0.00    +0.000 A 
ATOM      9  C   UNL     1       5.520   3.535  16.304  0.00  0.00    +0.000 A 
ATOM     10  C   UNL     1       4.900   4.432  17.181  0.00  0.00    +0.000 A 
ATOM     11  H   UNL     1       3.090   4.894  20.619  0.00  0.00    +0.000 HD
ENDROOT
BRANCH   1  12
ATOM     12  C   UNL     1       4.407   2.938  19.158  0.00  0.00    +0.000 C 
BRANCH  12  13
ATOM     13  C   UNL     1       3.469   1.905  18.505  0.00  0.00    +0.000 C 
BRANCH  13  14
ATOM     14  C   UNL     1       2.135   2.527  18.062  0.00  0.00    +0.000 C 
BRANCH  14  15
ATOM     15  C   UNL     1       1.013   2.140  19.027  0.00  0.00    +0.000 C 
BRANCH  15  17
ATOM     16  C   UNL     1       1.334   2.855  21.421  0.00  0.00    +0.000 C 
ATOM     17  C   UNL     1       0.772   3.246  20.058  0.00  0.00    +0.000 C 
ENDBRANCH  15  17
ENDBRANCH  14  15
ENDBRANCH  13  14
ENDBRANCH  12  13
ENDBRANCH   1  12
BRANCH   4  18
ATOM     18  C   UNL     1       3.802   7.839  17.894  0.00  0.00    +0.000 C 
BRANCH  18  19
ATOM     19  C   UNL     1       2.358   8.189  17.464  0.00  0.00    +0.000 C 
BRANCH  19  20
ATOM     20  O   UNL     1       1.455   7.172  17.830  0.00  0.00    +0.000 OA
ATOM     21  H   UNL     1       1.539   6.435  17.171  0.00  0.00    +0.000 HD
ENDBRANCH  19  20
BRANCH  19  22
ATOM     22  C   UNL     1       1.892   9.510  18.063  0.00  0.00    +0.000 C 
BRANCH  22  23
ATOM     23  O   UNL     1       0.523   9.622  17.908  0.00  0.00    +0.000 OA
BRANCH  23  24
ATOM     24  C   UNL     1      -0.274  10.482  18.593  0.00  0.00    +0.000 A 
ATOM     25  C   UNL     1       0.172  11.120  19.770  0.00  0.00    +0.000 A 
ATOM     26  C   UNL     1      -0.666  11.987  20.465  0.00  0.00    +0.000 A 
ATOM     27  C   UNL     1      -1.957  12.234  20.002  0.00  0.00    +0.000 A 
ATOM     28  C   UNL     1      -2.414  11.616  18.837  0.00  0.00    +0.000 A 
ATOM     29  C   UNL     1      -1.581  10.738  18.122  0.00  0.00    +0.000 A 
ATOM     30  C   UNL     1      -2.089  10.078  16.868  0.00  0.00    +0.000 C 
ENDBRANCH  23  24
ENDBRANCH  22  23
ENDBRANCH  19  22
ENDBRANCH  18  19
ENDBRANCH   4  18
TORSDOF 11
ENDMDL
MODEL 6
REMARK VINA RESULT:      -7.2      2.155      4.474
REMARK  Name = 
REMARK  13 active torsions:
REMARK  status: ('A' for Active; 'I' for Inactive)
REMARK    1  A    between atoms: C_1  and  C_2
REMARK    2  A    between atoms: C_2  and  C_3
REMARK    3  A    between atoms: C_3  and  C_4
REMARK    4  A    between atoms: C_4  and  C_5
REMARK    5  A    between atoms: C_5  and  C_6
REMARK    6  A    between atoms: C_6  and  N_7
REMARK    7  A    between atoms: N_10  and  C_11
REMARK    8  A    between atoms: C_11  and  C_12
REMARK    9  A    between atoms: C_12  and  O_13
REMARK   10  A    between atoms: C_12  and  C_14
REMARK   11  A    between atoms: C_14  and  O_15
REMARK   12  A    between atoms: O_15  and  C_16
REMARK   13  A    between atoms: C_21  and  C_22
REMARK                            x       y       z     vdW  Elec       q    Type
REMARK                         _______ _______ _______ _____ _____    ______ ____
ROOT
ATOM      1  N   UNL     1       4.470   4.024  18.275  0.00  0.00    +0.000 N 
ATOM      2  C   UNL     1       3.995   5.216  18.738  0.00  0.00    +0.000 A 
ATOM      3  N   UNL     1       3.451   5.372  19.892  0.00  0.00    +0.000 NA
ATOM      4  N   UNL     1       4.177   6.234  17.844  0.00  0.00    +0.000 N 
ATOM      5  C   UNL     1       4.762   5.638  16.780  0.00  0.00    +0.000 A 
ATOM      6  C   UNL     1       5.185   6.210  15.576  0.00  0.00    +0.000 A 
ATOM      7  C   UNL     1       5.782   5.366  14.620  0.00  0.00    +0.000 A 
ATOM      8  C   UNL     1       5.931   3.987  14.875  0.00  0.00    +0.000 A 
ATOM      9  C   UNL     1       5.494   3.439  16.091  0.00  0.00    +0.000 A 
ATOM     10  C   UNL     1       4.922   4.300  17.033  0.00  0.00    +0.000 A 
ATOM     11  H   UNL     1       3.305   4.626  20.581  0.00  0.00    +0.000 HD
ENDROOT
BRANCH   1  12
ATOM     12  C   UNL     1       4.542   2.731  18.978  0.00  0.00    +0.000 C 
BRANCH  12  13
ATOM     13  C   UNL     1       3.480   1.762  18.427  0.00  0.00    +0.000 C 
BRANCH  13  14
ATOM     14  C   UNL     1       2.286   1.601  19.382  0.00  0.00    +0.000 C 
BRANCH  14  15
ATOM     15  C   UNL     1       1.190   2.617  19.051  0.00  0.00    +0.000 C 
BRANCH  15  17
ATOM     16  C   UNL     1       1.341   2.782  21.560  0.00  0.00    +0.000 C 
ATOM     17  C   UNL     1       0.814   3.438  20.287  0.00  0.00    +0.000 C 
ENDBRANCH  15  17
ENDBRANCH  14  15
ENDBRANCH  13  14
ENDBRANCH  12  13
ENDBRANCH   1  12
BRANCH   4  18
ATOM     18  C   UNL     1       3.860   7.674  17.934  0.00  0.00    +0.000 C 
BRANCH  18  19
ATOM     19  C   UNL     1       2.357   7.994  18.113  0.00  0.00    +0.000 C 
BRANCH  19  20
ATOM     20  O   UNL     1       1.944   7.779  19.442  0.00  0.00    +0.000 OA
ATOM     21  H   UNL     1       1.505   6.890  19.487  0.00  0.00    +0.000 HD
ENDBRANCH  19  20
BRANCH  19  22
ATOM     22  C   UNL     1       2.031   9.428  17.714  0.00  0.00    +0.000 C 
BRANCH  22  23
ATOM     23  O   UNL     1       1.352  10.044  18.748  0.00  0.00    +0.000 OA
BRANCH  23  24
ATOM     24  C   UNL     1       0.911  11.328  18.739  0.00  0.00    +0.000 A 
ATOM     25  C   UNL     1       1.809  12.415  18.783  0.00  0.00    +0.000 A 
ATOM     26  C   UNL     1       1.337  13.724  18.788  0.00  0.00    +0.000 A 
ATOM     27  C   UNL     1      -0.034  13.973  18.748  0.00  0.00    +0.000 A 
ATOM     28  C   UNL     1      -0.939  12.911  18.698  0.00  0.00    +0.000 A 
ATOM     29  C   UNL     1      -0.478  11.582  18.693  0.00  0.00    +0.000 A 
ATOM     30  C   UNL     1      -1.466  10.448  18.642  0.00  0.00    +0.000 C 
ENDBRANCH  23  24
ENDBRANCH  22  23
ENDBRANCH  19  22
ENDBRANCH  18  19
ENDBRANCH   4  18
TORSDOF 11
ENDMDL
MODEL 7
REMARK VINA RESULT:      -7.2      2.817      5.180
REMARK  Name = 
REMARK  13 active torsions:
REMARK  status: ('A' for Active; 'I' for Inactive)
REMARK    1  A    between atoms: C_1  and  C_2
REMARK    2  A    between atoms: C_2  and  C_3
REMARK    3  A    between atoms: C_3  and  C_4
REMARK    4  A    between atoms: C_4  and  C_5
REMARK    5  A    between atoms: C_5  and  C_6
REMARK    6  A    between atoms: C_6  and  N_7
REMARK    7  A    between atoms: N_10  and  C_11
REMARK    8  A    between atoms: C_11  and  C_12
REMARK    9  A    between atoms: C_12  and  O_13
REMARK   10  A    between atoms: C_12  and  C_14
REMARK   11  A    between atoms: C_14  and  O_15
REMARK   12  A    between atoms: O_15  and  C_16
REMARK   13  A    between atoms: C_21  and  C_22
REMARK                            x       y       z     vdW  Elec       q    Type
REMARK                         _______ _______ _______ _____ _____    ______ ____
ROOT
ATOM      1  N   UNL     1       6.740   5.452  17.911  0.00  0.00    +0.000 N 
ATOM      2  C   UNL     1       5.650   4.948  18.558  0.00  0.00    +0.000 A 
ATOM      3  N   UNL     1       5.427   5.100  19.814  0.00  0.00    +0.000 NA
ATOM      4  N   UNL     1       4.808   4.277  17.716  0.00  0.00    +0.000 N 
ATOM      5  C   UNL     1       5.420   4.348  16.512  0.00  0.00    +0.000 A 
ATOM      6  C   UNL     1       4.994   3.839  15.280  0.00  0.00    +0.000 A 
ATOM      7  C   UNL     1       5.818   4.058  14.158  0.00  0.00    +0.000 A 
ATOM      8  C   UNL     1       7.035   4.758  14.289  0.00  0.00    +0.000 A 
ATOM      9  C   UNL     1       7.438   5.255  15.537  0.00  0.00    +0.000 A 
ATOM     10  C   UNL     1       6.595   5.042  16.633  0.00  0.00    +0.000 A 
ATOM     11  H   UNL     1       6.040   5.601  20.465  0.00  0.00    +0.000 HD
ENDROOT
BRANCH   1  12
ATOM     12  C   UNL     1       7.812   6.307  18.452  0.00  0.00    +0.000 C 
BRANCH  12  13
ATOM     13  C   UNL     1       7.743   7.713  17.825  0.00  0.00    +0.000 C 
BRANCH  13  14
ATOM     14  C   UNL     1       8.576   8.741  18.608  0.00  0.00    +0.000 C 
BRANCH  14  15
ATOM     15  C   UNL     1       8.561  10.097  17.901  0.00  0.00    +0.000 C 
BRANCH  15  17
ATOM     16  C   UNL     1       9.367  12.480  18.044  0.00  0.00    +0.000 C 
ATOM     17  C   UNL     1       9.589  11.048  18.521  0.00  0.00    +0.000 C 
ENDBRANCH  15  17
ENDBRANCH  14  15
ENDBRANCH  13  14
ENDBRANCH  12  13
ENDBRANCH   1  12
BRANCH   4  18
ATOM     18  C   UNL     1       3.512   3.613  17.964  0.00  0.00    +0.000 C 
BRANCH  18  19
ATOM     19  C   UNL     1       2.328   4.579  18.203  0.00  0.00    +0.000 C 
BRANCH  19  20
ATOM     20  O   UNL     1       1.878   4.516  19.537  0.00  0.00    +0.000 OA
ATOM     21  H   UNL     1       2.604   4.122  20.087  0.00  0.00    +0.000 HD
ENDBRANCH  19  20
BRANCH  19  22
ATOM     22  C   UNL     1       2.694   6.020  17.867  0.00  0.00    +0.000 C 
BRANCH  22  23
ATOM     23  O   UNL     1       2.512   6.809  18.988  0.00  0.00    +0.000 OA
BRANCH  23  24
ATOM     24  C   UNL     1       2.058   8.088  18.978  0.00  0.00    +0.000 A 
ATOM     25  C   UNL     1       2.260   8.932  17.866  0.00  0.00    +0.000 A 
ATOM     26  C   UNL     1       1.799  10.246  17.881  0.00  0.00    +0.000 A 
ATOM     27  C   UNL     1       1.131  10.739  19.001  0.00  0.00    +0.000 A 
ATOM     28  C   UNL     1       0.917   9.917  20.109  0.00  0.00    +0.000 A 
ATOM     29  C   UNL     1       1.375   8.588  20.109  0.00  0.00    +0.000 A 
ATOM     30  C   UNL     1       1.139   7.715  21.313  0.00  0.00    +0.000 C 
ENDBRANCH  23  24
ENDBRANCH  22  23
ENDBRANCH  19  22
ENDBRANCH  18  19
ENDBRANCH   4  18
TORSDOF 11
ENDMDL
MODEL 8
REMARK VINA RESULT:      -7.2      2.195      4.098
REMARK  Name = 
REMARK  13 active torsions:
REMARK  status: ('A' for Active; 'I' for Inactive)
REMARK    1  A    between atoms: C_1  and  C_2
REMARK    2  A    between atoms: C_2  and  C_3
REMARK    3  A    between atoms: C_3  and  C_4
REMARK    4  A    between atoms: C_4  and  C_5
REMARK    5  A    between atoms: C_5  and  C_6
REMARK    6  A    between atoms: C_6  and  N_7
REMARK    7  A    between atoms: N_10  and  C_11
REMARK    8  A    between atoms: C_11  and  C_12
REMARK    9  A    between atoms: C_12  and  O_13
REMARK   10  A    between atoms: C_12  and  C_14
REMARK   11  A    between atoms: C_14  and  O_15
REMARK   12  A    between atoms: O_15  and  C_16
REMARK   13  A    between atoms: C_21  and  C_22
REMARK                            x       y       z     vdW  Elec       q    Type
REMARK                         _______ _______ _______ _____ _____    ______ ____
ROOT
ATOM      1  N   UNL     1       4.710   4.368  16.211  0.00  0.00    +0.000 N 
ATOM      2  C   UNL     1       3.730   3.860  17.013  0.00  0.00    +0.000 A 
ATOM      3  N   UNL     1       2.668   3.287  16.574  0.00  0.00    +0.000 NA
ATOM      4  N   UNL     1       4.013   4.013  18.342  0.00  0.00    +0.000 N 
ATOM      5  C   UNL     1       5.198   4.664  18.354  0.00  0.00    +0.000 A 
ATOM      6  C   UNL     1       5.966   5.069  19.452  0.00  0.00    +0.000 A 
ATOM      7  C   UNL     1       7.184   5.729  19.195  0.00  0.00    +0.000 A 
ATOM      8  C   UNL     1       7.597   5.980  17.871  0.00  0.00    +0.000 A 
ATOM      9  C   UNL     1       6.805   5.565  16.789  0.00  0.00    +0.000 A 
ATOM     10  C   UNL     1       5.611   4.894  17.067  0.00  0.00    +0.000 A 
ATOM     11  H   UNL     1       2.434   3.157  15.584  0.00  0.00    +0.000 HD
ENDROOT
BRANCH   1  12
ATOM     12  C   UNL     1       4.813   4.308  14.742  0.00  0.00    +0.000 C 
BRANCH  12  13
ATOM     13  C   UNL     1       6.199   3.785  14.323  0.00  0.00    +0.000 C 
BRANCH  13  14
ATOM     14  C   UNL     1       6.408   3.841  12.801  0.00  0.00    +0.000 C 
BRANCH  14  15
ATOM     15  C   UNL     1       5.829   2.593  12.131  0.00  0.00    +0.000 C 
BRANCH  15  17
ATOM     16  C   UNL     1       3.597   3.420  11.306  0.00  0.00    +0.000 C 
ATOM     17  C   UNL     1       4.997   2.969  10.901  0.00  0.00    +0.000 C 
ENDBRANCH  15  17
ENDBRANCH  14  15
ENDBRANCH  13  14
ENDBRANCH  12  13
ENDBRANCH   1  12
BRANCH   4  18
ATOM     18  C   UNL     1       3.273   3.589  19.548  0.00  0.00    +0.000 C 
BRANCH  18  19
ATOM     19  C   UNL     1       1.807   4.079  19.611  0.00  0.00    +0.000 C 
BRANCH  19  20
ATOM     20  O   UNL     1       0.925   3.018  19.893  0.00  0.00    +0.000 OA
ATOM     21  H   UNL     1       0.648   2.612  19.031  0.00  0.00    +0.000 HD
ENDBRANCH  19  20
BRANCH  19  22
ATOM     22  C   UNL     1       1.621   5.175  20.655  0.00  0.00    +0.000 C 
BRANCH  22  23
ATOM     23  O   UNL     1       2.490   6.214  20.384  0.00  0.00    +0.000 OA
BRANCH  23  24
ATOM     24  C   UNL     1       2.199   7.298  19.618  0.00  0.00    +0.000 A 
ATOM     25  C   UNL     1       2.637   7.392  18.280  0.00  0.00    +0.000 A 
ATOM     26  C   UNL     1       2.341   8.517  17.517  0.00  0.00    +0.000 A 
ATOM     27  C   UNL     1       1.606   9.565  18.070  0.00  0.00    +0.000 A 
ATOM     28  C   UNL     1       1.160   9.487  19.391  0.00  0.00    +0.000 A 
ATOM     29  C   UNL     1       1.450   8.357  20.176  0.00  0.00    +0.000 A 
ATOM     30  C   UNL     1       0.964   8.290  21.599  0.00  0.00    +0.000 C 
ENDBRANCH  23  24
ENDBRANCH  22  23
ENDBRANCH  19  22
ENDBRANCH  18  19
ENDBRANCH   4  18
TORSDOF 11
ENDMDL
MODEL 9
REMARK VINA RESULT:      -7.1      2.944      8.222
REMARK  Name = 
REMARK  13 active torsions:
REMARK  status: ('A' for Active; 'I' for Inactive)
REMARK    1  A    between atoms: C_1  and  C_2
REMARK    2  A    between atoms: C_2  and  C_3
REMARK    3  A    between atoms: C_3  and  C_4
REMARK    4  A    between atoms: C_4  and  C_5
REMARK    5  A    between atoms: C_5  and  C_6
REMARK    6  A    between atoms: C_6  and  N_7
REMARK    7  A    between atoms: N_10  and  C_11
REMARK    8  A    between atoms: C_11  and  C_12
REMARK    9  A    between atoms: C_12  and  O_13
REMARK   10  A    between atoms: C_12  and  C_14
REMARK   11  A    between atoms: C_14  and  O_15
REMARK   12  A    between atoms: O_15  and  C_16
REMARK   13  A    between atoms: C_21  and  C_22
REMARK                            x       y       z     vdW  Elec       q    Type
REMARK                         _______ _______ _______ _____ _____    ______ ____
ROOT
ATOM      1  N   UNL     1       2.950   5.465  20.149  0.00  0.00    +0.000 N 
ATOM      2  C   UNL     1       3.897   5.101  19.238  0.00  0.00    +0.000 A 
ATOM      3  N   UNL     1       4.586   4.019  19.311  0.00  0.00    +0.000 NA
ATOM      4  N   UNL     1       4.021   6.010  18.223  0.00  0.00    +0.000 N 
ATOM      5  C   UNL     1       3.136   6.981  18.541  0.00  0.00    +0.000 A 
ATOM      6  C   UNL     1       2.833   8.155  17.842  0.00  0.00    +0.000 A 
ATOM      7  C   UNL     1       1.852   9.009  18.385  0.00  0.00    +0.000 A 
ATOM      8  C   UNL     1       1.214   8.686  19.599  0.00  0.00    +0.000 A 
ATOM      9  C   UNL     1       1.540   7.503  20.280  0.00  0.00    +0.000 A 
ATOM     10  C   UNL     1       2.502   6.661  19.713  0.00  0.00    +0.000 A 
ATOM     11  H   UNL     1       4.510   3.321  20.059  0.00  0.00    +0.000 HD
ENDROOT
BRANCH   1  12
ATOM     12  C   UNL     1       2.465   4.709  21.318  0.00  0.00    +0.000 C 
BRANCH  12  13
ATOM     13  C   UNL     1       1.149   3.984  20.978  0.00  0.00    +0.000 C 
BRANCH  13  14
ATOM     14  C   UNL     1       1.391   2.594  20.367  0.00  0.00    +0.000 C 
BRANCH  14  15
ATOM     15  C   UNL     1       1.027   2.588  18.880  0.00  0.00    +0.000 C 
BRANCH  15  17
ATOM     16  C   UNL     1       2.503   2.955  16.872  0.00  0.00    +0.000 C 
ATOM     17  C   UNL     1       2.177   2.028  18.039  0.00  0.00    +0.000 C 
ENDBRANCH  15  17
ENDBRANCH  14  15
ENDBRANCH  13  14
ENDBRANCH  12  13
ENDBRANCH   1  12
BRANCH   4  18
ATOM     18  C   UNL     1       4.877   6.010  17.019  0.00  0.00    +0.000 C 
BRANCH  18  19
ATOM     19  C   UNL     1       6.387   6.185  17.301  0.00  0.00    +0.000 C 
BRANCH  19  20
ATOM     20  O   UNL     1       6.947   5.008  17.836  0.00  0.00    +0.000 OA
ATOM     21  H   UNL     1       7.302   4.467  17.084  0.00  0.00    +0.000 HD
ENDBRANCH  19  20
BRANCH  19  22
ATOM     22  C   UNL     1       7.157   6.577  16.045  0.00  0.00    +0.000 C 
BRANCH  22  23
ATOM     23  O   UNL     1       7.648   5.436  15.438  0.00  0.00    +0.000 OA
BRANCH  23  24
ATOM     24  C   UNL     1       7.115   4.843  14.339  0.00  0.00    +0.000 A 
ATOM     25  C   UNL     1       5.975   4.016  14.429  0.00  0.00    +0.000 A 
ATOM     26  C   UNL     1       5.453   3.406  13.293  0.00  0.00    +0.000 A 
ATOM     27  C   UNL     1       6.052   3.608  12.051  0.00  0.00    +0.000 A 
ATOM     28  C   UNL     1       7.178   4.428  11.941  0.00  0.00    +0.000 A 
ATOM     29  C   UNL     1       7.718   5.052  13.079  0.00  0.00    +0.000 A 
ATOM     30  C   UNL     1       8.933   5.931  12.944  0.00  0.00    +0.000 C 
ENDBRANCH  23  24
ENDBRANCH  22  23
ENDBRANCH  19  22
ENDBRANCH  18  19
ENDBRANCH   4  18
TORSDOF 11
ENDMDL
