MODEL 1
REMARK VINA RESULT:      -6.8      0.000      0.000
REMARK  Name = 
REMARK  11 active torsions:
REMARK  status: ('A' for Active; 'I' for Inactive)
REMARK    1  A    between atoms: C_1  and  O_2
REMARK    2  A    between atoms: O_2  and  C_3
REMARK    3  A    between atoms: C_6  and  C_7
REMARK    4  A    between atoms: C_7  and  C_8
REMARK    5  A    between atoms: C_10  and  O_11
REMARK    6  A    between atoms: O_11  and  C_12
REMARK    7  A    between atoms: C_13  and  O_14
REMARK    8  A    between atoms: O_14  and  C_15
REMARK    9  A    between atoms: C_16  and  O_17
REMARK   10  A    between atoms: O_17  and  C_18
REMARK   11  A    between atoms: C_21  and  O_22
REMARK                            x       y       z     vdW  Elec       q    Type
REMARK                         _______ _______ _______ _____ _____    ______ ____
ROOT
ATOM      1  C   UNL     1       3.210   6.429  18.076  0.00  0.00    +0.000 A 
ATOM      2  C   UNL     1       4.543   6.127  18.383  0.00  0.00    +0.000 A 
ATOM      3  C   UNL     1       4.969   4.807  18.591  0.00  0.00    +0.000 A 
ATOM      4  C   UNL     1       4.021   3.763  18.526  0.00  0.00    +0.000 A 
ATOM      5  C   UNL     1       2.665   4.069  18.253  0.00  0.00    +0.000 A 
ATOM      6  C   UNL     1       2.274   5.392  18.023  0.00  0.00    +0.000 A 
ENDROOT
BRANCH   3   7
ATOM      7  O   UNL     1       6.279   4.494  18.845  0.00  0.00    +0.000 OA
ATOM      8  C   UNL     1       7.237   4.679  17.812  0.00  0.00    +0.000 C 
ENDBRANCH   3   7
BRANCH   4   9
ATOM      9  O   UNL     1       4.254   2.418  18.703  0.00  0.00    +0.000 OA
ATOM     10  C   UNL     1       4.460   1.900  20.005  0.00  0.00    +0.000 C 
ENDBRANCH   4   9
BRANCH   5  11
ATOM     11  O   UNL     1       1.797   3.000  18.210  0.00  0.00    +0.000 OA
ATOM     12  C   UNL     1       0.861   2.862  19.268  0.00  0.00    +0.000 C 
ENDBRANCH   5  11
BRANCH   1  13
ATOM     13  C   UNL     1       2.818   7.842  17.700  0.00  0.00    +0.000 C 
BRANCH  13  17
ATOM     14  C   UNL     1       0.266   9.721  20.665  0.00  0.00    +0.000 A 
ATOM     15  C   UNL     1       1.074   8.626  20.998  0.00  0.00    +0.000 A 
ATOM     16  C   UNL     1       1.877   7.998  20.043  0.00  0.00    +0.000 A 
ATOM     17  C   UNL     1       1.883   8.453  18.720  0.00  0.00    +0.000 A 
ATOM     18  C   UNL     1       1.068   9.541  18.378  0.00  0.00    +0.000 A 
ATOM     19  C   UNL     1       0.270  10.172  19.341  0.00  0.00    +0.000 A 
BRANCH  14  21
ATOM     20  C   UNL     1      -0.151   9.679  23.019  0.00  0.00    +0.000 C 
ATOM     21  O   UNL     1      -0.431  10.214  21.733  0.00  0.00    +0.000 OA
ENDBRANCH  14  21
BRANCH  19  22
ATOM     22  O   UNL     1      -0.491  11.240  18.946  0.00  0.00    +0.000 OA
ATOM     23  H   UNL     1      -1.418  10.962  18.877  0.00  0.00    +0.000 HD
ENDBRANCH  19  22
ENDBRANCH  13  17
ENDBRANCH   1  13
TORSDOF 7
ENDMDL
MODEL 2
REMARK VINA RESULT:      -6.7      0.445      2.713
REMARK  Name = 
REMARK  11 active torsions:
REMARK  status: ('A' for Active; 'I' for Inactive)
REMARK    1  A    between atoms: C_1  and  O_2
REMARK    2  A    between atoms: O_2  and  C_3
REMARK    3  A    between atoms: C_6  and  C_7
REMARK    4  A    between atoms: C_7  and  C_8
REMARK    5  A    between atoms: C_10  and  O_11
REMARK    6  A    between atoms: O_11  and  C_12
REMARK    7  A    between atoms: C_13  and  O_14
REMARK    8  A    between atoms: O_14  and  C_15
REMARK    9  A    between atoms: C_16  and  O_17
REMARK   10  A    between atoms: O_17  and  C_18
REMARK   11  A    between atoms: C_21  and  O_22
REMARK                            x       y       z     vdW  Elec       q    Type
REMARK                         _______ _______ _______ _____ _____    ______ ____
ROOT
ATOM      1  C   UNL     1       3.166   6.540  17.927  0.00  0.00    +0.000 A 
ATOM      2  C   UNL     1       2.200   5.531  17.812  0.00  0.00    +0.000 A 
ATOM      3  C   UNL     1       2.492   4.195  18.125  0.00  0.00    +0.000 A 
ATOM      4  C   UNL     1       3.801   3.856  18.529  0.00  0.00    +0.000 A 
ATOM      5  C   UNL     1       4.790   4.868  18.610  0.00  0.00    +0.000 A 
ATOM      6  C   UNL     1       4.464   6.197  18.316  0.00  0.00    +0.000 A 
ENDROOT
BRANCH   3   7
ATOM      7  O   UNL     1       1.543   3.207  18.062  0.00  0.00    +0.000 OA
ATOM      8  C   UNL     1       0.803   2.898  19.236  0.00  0.00    +0.000 C 
ENDBRANCH   3   7
BRANCH   4   9
ATOM      9  O   UNL     1       4.267   2.607  18.872  0.00  0.00    +0.000 OA
ATOM     10  C   UNL     1       4.224   2.183  20.223  0.00  0.00    +0.000 C 
ENDBRANCH   4   9
BRANCH   5  11
ATOM     11  O   UNL     1       6.044   4.462  19.005  0.00  0.00    +0.000 OA
ATOM     12  C   UNL     1       7.027   5.461  19.231  0.00  0.00    +0.000 C 
ENDBRANCH   5  11
BRANCH   1  13
ATOM     13  C   UNL     1       2.776   7.990  17.736  0.00  0.00    +0.000 C 
BRANCH  13  17
ATOM     14  C   UNL     1       0.169   9.470  20.875  0.00  0.00    +0.000 A 
ATOM     15  C   UNL     1       1.068   8.423  21.118  0.00  0.00    +0.000 A 
ATOM     16  C   UNL     1       1.891   7.923  20.106  0.00  0.00    +0.000 A 
ATOM     17  C   UNL     1       1.825   8.459  18.816  0.00  0.00    +0.000 A 
ATOM     18  C   UNL     1       0.918   9.499  18.564  0.00  0.00    +0.000 A 
ATOM     19  C   UNL     1       0.101  10.003  19.584  0.00  0.00    +0.000 A 
BRANCH  14  21
ATOM     20  C   UNL     1      -0.006   9.486  23.260  0.00  0.00    +0.000 C 
ATOM     21  O   UNL     1      -0.534   9.837  21.989  0.00  0.00    +0.000 OA
ENDBRANCH  14  21
BRANCH  19  22
ATOM     22  O   UNL     1      -0.751  11.030  19.277  0.00  0.00    +0.000 OA
ATOM     23  H   UNL     1      -0.681  11.228  18.329  0.00  0.00    +0.000 HD
ENDBRANCH  19  22
ENDBRANCH  13  17
ENDBRANCH   1  13
TORSDOF 7
ENDMDL
MODEL 3
REMARK VINA RESULT:      -6.6      0.891      1.650
REMARK  Name = 
REMARK  11 active torsions:
REMARK  status: ('A' for Active; 'I' for Inactive)
REMARK    1  A    between atoms: C_1  and  O_2
REMARK    2  A    between atoms: O_2  and  C_3
REMARK    3  A    between atoms: C_6  and  C_7
REMARK    4  A    between atoms: C_7  and  C_8
REMARK    5  A    between atoms: C_10  and  O_11
REMARK    6  A    between atoms: O_11  and  C_12
REMARK    7  A    between atoms: C_13  and  O_14
REMARK    8  A    between atoms: O_14  and  C_15
REMARK    9  A    between atoms: C_16  and  O_17
REMARK   10  A    between atoms: O_17  and  C_18
REMARK   11  A    between atoms: C_21  and  O_22
REMARK                            x       y       z     vdW  Elec       q    Type
REMARK                         _______ _______ _______ _____ _____    ______ ____
ROOT
ATOM      1  C   UNL     1       3.218   6.305  17.940  0.00  0.00    +0.000 A 
ATOM      2  C   UNL     1       4.546   6.043  18.302  0.00  0.00    +0.000 A 
ATOM      3  C   UNL     1       4.972   4.754  18.653  0.00  0.00    +0.000 A 
ATOM      4  C   UNL     1       4.029   3.704  18.678  0.00  0.00    +0.000 A 
ATOM      5  C   UNL     1       2.677   3.973  18.349  0.00  0.00    +0.000 A 
ATOM      6  C   UNL     1       2.286   5.264  17.977  0.00  0.00    +0.000 A 
ENDROOT
BRANCH   3   7
ATOM      7  O   UNL     1       6.278   4.476  18.963  0.00  0.00    +0.000 OA
ATOM      8  C   UNL     1       7.158   5.557  19.239  0.00  0.00    +0.000 C 
ENDBRANCH   3   7
BRANCH   4   9
ATOM      9  O   UNL     1       4.263   2.385  18.996  0.00  0.00    +0.000 OA
ATOM     10  C   UNL     1       4.473   2.009  20.346  0.00  0.00    +0.000 C 
ENDBRANCH   4   9
BRANCH   5  11
ATOM     11  O   UNL     1       1.815   2.901  18.400  0.00  0.00    +0.000 OA
ATOM     12  C   UNL     1       0.857   2.868  19.446  0.00  0.00    +0.000 C 
ENDBRANCH   5  11
BRANCH   1  13
ATOM     13  C   UNL     1       2.829   7.670  17.414  0.00  0.00    +0.000 C 
BRANCH  13  17
ATOM     14  C   UNL     1       0.308   9.743  20.276  0.00  0.00    +0.000 A 
ATOM     15  C   UNL     1       0.267  10.063  18.912  0.00  0.00    +0.000 A 
ATOM     16  C   UNL     1       1.095   9.420  17.989  0.00  0.00    +0.000 A 
ATOM     17  C   UNL     1       1.996   8.439  18.416  0.00  0.00    +0.000 A 
ATOM     18  C   UNL     1       2.050   8.122  19.781  0.00  0.00    +0.000 A 
ATOM     19  C   UNL     1       1.213   8.764  20.701  0.00  0.00    +0.000 A 
BRANCH  14  21
ATOM     20  C   UNL     1      -1.126  11.648  20.455  0.00  0.00    +0.000 C 
ATOM     21  O   UNL     1      -0.587  10.461  21.019  0.00  0.00    +0.000 OA
ENDBRANCH  14  21
BRANCH  19  22
ATOM     22  O   UNL     1       1.303   8.397  22.018  0.00  0.00    +0.000 OA
ATOM     23  H   UNL     1       0.413   8.370  22.401  0.00  0.00    +0.000 HD
ENDBRANCH  19  22
ENDBRANCH  13  17
ENDBRANCH   1  13
TORSDOF 7
ENDMDL
MODEL 4
REMARK VINA RESULT:      -6.5      0.930      3.127
REMARK  Name = 
REMARK  11 active torsions:
REMARK  status: ('A' for Active; 'I' for Inactive)
REMARK    1  A    between atoms: C_1  and  O_2
REMARK    2  A    between atoms: O_2  and  C_3
REMARK    3  A    between atoms: C_6  and  C_7
REMARK    4  A    between atoms: C_7  and  C_8
REMARK    5  A    between atoms: C_10  and  O_11
REMARK    6  A    between atoms: O_11  and  C_12
REMARK    7  A    between atoms: C_13  and  O_14
REMARK    8  A    between atoms: O_14  and  C_15
REMARK    9  A    between atoms: C_16  and  O_17
REMARK   10  A    between atoms: O_17  and  C_18
REMARK   11  A    between atoms: C_21  and  O_22
REMARK                            x       y       z     vdW  Elec       q    Type
REMARK                         _______ _______ _______ _____ _____    ______ ____
ROOT
ATOM      1  C   UNL     1       3.204   6.391  17.814  0.00  0.00    +0.000 A 
ATOM      2  C   UNL     1       2.133   5.522  18.065  0.00  0.00    +0.000 A 
ATOM      3  C   UNL     1       2.338   4.228  18.564  0.00  0.00    +0.000 A 
ATOM      4  C   UNL     1       3.658   3.779  18.784  0.00  0.00    +0.000 A 
ATOM      5  C   UNL     1       4.745   4.642  18.496  0.00  0.00    +0.000 A 
ATOM      6  C   UNL     1       4.509   5.937  18.023  0.00  0.00    +0.000 A 
ENDROOT
BRANCH   3   7
ATOM      7  O   UNL     1       1.297   3.386  18.858  0.00  0.00    +0.000 OA
ATOM      8  C   UNL     1       0.837   3.314  20.202  0.00  0.00    +0.000 C 
ENDBRANCH   3   7
BRANCH   4   9
ATOM      9  O   UNL     1       4.047   2.550  19.266  0.00  0.00    +0.000 OA
ATOM     10  C   UNL     1       3.796   1.380  18.507  0.00  0.00    +0.000 C 
ENDBRANCH   4   9
BRANCH   5  11
ATOM     11  O   UNL     1       6.003   4.133  18.730  0.00  0.00    +0.000 OA
ATOM     12  C   UNL     1       7.097   4.727  18.049  0.00  0.00    +0.000 C 
ENDBRANCH   5  11
BRANCH   1  13
ATOM     13  C   UNL     1       2.940   7.831  17.429  0.00  0.00    +0.000 C 
BRANCH  13  17
ATOM     14  C   UNL     1       0.262   9.681  20.300  0.00  0.00    +0.000 A 
ATOM     15  C   UNL     1       0.215  10.025  18.943  0.00  0.00    +0.000 A 
ATOM     16  C   UNL     1       1.092   9.455  18.017  0.00  0.00    +0.000 A 
ATOM     17  C   UNL     1       2.049   8.524  18.435  0.00  0.00    +0.000 A 
ATOM     18  C   UNL     1       2.109   8.185  19.794  0.00  0.00    +0.000 A 
ATOM     19  C   UNL     1       1.222   8.753  20.717  0.00  0.00    +0.000 A 
BRANCH  14  21
ATOM     20  C   UNL     1      -0.297  11.493  21.755  0.00  0.00    +0.000 C 
ATOM     21  O   UNL     1      -0.685  10.325  21.046  0.00  0.00    +0.000 OA
ENDBRANCH  14  21
BRANCH  19  22
ATOM     22  O   UNL     1       1.322   8.367  22.027  0.00  0.00    +0.000 OA
ATOM     23  H   UNL     1       0.710   8.896  22.562  0.00  0.00    +0.000 HD
ENDBRANCH  19  22
ENDBRANCH  13  17
ENDBRANCH   1  13
TORSDOF 7
ENDMDL
MODEL 5
REMARK VINA RESULT:      -6.3      3.354      5.467
REMARK  Name = 
REMARK  11 active torsions:
REMARK  status: ('A' for Active; 'I' for Inactive)
REMARK    1  A    between atoms: C_1  and  O_2
REMARK    2  A    between atoms: O_2  and  C_3
REMARK    3  A    between atoms: C_6  and  C_7
REMARK    4  A    between atoms: C_7  and  C_8
REMARK    5  A    between atoms: C_10  and  O_11
REMARK    6  A    between atoms: O_11  and  C_12
REMARK    7  A    between atoms: C_13  and  O_14
REMARK    8  A    between atoms: O_14  and  C_15
REMARK    9  A    between atoms: C_16  and  O_17
REMARK   10  A    between atoms: O_17  and  C_18
REMARK   11  A    between atoms: C_21  and  O_22
REMARK                            x       y       z     vdW  Elec       q    Type
REMARK                         _______ _______ _______ _____ _____    ______ ____
ROOT
ATOM      1  C   UNL     1       4.884   4.239  16.185  0.00  0.00    +0.000 A 
ATOM      2  C   UNL     1       5.092   3.747  14.890  0.00  0.00    +0.000 A 
ATOM      3  C   UNL     1       6.202   4.134  14.125  0.00  0.00    +0.000 A 
ATOM      4  C   UNL     1       7.111   5.071  14.662  0.00  0.00    +0.000 A 
ATOM      5  C   UNL     1       6.884   5.599  15.957  0.00  0.00    +0.000 A 
ATOM      6  C   UNL     1       5.782   5.176  16.707  0.00  0.00    +0.000 A 
ENDROOT
BRANCH   3   7
ATOM      7  O   UNL     1       6.442   3.623  12.876  0.00  0.00    +0.000 OA
ATOM      8  C   UNL     1       5.337   3.188  12.094  0.00  0.00    +0.000 C 
ENDBRANCH   3   7
BRANCH   4   9
ATOM      9  O   UNL     1       8.247   5.564  14.061  0.00  0.00    +0.000 OA
ATOM     10  C   UNL     1       8.264   5.798  12.664  0.00  0.00    +0.000 C 
ENDBRANCH   4   9
BRANCH   5  11
ATOM     11  O   UNL     1       7.809   6.512  16.412  0.00  0.00    +0.000 OA
ATOM     12  C   UNL     1       7.405   7.421  17.424  0.00  0.00    +0.000 C 
ENDBRANCH   5  11
BRANCH   1  13
ATOM     13  C   UNL     1       3.768   3.681  17.041  0.00  0.00    +0.000 C 
BRANCH  13  17
ATOM     14  C   UNL     1       2.208   6.518  19.932  0.00  0.00    +0.000 A 
ATOM     15  C   UNL     1       2.410   6.886  18.596  0.00  0.00    +0.000 A 
ATOM     16  C   UNL     1       2.938   5.988  17.665  0.00  0.00    +0.000 A 
ATOM     17  C   UNL     1       3.284   4.691  18.058  0.00  0.00    +0.000 A 
ATOM     18  C   UNL     1       3.096   4.320  19.397  0.00  0.00    +0.000 A 
ATOM     19  C   UNL     1       2.560   5.222  20.324  0.00  0.00    +0.000 A 
BRANCH  14  21
ATOM     20  C   UNL     1       1.350   8.747  20.041  0.00  0.00    +0.000 C 
ATOM     21  O   UNL     1       1.666   7.521  20.686  0.00  0.00    +0.000 OA
ENDBRANCH  14  21
BRANCH  19  22
ATOM     22  O   UNL     1       2.385   4.791  21.613  0.00  0.00    +0.000 OA
ATOM     23  H   UNL     1       1.468   4.960  21.882  0.00  0.00    +0.000 HD
ENDBRANCH  19  22
ENDBRANCH  13  17
ENDBRANCH   1  13
TORSDOF 7
ENDMDL
MODEL 6
REMARK VINA RESULT:      -6.3      1.720      2.901
REMARK  Name = 
REMARK  11 active torsions:
REMARK  status: ('A' for Active; 'I' for Inactive)
REMARK    1  A    between atoms: C_1  and  O_2
REMARK    2  A    between atoms: O_2  and  C_3
REMARK    3  A    between atoms: C_6  and  C_7
REMARK    4  A    between atoms: C_7  and  C_8
REMARK    5  A    between atoms: C_10  and  O_11
REMARK    6  A    between atoms: O_11  and  C_12
REMARK    7  A    between atoms: C_13  and  O_14
REMARK    8  A    between atoms: O_14  and  C_15
REMARK    9  A    between atoms: C_16  and  O_17
REMARK   10  A    between atoms: O_17  and  C_18
REMARK   11  A    between atoms: C_21  and  O_22
REMARK                            x       y       z     vdW  Elec       q    Type
REMARK                         _______ _______ _______ _____ _____    ______ ____
ROOT
ATOM      1  C   UNL     1       3.636   6.423  17.937  0.00  0.00    +0.000 A 
ATOM      2  C   UNL     1       4.735   7.081  17.368  0.00  0.00    +0.000 A 
ATOM      3  C   UNL     1       6.039   6.584  17.501  0.00  0.00    +0.000 A 
ATOM      4  C   UNL     1       6.252   5.412  18.258  0.00  0.00    +0.000 A 
ATOM      5  C   UNL     1       5.148   4.765  18.867  0.00  0.00    +0.000 A 
ATOM      6  C   UNL     1       3.854   5.269  18.696  0.00  0.00    +0.000 A 
ENDROOT
BRANCH   3   7
ATOM      7  O   UNL     1       7.116   7.192  16.909  0.00  0.00    +0.000 OA
ATOM      8  C   UNL     1       7.734   8.283  17.578  0.00  0.00    +0.000 C 
ENDBRANCH   3   7
BRANCH   4   9
ATOM      9  O   UNL     1       7.454   4.784  18.496  0.00  0.00    +0.000 OA
ATOM     10  C   UNL     1       8.300   5.245  19.533  0.00  0.00    +0.000 C 
ENDBRANCH   4   9
BRANCH   5  11
ATOM     11  O   UNL     1       5.433   3.631  19.594  0.00  0.00    +0.000 OA
ATOM     12  C   UNL     1       4.424   2.638  19.701  0.00  0.00    +0.000 C 
ENDBRANCH   5  11
BRANCH   1  13
ATOM     13  C   UNL     1       2.229   6.897  17.641  0.00  0.00    +0.000 C 
BRANCH  13  17
ATOM     14  C   UNL     1       0.959  10.250  20.086  0.00  0.00    +0.000 A 
ATOM     15  C   UNL     1       1.088  10.378  18.696  0.00  0.00    +0.000 A 
ATOM     16  C   UNL     1       1.522   9.312  17.906  0.00  0.00    +0.000 A 
ATOM     17  C   UNL     1       1.848   8.085  18.495  0.00  0.00    +0.000 A 
ATOM     18  C   UNL     1       1.733   7.956  19.887  0.00  0.00    +0.000 A 
ATOM     19  C   UNL     1       1.289   9.025  20.674  0.00  0.00    +0.000 A 
BRANCH  14  21
ATOM     20  C   UNL     1       1.329  12.545  20.647  0.00  0.00    +0.000 C 
ATOM     21  O   UNL     1       0.502  11.391  20.686  0.00  0.00    +0.000 OA
ENDBRANCH  14  21
BRANCH  19  22
ATOM     22  O   UNL     1       1.182   8.828  22.025  0.00  0.00    +0.000 OA
ATOM     23  H   UNL     1       2.040   8.539  22.373  0.00  0.00    +0.000 HD
ENDBRANCH  19  22
ENDBRANCH  13  17
ENDBRANCH   1  13
TORSDOF 7
ENDMDL
MODEL 7
REMARK VINA RESULT:      -6.3      1.529      2.395
REMARK  Name = 
REMARK  11 active torsions:
REMARK  status: ('A' for Active; 'I' for Inactive)
REMARK    1  A    between atoms: C_1  and  O_2
REMARK    2  A    between atoms: O_2  and  C_3
REMARK    3  A    between atoms: C_6  and  C_7
REMARK    4  A    between atoms: C_7  and  C_8
REMARK    5  A    between atoms: C_10  and  O_11
REMARK    6  A    between atoms: O_11  and  C_12
REMARK    7  A    between atoms: C_13  and  O_14
REMARK    8  A    between atoms: O_14  and  C_15
REMARK    9  A    between atoms: C_16  and  O_17
REMARK   10  A    between atoms: O_17  and  C_18
REMARK   11  A    between atoms: C_21  and  O_22
REMARK                            x       y       z     vdW  Elec       q    Type
REMARK                         _______ _______ _______ _____ _____    ______ ____
ROOT
ATOM      1  C   UNL     1       3.625   6.613  18.010  0.00  0.00    +0.000 A 
ATOM      2  C   UNL     1       4.742   7.228  17.428  0.00  0.00    +0.000 A 
ATOM      3  C   UNL     1       6.024   6.670  17.529  0.00  0.00    +0.000 A 
ATOM      4  C   UNL     1       6.198   5.479  18.266  0.00  0.00    +0.000 A 
ATOM      5  C   UNL     1       5.076   4.874  18.887  0.00  0.00    +0.000 A 
ATOM      6  C   UNL     1       3.804   5.440  18.748  0.00  0.00    +0.000 A 
ENDROOT
BRANCH   3   7
ATOM      7  O   UNL     1       7.117   7.237  16.925  0.00  0.00    +0.000 OA
ATOM      8  C   UNL     1       7.778   8.311  17.581  0.00  0.00    +0.000 C 
ENDBRANCH   3   7
BRANCH   4   9
ATOM      9  O   UNL     1       7.373   4.793  18.472  0.00  0.00    +0.000 OA
ATOM     10  C   UNL     1       8.293   5.243  19.451  0.00  0.00    +0.000 C 
ENDBRANCH   4   9
BRANCH   5  11
ATOM     11  O   UNL     1       5.323   3.719  19.594  0.00  0.00    +0.000 OA
ATOM     12  C   UNL     1       4.364   2.675  19.518  0.00  0.00    +0.000 C 
ENDBRANCH   5  11
BRANCH   1  13
ATOM     13  C   UNL     1       2.236   7.155  17.747  0.00  0.00    +0.000 C 
BRANCH  13  17
ATOM     14  C   UNL     1       1.001   9.686  21.049  0.00  0.00    +0.000 A 
ATOM     15  C   UNL     1       1.369   8.351  21.262  0.00  0.00    +0.000 A 
ATOM     16  C   UNL     1       1.741   7.522  20.201  0.00  0.00    +0.000 A 
ATOM     17  C   UNL     1       1.746   8.014  18.891  0.00  0.00    +0.000 A 
ATOM     18  C   UNL     1       1.366   9.346  18.671  0.00  0.00    +0.000 A 
ATOM     19  C   UNL     1       1.001  10.175  19.739  0.00  0.00    +0.000 A 
BRANCH  14  21
ATOM     20  C   UNL     1      -0.039   9.639  23.202  0.00  0.00    +0.000 C 
ATOM     21  O   UNL     1       0.689  10.344  22.207  0.00  0.00    +0.000 OA
ENDBRANCH  14  21
BRANCH  19  22
ATOM     22  O   UNL     1       0.657  11.471  19.458  0.00  0.00    +0.000 OA
ATOM     23  H   UNL     1       0.532  11.566  18.500  0.00  0.00    +0.000 HD
ENDBRANCH  19  22
ENDBRANCH  13  17
ENDBRANCH   1  13
TORSDOF 7
ENDMDL
MODEL 8
REMARK VINA RESULT:      -6.2      1.743      3.641
REMARK  Name = 
REMARK  11 active torsions:
REMARK  status: ('A' for Active; 'I' for Inactive)
REMARK    1  A    between atoms: C_1  and  O_2
REMARK    2  A    between atoms: O_2  and  C_3
REMARK    3  A    between atoms: C_6  and  C_7
REMARK    4  A    between atoms: C_7  and  C_8
REMARK    5  A    between atoms: C_10  and  O_11
REMARK    6  A    between atoms: O_11  and  C_12
REMARK    7  A    between atoms: C_13  and  O_14
REMARK    8  A    between atoms: O_14  and  C_15
REMARK    9  A    between atoms: C_16  and  O_17
REMARK   10  A    between atoms: O_17  and  C_18
REMARK   11  A    between atoms: C_21  and  O_22
REMARK                            x       y       z     vdW  Elec       q    Type
REMARK                         _______ _______ _______ _____ _____    ______ ____
ROOT
ATOM      1  C   UNL     1       3.713   6.111  17.688  0.00  0.00    +0.000 A 
ATOM      2  C   UNL     1       3.923   4.980  18.487  0.00  0.00    +0.000 A 
ATOM      3  C   UNL     1       5.214   4.553  18.832  0.00  0.00    +0.000 A 
ATOM      4  C   UNL     1       6.327   5.261  18.331  0.00  0.00    +0.000 A 
ATOM      5  C   UNL     1       6.118   6.384  17.492  0.00  0.00    +0.000 A 
ATOM      6  C   UNL     1       4.819   6.802  17.184  0.00  0.00    +0.000 A 
ENDROOT
BRANCH   3   7
ATOM      7  O   UNL     1       5.431   3.476  19.652  0.00  0.00    +0.000 OA
ATOM      8  C   UNL     1       4.376   2.544  19.848  0.00  0.00    +0.000 C 
ENDBRANCH   3   7
BRANCH   4   9
ATOM      9  O   UNL     1       7.657   4.990  18.562  0.00  0.00    +0.000 OA
ATOM     10  C   UNL     1       8.263   5.404  19.773  0.00  0.00    +0.000 C 
ENDBRANCH   4   9
BRANCH   5  11
ATOM     11  O   UNL     1       7.251   7.021  17.036  0.00  0.00    +0.000 OA
ATOM     12  C   UNL     1       7.580   8.280  17.603  0.00  0.00    +0.000 C 
ENDBRANCH   5  11
BRANCH   1  13
ATOM     13  C   UNL     1       2.310   6.636  17.467  0.00  0.00    +0.000 C 
BRANCH  13  17
ATOM     14  C   UNL     1       1.222   9.887  20.129  0.00  0.00    +0.000 A 
ATOM     15  C   UNL     1       1.252  10.070  18.740  0.00  0.00    +0.000 A 
ATOM     16  C   UNL     1       1.628   9.037  17.879  0.00  0.00    +0.000 A 
ATOM     17  C   UNL     1       1.993   7.789  18.394  0.00  0.00    +0.000 A 
ATOM     18  C   UNL     1       1.977   7.603  19.783  0.00  0.00    +0.000 A 
ATOM     19  C   UNL     1       1.592   8.639  20.643  0.00  0.00    +0.000 A 
BRANCH  14  21
ATOM     20  C   UNL     1      -0.247  11.769  20.250  0.00  0.00    +0.000 C 
ATOM     21  O   UNL     1       0.811  11.002  20.805  0.00  0.00    +0.000 OA
ENDBRANCH  14  21
BRANCH  19  22
ATOM     22  O   UNL     1       1.581   8.388  21.989  0.00  0.00    +0.000 OA
ATOM     23  H   UNL     1       0.685   8.532  22.332  0.00  0.00    +0.000 HD
ENDBRANCH  19  22
ENDBRANCH  13  17
ENDBRANCH   1  13
TORSDOF 7
ENDMDL
MODEL 9
REMARK VINA RESULT:      -6.2      2.226      7.392
REMARK  Name = 
REMARK  11 active torsions:
REMARK  status: ('A' for Active; 'I' for Inactive)
REMARK    1  A    between atoms: C_1  and  O_2
REMARK    2  A    between atoms: O_2  and  C_3
REMARK    3  A    between atoms: C_6  and  C_7
REMARK    4  A    between atoms: C_7  and  C_8
REMARK    5  A    between atoms: C_10  and  O_11
REMARK    6  A    between atoms: O_11  and  C_12
REMARK    7  A    between atoms: C_13  and  O_14
REMARK    8  A    between atoms: O_14  and  C_15
REMARK    9  A    between atoms: C_16  and  O_17
REMARK   10  A    between atoms: O_17  and  C_18
REMARK   11  A    between atoms: C_21  and  O_22
REMARK                            x       y       z     vdW  Elec       q    Type
REMARK                         _______ _______ _______ _____ _____    ______ ____
ROOT
ATOM      1  C   UNL     1       1.279   9.027  19.031  0.00  0.00    +0.000 A 
ATOM      2  C   UNL     1       0.336   9.518  18.119  0.00  0.00    +0.000 A 
ATOM      3  C   UNL     1      -0.643  10.447  18.502  0.00  0.00    +0.000 A 
ATOM      4  C   UNL     1      -0.701  10.866  19.848  0.00  0.00    +0.000 A 
ATOM      5  C   UNL     1       0.228  10.343  20.782  0.00  0.00    +0.000 A 
ATOM      6  C   UNL     1       1.210   9.438  20.366  0.00  0.00    +0.000 A 
ENDROOT
BRANCH   3   7
ATOM      7  O   UNL     1      -1.542  10.970  17.608  0.00  0.00    +0.000 OA
ATOM      8  C   UNL     1      -2.276  10.080  16.779  0.00  0.00    +0.000 C 
ENDBRANCH   3   7
BRANCH   4   9
ATOM      9  O   UNL     1      -1.587  11.763  20.401  0.00  0.00    +0.000 OA
ATOM     10  C   UNL     1      -1.427  13.151  20.168  0.00  0.00    +0.000 C 
ENDBRANCH   4   9
BRANCH   5  11
ATOM     11  O   UNL     1       0.107  10.794  22.077  0.00  0.00    +0.000 OA
ATOM     12  C   UNL     1      -0.353   9.879  23.060  0.00  0.00    +0.000 C 
ENDBRANCH   5  11
BRANCH   1  13
ATOM     13  C   UNL     1       2.417   8.153  18.551  0.00  0.00    +0.000 C 
BRANCH  13  17
ATOM     14  C   UNL     1       1.648   4.022  19.640  0.00  0.00    +0.000 A 
ATOM     15  C   UNL     1       1.755   5.019  20.619  0.00  0.00    +0.000 A 
ATOM     16  C   UNL     1       2.030   6.346  20.279  0.00  0.00    +0.000 A 
ATOM     17  C   UNL     1       2.213   6.705  18.939  0.00  0.00    +0.000 A 
ATOM     18  C   UNL     1       2.119   5.710  17.956  0.00  0.00    +0.000 A 
ATOM     19  C   UNL     1       1.835   4.383  18.302  0.00  0.00    +0.000 A 
BRANCH  14  21
ATOM     20  C   UNL     1       1.667   2.553  21.527  0.00  0.00    +0.000 C 
ATOM     21  O   UNL     1       1.355   2.793  20.162  0.00  0.00    +0.000 OA
ENDBRANCH  14  21
BRANCH  19  22
ATOM     22  O   UNL     1       1.740   3.462  17.292  0.00  0.00    +0.000 OA
ATOM     23  H   UNL     1       1.940   3.895  16.448  0.00  0.00    +0.000 HD
ENDBRANCH  19  22
ENDBRANCH  13  17
ENDBRANCH   1  13
TORSDOF 7
ENDMDL
