MODEL 1
REMARK VINA RESULT:      -6.7      0.000      0.000
REMARK  Name = 
REMARK  4 active torsions:
REMARK  status: ('A' for Active; 'I' for Inactive)
REMARK    1  A    between atoms: C_2  and  C_12
REMARK    2  A    between atoms: N_3  and  C_4
REMARK    3  A    between atoms: C_13  and  O_14
REMARK    4  A    between atoms: N_15  and  S_16
REMARK                            x       y       z     vdW  Elec       q    Type
REMARK                         _______ _______ _______ _____ _____    ______ ____
ROOT
ATOM      1  C   UNL     1       2.951   6.591  18.543  0.00  0.00    +0.000 C 
ATOM      2  C   UNL     1       4.027   6.759  17.723  0.00  0.00    +0.000 C 
ATOM      3  N   UNL     1       5.129   5.835  17.720  0.00  0.00    +0.000 N 
ATOM      4  S   UNL     1       4.931   4.244  18.249  0.00  0.00    +0.000 S 
ATOM      5  O   UNL     1       4.438   3.397  17.184  0.00  0.00    +0.000 OA
ATOM      6  O   UNL     1       6.027   3.862  19.112  0.00  0.00    +0.000 OA
ATOM      7  C   UNL     1       3.596   4.288  19.325  0.00  0.00    +0.000 A 
ATOM      8  C   UNL     1       3.199   3.230  20.185  0.00  0.00    +0.000 A 
ATOM      9  C   UNL     1       2.057   3.580  20.848  0.00  0.00    +0.000 A 
ATOM     10 CL   UNL     1       1.196   2.623  21.982  0.00  0.00    +0.000 Cl
ATOM     11  S   UNL     1       1.488   5.119  20.444  0.00  0.00    +0.000 S 
ATOM     12  C   UNL     1       2.788   5.409  19.344  0.00  0.00    +0.000 A 
ENDROOT
BRANCH   1  14
ATOM     13  O   UNL     1       1.327   7.882  17.426  0.00  0.00    +0.000 OA
ATOM     14  C   UNL     1       1.944   7.713  18.479  0.00  0.00    +0.000 C 
ATOM     15  N   UNL     1       1.865   8.553  19.567  0.00  0.00    +0.000 N 
ATOM     16  H   UNL     1       2.511   8.399  20.340  0.00  0.00    +0.000 HD
BRANCH  15  17
ATOM     17  C   UNL     1       1.047   9.706  19.693  0.00  0.00    +0.000 A 
ATOM     18  C   UNL     1       1.227  10.850  18.907  0.00  0.00    +0.000 A 
ATOM     19  C   UNL     1       0.447  11.990  19.111  0.00  0.00    +0.000 A 
ATOM     20  C   UNL     1      -0.534  11.993  20.097  0.00  0.00    +0.000 A 
ATOM     21 CL   UNL     1      -1.462  13.414  20.369  0.00  0.00    +0.000 Cl
ATOM     22  C   UNL     1      -0.763  10.854  20.863  0.00  0.00    +0.000 A 
ATOM     23  C   UNL     1       0.019   9.713  20.654  0.00  0.00    +0.000 A 
ATOM     24 CL   UNL     1      -0.293   8.321  21.633  0.00  0.00    +0.000 Cl
ENDBRANCH  15  17
ENDBRANCH   1  14
BRANCH   2  25
ATOM     25  O   UNL     1       4.231   7.869  16.915  0.00  0.00    +0.000 OA
ATOM     26  H   UNL     1       3.446   8.458  16.986  0.00  0.00    +0.000 HD
ENDBRANCH   2  25
BRANCH   3  27
ATOM     27  S   UNL     1       6.304   5.948  16.461  0.00  0.00    +0.000 S 
ATOM     28  H   UNL     1       7.173   5.031  16.926  0.00  0.00    +0.000 HD
ENDBRANCH   3  27
TORSDOF 4
ENDMDL
MODEL 2
REMARK VINA RESULT:      -6.4      4.171      8.270
REMARK  Name = 
REMARK  4 active torsions:
REMARK  status: ('A' for Active; 'I' for Inactive)
REMARK    1  A    between atoms: C_2  and  C_12
REMARK    2  A    between atoms: N_3  and  C_4
REMARK    3  A    between atoms: C_13  and  O_14
REMARK    4  A    between atoms: N_15  and  S_16
REMARK                            x       y       z     vdW  Elec       q    Type
REMARK                         _______ _______ _______ _____ _____    ______ ____
ROOT
ATOM      1  C   UNL     1       0.972  10.781  19.785  0.00  0.00    +0.000 C 
ATOM      2  C   UNL     1       0.163  10.526  20.852  0.00  0.00    +0.000 C 
ATOM      3  N   UNL     1      -0.188  11.550  21.798  0.00  0.00    +0.000 N 
ATOM      4  S   UNL     1      -0.136  13.183  21.371  0.00  0.00    +0.000 S 
ATOM      5  O   UNL     1      -1.364  13.594  20.725  0.00  0.00    +0.000 OA
ATOM      6  O   UNL     1       0.498  13.956  22.417  0.00  0.00    +0.000 OA
ATOM      7  C   UNL     1       0.998  13.278  20.087  0.00  0.00    +0.000 A 
ATOM      8  C   UNL     1       1.537  14.479  19.554  0.00  0.00    +0.000 A 
ATOM      9  C   UNL     1       2.353  14.189  18.498  0.00  0.00    +0.000 A 
ATOM     10 CL   UNL     1       3.214  15.311  17.529  0.00  0.00    +0.000 Cl
ATOM     11  S   UNL     1       2.458  12.535  18.163  0.00  0.00    +0.000 S 
ATOM     12  C   UNL     1       1.402  12.113  19.463  0.00  0.00    +0.000 A 
ENDROOT
BRANCH   1  14
ATOM     13  O   UNL     1       0.702   9.386  17.904  0.00  0.00    +0.000 OA
ATOM     14  C   UNL     1       1.311   9.562  18.962  0.00  0.00    +0.000 C 
ATOM     15  N   UNL     1       2.197   8.659  19.506  0.00  0.00    +0.000 N 
ATOM     16  H   UNL     1       2.548   8.839  20.445  0.00  0.00    +0.000 HD
BRANCH  15  17
ATOM     17  C   UNL     1       2.599   7.420  18.943  0.00  0.00    +0.000 A 
ATOM     18  C   UNL     1       3.386   7.334  17.789  0.00  0.00    +0.000 A 
ATOM     19  C   UNL     1       3.701   6.095  17.227  0.00  0.00    +0.000 A 
ATOM     20  C   UNL     1       3.242   4.925  17.824  0.00  0.00    +0.000 A 
ATOM     21 CL   UNL     1       3.599   3.406  17.101  0.00  0.00    +0.000 Cl
ATOM     22  C   UNL     1       2.494   4.981  18.995  0.00  0.00    +0.000 A 
ATOM     23  C   UNL     1       2.184   6.223  19.557  0.00  0.00    +0.000 A 
ATOM     24 CL   UNL     1       1.245   6.249  21.011  0.00  0.00    +0.000 Cl
ENDBRANCH  15  17
ENDBRANCH   1  14
BRANCH   2  25
ATOM     25  O   UNL     1      -0.297   9.264  21.203  0.00  0.00    +0.000 OA
ATOM     26  H   UNL     1       0.208   8.953  21.988  0.00  0.00    +0.000 HD
ENDBRANCH   2  25
BRANCH   3  27
ATOM     27  S   UNL     1      -1.439  11.230  22.944  0.00  0.00    +0.000 S 
ATOM     28  H   UNL     1      -0.715  10.515  23.824  0.00  0.00    +0.000 HD
ENDBRANCH   3  27
TORSDOF 4
ENDMDL
MODEL 3
REMARK VINA RESULT:      -6.3      2.652      3.569
REMARK  Name = 
REMARK  4 active torsions:
REMARK  status: ('A' for Active; 'I' for Inactive)
REMARK    1  A    between atoms: C_2  and  C_12
REMARK    2  A    between atoms: N_3  and  C_4
REMARK    3  A    between atoms: C_13  and  O_14
REMARK    4  A    between atoms: N_15  and  S_16
REMARK                            x       y       z     vdW  Elec       q    Type
REMARK                         _______ _______ _______ _____ _____    ______ ____
ROOT
ATOM      1  C   UNL     1       3.106   6.020  18.468  0.00  0.00    +0.000 C 
ATOM      2  C   UNL     1       2.509   5.301  19.461  0.00  0.00    +0.000 C 
ATOM      3  N   UNL     1       2.654   3.874  19.556  0.00  0.00    +0.000 N 
ATOM      4  S   UNL     1       3.977   3.088  18.862  0.00  0.00    +0.000 S 
ATOM      5  O   UNL     1       5.117   3.094  19.755  0.00  0.00    +0.000 OA
ATOM      6  O   UNL     1       3.542   1.903  18.154  0.00  0.00    +0.000 OA
ATOM      7  C   UNL     1       4.503   4.118  17.596  0.00  0.00    +0.000 A 
ATOM      8  C   UNL     1       5.446   3.771  16.592  0.00  0.00    +0.000 A 
ATOM      9  C   UNL     1       5.682   4.850  15.789  0.00  0.00    +0.000 A 
ATOM     10 CL   UNL     1       6.754   4.918  14.452  0.00  0.00    +0.000 Cl
ATOM     11  S   UNL     1       4.805   6.225  16.234  0.00  0.00    +0.000 S 
ATOM     12  C   UNL     1       4.030   5.416  17.549  0.00  0.00    +0.000 A 
ENDROOT
BRANCH   1  14
ATOM     13  O   UNL     1       3.522   8.270  17.904  0.00  0.00    +0.000 OA
ATOM     14  C   UNL     1       2.756   7.488  18.471  0.00  0.00    +0.000 C 
ATOM     15  N   UNL     1       1.661   7.874  19.211  0.00  0.00    +0.000 N 
ATOM     16  H   UNL     1       1.169   7.160  19.746  0.00  0.00    +0.000 HD
BRANCH  15  17
ATOM     17  C   UNL     1       1.197   9.200  19.413  0.00  0.00    +0.000 A 
ATOM     18  C   UNL     1       0.921  10.072  18.354  0.00  0.00    +0.000 A 
ATOM     19  C   UNL     1       0.534  11.392  18.596  0.00  0.00    +0.000 A 
ATOM     20  C   UNL     1       0.406  11.850  19.903  0.00  0.00    +0.000 A 
ATOM     21 CL   UNL     1      -0.030  13.488  20.191  0.00  0.00    +0.000 Cl
ATOM     22  C   UNL     1       0.632  10.991  20.974  0.00  0.00    +0.000 A 
ATOM     23  C   UNL     1       1.017   9.669  20.727  0.00  0.00    +0.000 A 
ATOM     24 CL   UNL     1       1.297   8.635  22.087  0.00  0.00    +0.000 Cl
ENDBRANCH  15  17
ENDBRANCH   1  14
BRANCH   2  25
ATOM     25  O   UNL     1       1.621   5.833  20.387  0.00  0.00    +0.000 OA
ATOM     26  H   UNL     1       1.535   6.798  20.222  0.00  0.00    +0.000 HD
ENDBRANCH   2  25
BRANCH   3  27
ATOM     27  S   UNL     1       2.119   3.079  20.991  0.00  0.00    +0.000 S 
ATOM     28  H   UNL     1       2.590   1.848  20.717  0.00  0.00    +0.000 HD
ENDBRANCH   3  27
TORSDOF 4
ENDMDL
MODEL 4
REMARK VINA RESULT:      -6.3      5.537      9.113
REMARK  Name = 
REMARK  4 active torsions:
REMARK  status: ('A' for Active; 'I' for Inactive)
REMARK    1  A    between atoms: C_2  and  C_12
REMARK    2  A    between atoms: N_3  and  C_4
REMARK    3  A    between atoms: C_13  and  O_14
REMARK    4  A    between atoms: N_15  and  S_16
REMARK                            x       y       z     vdW  Elec       q    Type
REMARK                         _______ _______ _______ _____ _____    ______ ____
ROOT
ATOM      1  C   UNL     1      -1.415  12.362  20.560  0.00  0.00    +0.000 C 
ATOM      2  C   UNL     1      -1.202  13.020  21.735  0.00  0.00    +0.000 C 
ATOM      3  N   UNL     1      -2.223  13.826  22.348  0.00  0.00    +0.000 N 
ATOM      4  S   UNL     1      -3.857  13.561  22.013  0.00  0.00    +0.000 S 
ATOM      5  O   UNL     1      -4.403  12.524  22.863  0.00  0.00    +0.000 OA
ATOM      6  O   UNL     1      -4.532  14.819  21.777  0.00  0.00    +0.000 OA
ATOM      7  C   UNL     1      -3.887  12.817  20.468  0.00  0.00    +0.000 A 
ATOM      8  C   UNL     1      -5.049  12.612  19.678  0.00  0.00    +0.000 A 
ATOM      9  C   UNL     1      -4.718  11.930  18.541  0.00  0.00    +0.000 A 
ATOM     10 CL   UNL     1      -5.786  11.441  17.291  0.00  0.00    +0.000 Cl
ATOM     11  S   UNL     1      -3.074  11.551  18.438  0.00  0.00    +0.000 S 
ATOM     12  C   UNL     1      -2.711  12.318  19.942  0.00  0.00    +0.000 A 
ENDROOT
BRANCH   1  14
ATOM     13  O   UNL     1       0.732  12.336  19.587  0.00  0.00    +0.000 OA
ATOM     14  C   UNL     1      -0.197  11.651  20.021  0.00  0.00    +0.000 C 
ATOM     15  N   UNL     1      -0.252  10.278  19.939  0.00  0.00    +0.000 N 
ATOM     16  H   UNL     1      -1.119   9.817  20.210  0.00  0.00    +0.000 HD
BRANCH  15  17
ATOM     17  C   UNL     1       0.741   9.419  19.403  0.00  0.00    +0.000 A 
ATOM     18  C   UNL     1       1.129   9.459  18.059  0.00  0.00    +0.000 A 
ATOM     19  C   UNL     1       2.059   8.547  17.554  0.00  0.00    +0.000 A 
ATOM     20  C   UNL     1       2.622   7.592  18.394  0.00  0.00    +0.000 A 
ATOM     21 CL   UNL     1       3.734   6.448  17.754  0.00  0.00    +0.000 Cl
ATOM     22  C   UNL     1       2.286   7.558  19.743  0.00  0.00    +0.000 A 
ATOM     23  C   UNL     1       1.357   8.474  20.246  0.00  0.00    +0.000 A 
ATOM     24 CL   UNL     1       0.960   8.393  21.928  0.00  0.00    +0.000 Cl
ENDBRANCH  15  17
ENDBRANCH   1  14
BRANCH   2  25
ATOM     25  O   UNL     1       0.022  13.084  22.387  0.00  0.00    +0.000 OA
ATOM     26  H   UNL     1       0.198  12.214  22.812  0.00  0.00    +0.000 HD
ENDBRANCH   2  25
BRANCH   3  27
ATOM     27  S   UNL     1      -1.984  14.383  23.964  0.00  0.00    +0.000 S 
ATOM     28  H   UNL     1      -2.463  15.631  23.810  0.00  0.00    +0.000 HD
ENDBRANCH   3  27
TORSDOF 4
ENDMDL
MODEL 5
REMARK VINA RESULT:      -6.3      1.079      1.447
REMARK  Name = 
REMARK  4 active torsions:
REMARK  status: ('A' for Active; 'I' for Inactive)
REMARK    1  A    between atoms: C_2  and  C_12
REMARK    2  A    between atoms: N_3  and  C_4
REMARK    3  A    between atoms: C_13  and  O_14
REMARK    4  A    between atoms: N_15  and  S_16
REMARK                            x       y       z     vdW  Elec       q    Type
REMARK                         _______ _______ _______ _____ _____    ______ ____
ROOT
ATOM      1  C   UNL     1       2.929   6.579  18.583  0.00  0.00    +0.000 C 
ATOM      2  C   UNL     1       3.980   6.800  17.743  0.00  0.00    +0.000 C 
ATOM      3  N   UNL     1       5.115   5.919  17.701  0.00  0.00    +0.000 N 
ATOM      4  S   UNL     1       4.988   4.313  18.207  0.00  0.00    +0.000 S 
ATOM      5  O   UNL     1       4.503   3.465  17.139  0.00  0.00    +0.000 OA
ATOM      6  O   UNL     1       6.116   3.958  19.040  0.00  0.00    +0.000 OA
ATOM      7  C   UNL     1       3.676   4.290  19.312  0.00  0.00    +0.000 A 
ATOM      8  C   UNL     1       3.338   3.204  20.163  0.00  0.00    +0.000 A 
ATOM      9  C   UNL     1       2.199   3.501  20.856  0.00  0.00    +0.000 A 
ATOM     10 CL   UNL     1       1.399   2.495  21.992  0.00  0.00    +0.000 Cl
ATOM     11  S   UNL     1       1.565   5.024  20.490  0.00  0.00    +0.000 S 
ATOM     12  C   UNL     1       2.828   5.380  19.367  0.00  0.00    +0.000 A 
ENDROOT
BRANCH   1  14
ATOM     13  O   UNL     1       1.205   7.799  17.537  0.00  0.00    +0.000 OA
ATOM     14  C   UNL     1       1.881   7.664  18.559  0.00  0.00    +0.000 C 
ATOM     15  N   UNL     1       1.826   8.513  19.642  0.00  0.00    +0.000 N 
ATOM     16  H   UNL     1       2.516   8.391  20.382  0.00  0.00    +0.000 HD
BRANCH  15  17
ATOM     17  C   UNL     1       0.974   9.637  19.798  0.00  0.00    +0.000 A 
ATOM     18  C   UNL     1      -0.098   9.654  20.697  0.00  0.00    +0.000 A 
ATOM     19  C   UNL     1      -0.956  10.753  20.768  0.00  0.00    +0.000 A 
ATOM     20  C   UNL     1      -0.742  11.856  19.948  0.00  0.00    +0.000 A 
ATOM     21 CL   UNL     1      -1.828  13.187  20.014  0.00  0.00    +0.000 Cl
ATOM     22  C   UNL     1       0.342  11.883  19.077  0.00  0.00    +0.000 A 
ATOM     23  C   UNL     1       1.201  10.781  19.010  0.00  0.00    +0.000 A 
ATOM     24 CL   UNL     1       2.532  10.852  17.907  0.00  0.00    +0.000 Cl
ENDBRANCH  15  17
ENDBRANCH   1  14
BRANCH   2  25
ATOM     25  O   UNL     1       4.125   7.930  16.949  0.00  0.00    +0.000 OA
ATOM     26  H   UNL     1       3.390   7.951  16.296  0.00  0.00    +0.000 HD
ENDBRANCH   2  25
BRANCH   3  27
ATOM     27  S   UNL     1       6.257   6.096  16.419  0.00  0.00    +0.000 S 
ATOM     28  H   UNL     1       6.583   4.798  16.270  0.00  0.00    +0.000 HD
ENDBRANCH   3  27
TORSDOF 4
ENDMDL
MODEL 6
REMARK VINA RESULT:      -6.2      5.700      9.180
REMARK  Name = 
REMARK  4 active torsions:
REMARK  status: ('A' for Active; 'I' for Inactive)
REMARK    1  A    between atoms: C_2  and  C_12
REMARK    2  A    between atoms: N_3  and  C_4
REMARK    3  A    between atoms: C_13  and  O_14
REMARK    4  A    between atoms: N_15  and  S_16
REMARK                            x       y       z     vdW  Elec       q    Type
REMARK                         _______ _______ _______ _____ _____    ______ ____
ROOT
ATOM      1  C   UNL     1      -0.467  13.259  20.714  0.00  0.00    +0.000 C 
ATOM      2  C   UNL     1      -0.197  14.279  19.851  0.00  0.00    +0.000 C 
ATOM      3  N   UNL     1      -1.061  15.422  19.734  0.00  0.00    +0.000 N 
ATOM      4  S   UNL     1      -2.090  15.866  20.997  0.00  0.00    +0.000 S 
ATOM      5  O   UNL     1      -1.403  16.698  21.962  0.00  0.00    +0.000 OA
ATOM      6  O   UNL     1      -3.406  16.182  20.485  0.00  0.00    +0.000 OA
ATOM      7  C   UNL     1      -2.362  14.426  21.887  0.00  0.00    +0.000 A 
ATOM      8  C   UNL     1      -3.338  14.262  22.905  0.00  0.00    +0.000 A 
ATOM      9  C   UNL     1      -3.231  13.013  23.448  0.00  0.00    +0.000 A 
ATOM     10 CL   UNL     1      -4.184  12.361  24.716  0.00  0.00    +0.000 Cl
ATOM     11  S   UNL     1      -2.000  12.082  22.759  0.00  0.00    +0.000 S 
ATOM     12  C   UNL     1      -1.549  13.333  21.656  0.00  0.00    +0.000 A 
ENDROOT
BRANCH   1  14
ATOM     13  O   UNL     1       1.586  12.205  21.193  0.00  0.00    +0.000 OA
ATOM     14  C   UNL     1       0.498  12.102  20.624  0.00  0.00    +0.000 C 
ATOM     15  N   UNL     1       0.146  11.049  19.810  0.00  0.00    +0.000 N 
ATOM     16  H   UNL     1      -0.724  11.120  19.284  0.00  0.00    +0.000 HD
BRANCH  15  17
ATOM     17  C   UNL     1       0.927   9.899  19.523  0.00  0.00    +0.000 A 
ATOM     18  C   UNL     1       1.584   9.717  18.301  0.00  0.00    +0.000 A 
ATOM     19  C   UNL     1       2.284   8.539  18.032  0.00  0.00    +0.000 A 
ATOM     20  C   UNL     1       2.344   7.532  18.990  0.00  0.00    +0.000 A 
ATOM     21 CL   UNL     1       3.172   6.069  18.634  0.00  0.00    +0.000 Cl
ATOM     22  C   UNL     1       1.736   7.705  20.229  0.00  0.00    +0.000 A 
ATOM     23  C   UNL     1       1.039   8.888  20.496  0.00  0.00    +0.000 A 
ATOM     24 CL   UNL     1       0.289   9.060  22.047  0.00  0.00    +0.000 Cl
ENDBRANCH  15  17
ENDBRANCH   1  14
BRANCH   2  25
ATOM     25  O   UNL     1       0.843  14.272  18.931  0.00  0.00    +0.000 OA
ATOM     26  H   UNL     1       0.661  13.579  18.257  0.00  0.00    +0.000 HD
ENDBRANCH   2  25
BRANCH   3  27
ATOM     27  S   UNL     1      -0.508  16.795  18.847  0.00  0.00    +0.000 S 
ATOM     28  H   UNL     1      -1.447  16.794  17.884  0.00  0.00    +0.000 HD
ENDBRANCH   3  27
TORSDOF 4
ENDMDL
MODEL 7
REMARK VINA RESULT:      -6.2      4.878      8.923
REMARK  Name = 
REMARK  4 active torsions:
REMARK  status: ('A' for Active; 'I' for Inactive)
REMARK    1  A    between atoms: C_2  and  C_12
REMARK    2  A    between atoms: N_3  and  C_4
REMARK    3  A    between atoms: C_13  and  O_14
REMARK    4  A    between atoms: N_15  and  S_16
REMARK                            x       y       z     vdW  Elec       q    Type
REMARK                         _______ _______ _______ _____ _____    ______ ____
ROOT
ATOM      1  C   UNL     1       0.101  11.338  21.706  0.00  0.00    +0.000 C 
ATOM      2  C   UNL     1      -0.956  11.282  22.565  0.00  0.00    +0.000 C 
ATOM      3  N   UNL     1      -1.734  12.447  22.888  0.00  0.00    +0.000 N 
ATOM      4  S   UNL     1      -1.791  13.770  21.841  0.00  0.00    +0.000 S 
ATOM      5  O   UNL     1      -2.802  13.586  20.821  0.00  0.00    +0.000 OA
ATOM      6  O   UNL     1      -1.640  15.003  22.582  0.00  0.00    +0.000 OA
ATOM      7  C   UNL     1      -0.339  13.691  20.932  0.00  0.00    +0.000 A 
ATOM      8  C   UNL     1       0.156  14.717  20.084  0.00  0.00    +0.000 A 
ATOM      9  C   UNL     1       1.296  14.291  19.464  0.00  0.00    +0.000 A 
ATOM     10 CL   UNL     1       2.242  15.175  18.339  0.00  0.00    +0.000 Cl
ATOM     11  S   UNL     1       1.744  12.717  19.885  0.00  0.00    +0.000 S 
ATOM     12  C   UNL     1       0.408  12.529  20.963  0.00  0.00    +0.000 A 
ENDROOT
BRANCH   1  14
ATOM     13  O   UNL     1       1.628   9.717  22.476  0.00  0.00    +0.000 OA
ATOM     14  C   UNL     1       0.857  10.039  21.570  0.00  0.00    +0.000 C 
ATOM     15  N   UNL     1       0.725   9.354  20.383  0.00  0.00    +0.000 N 
ATOM     16  H   UNL     1       0.158   9.773  19.648  0.00  0.00    +0.000 HD
BRANCH  15  17
ATOM     17  C   UNL     1       1.395   8.158  20.014  0.00  0.00    +0.000 A 
ATOM     18  C   UNL     1       1.383   7.008  20.811  0.00  0.00    +0.000 A 
ATOM     19  C   UNL     1       2.114   5.875  20.446  0.00  0.00    +0.000 A 
ATOM     20  C   UNL     1       2.857   5.877  19.270  0.00  0.00    +0.000 A 
ATOM     21 CL   UNL     1       3.787   4.493  18.851  0.00  0.00    +0.000 Cl
ATOM     22  C   UNL     1       2.852   6.992  18.438  0.00  0.00    +0.000 A 
ATOM     23  C   UNL     1       2.116   8.123  18.805  0.00  0.00    +0.000 A 
ATOM     24 CL   UNL     1       2.143   9.492  17.747  0.00  0.00    +0.000 Cl
ENDBRANCH  15  17
ENDBRANCH   1  14
BRANCH   2  25
ATOM     25  O   UNL     1      -1.311  10.156  23.297  0.00  0.00    +0.000 OA
ATOM     26  H   UNL     1      -2.252   9.941  23.107  0.00  0.00    +0.000 HD
ENDBRANCH   2  25
BRANCH   3  27
ATOM     27  S   UNL     1      -3.219  12.243  23.743  0.00  0.00    +0.000 S 
ATOM     28  H   UNL     1      -2.762  11.464  24.741  0.00  0.00    +0.000 HD
ENDBRANCH   3  27
TORSDOF 4
ENDMDL
MODEL 8
REMARK VINA RESULT:      -6.2      5.793      9.737
REMARK  Name = 
REMARK  4 active torsions:
REMARK  status: ('A' for Active; 'I' for Inactive)
REMARK    1  A    between atoms: C_2  and  C_12
REMARK    2  A    between atoms: N_3  and  C_4
REMARK    3  A    between atoms: C_13  and  O_14
REMARK    4  A    between atoms: N_15  and  S_16
REMARK                            x       y       z     vdW  Elec       q    Type
REMARK                         _______ _______ _______ _____ _____    ______ ____
ROOT
ATOM      1  C   UNL     1      -0.650  12.966  21.369  0.00  0.00    +0.000 C 
ATOM      2  C   UNL     1      -1.470  12.537  22.371  0.00  0.00    +0.000 C 
ATOM      3  N   UNL     1      -2.474  13.390  22.946  0.00  0.00    +0.000 N 
ATOM      4  S   UNL     1      -3.097  14.701  22.083  0.00  0.00    +0.000 S 
ATOM      5  O   UNL     1      -4.183  14.289  21.219  0.00  0.00    +0.000 OA
ATOM      6  O   UNL     1      -3.170  15.871  22.931  0.00  0.00    +0.000 OA
ATOM      7  C   UNL     1      -1.876  15.123  20.956  0.00  0.00    +0.000 A 
ATOM      8  C   UNL     1      -1.859  16.305  20.167  0.00  0.00    +0.000 A 
ATOM      9  C   UNL     1      -0.779  16.283  19.331  0.00  0.00    +0.000 A 
ATOM     10 CL   UNL     1      -0.347  17.483  18.184  0.00  0.00    +0.000 Cl
ATOM     11  S   UNL     1       0.168  14.893  19.489  0.00  0.00    +0.000 S 
ATOM     12  C   UNL     1      -0.837  14.240  20.733  0.00  0.00    +0.000 A 
ENDROOT
BRANCH   1  14
ATOM     13  O   UNL     1       1.582  12.220  21.238  0.00  0.00    +0.000 OA
ATOM     14  C   UNL     1       0.407  11.967  20.965  0.00  0.00    +0.000 C 
ATOM     15  N   UNL     1       0.000  10.889  20.211  0.00  0.00    +0.000 N 
ATOM     16  H   UNL     1      -0.979  10.841  19.933  0.00  0.00    +0.000 HD
BRANCH  15  17
ATOM     17  C   UNL     1       0.828   9.874  19.665  0.00  0.00    +0.000 A 
ATOM     18  C   UNL     1       1.283   9.900  18.342  0.00  0.00    +0.000 A 
ATOM     19  C   UNL     1       2.037   8.845  17.823  0.00  0.00    +0.000 A 
ATOM     20  C   UNL     1       2.356   7.756  18.628  0.00  0.00    +0.000 A 
ATOM     21 CL   UNL     1       3.248   6.444  17.968  0.00  0.00    +0.000 Cl
ATOM     22  C   UNL     1       1.953   7.726  19.959  0.00  0.00    +0.000 A 
ATOM     23  C   UNL     1       1.200   8.786  20.476  0.00  0.00    +0.000 A 
ATOM     24 CL   UNL     1       0.712   8.705  22.135  0.00  0.00    +0.000 Cl
ENDBRANCH  15  17
ENDBRANCH   1  14
BRANCH   2  25
ATOM     25  O   UNL     1      -1.348  11.312  23.012  0.00  0.00    +0.000 OA
ATOM     26  H   UNL     1      -0.418  11.004  22.929  0.00  0.00    +0.000 HD
ENDBRANCH   2  25
BRANCH   3  27
ATOM     27  S   UNL     1      -3.656  12.694  23.993  0.00  0.00    +0.000 S 
ATOM     28  H   UNL     1      -4.743  12.917  23.231  0.00  0.00    +0.000 HD
ENDBRANCH   3  27
TORSDOF 4
ENDMDL
MODEL 9
REMARK VINA RESULT:      -6.1      4.174      7.594
REMARK  Name = 
REMARK  4 active torsions:
REMARK  status: ('A' for Active; 'I' for Inactive)
REMARK    1  A    between atoms: C_2  and  C_12
REMARK    2  A    between atoms: N_3  and  C_4
REMARK    3  A    between atoms: C_13  and  O_14
REMARK    4  A    between atoms: N_15  and  S_16
REMARK                            x       y       z     vdW  Elec       q    Type
REMARK                         _______ _______ _______ _____ _____    ______ ____
ROOT
ATOM      1  C   UNL     1       1.192  11.322  19.154  0.00  0.00    +0.000 C 
ATOM      2  C   UNL     1       1.983  12.234  18.520  0.00  0.00    +0.000 C 
ATOM      3  N   UNL     1       1.933  13.634  18.840  0.00  0.00    +0.000 N 
ATOM      4  S   UNL     1       1.377  14.162  20.344  0.00  0.00    +0.000 S 
ATOM      5  O   UNL     1       2.438  14.147  21.329  0.00  0.00    +0.000 OA
ATOM      6  O   UNL     1       0.473  15.280  20.182  0.00  0.00    +0.000 OA
ATOM      7  C   UNL     1       0.343  12.914  20.907  0.00  0.00    +0.000 A 
ATOM      8  C   UNL     1      -0.528  13.011  22.025  0.00  0.00    +0.000 A 
ATOM      9  C   UNL     1      -1.148  11.811  22.229  0.00  0.00    +0.000 A 
ATOM     10 CL   UNL     1      -2.276  11.439  23.467  0.00  0.00    +0.000 Cl
ATOM     11  S   UNL     1      -0.694  10.620  21.120  0.00  0.00    +0.000 S 
ATOM     12  C   UNL     1       0.372  11.685  20.276  0.00  0.00    +0.000 A 
ENDROOT
BRANCH   1  14
ATOM     13  O   UNL     1       0.436   9.515  17.845  0.00  0.00    +0.000 OA
ATOM     14  C   UNL     1       1.311   9.918  18.613  0.00  0.00    +0.000 C 
ATOM     15  N   UNL     1       2.329   9.135  19.108  0.00  0.00    +0.000 N 
ATOM     16  H   UNL     1       2.925   9.527  19.836  0.00  0.00    +0.000 HD
BRANCH  15  17
ATOM     17  C   UNL     1       2.583   7.774  18.796  0.00  0.00    +0.000 A 
ATOM     18  C   UNL     1       3.306   7.380  17.666  0.00  0.00    +0.000 A 
ATOM     19  C   UNL     1       3.472   6.028  17.356  0.00  0.00    +0.000 A 
ATOM     20  C   UNL     1       2.925   5.054  18.185  0.00  0.00    +0.000 A 
ATOM     21 CL   UNL     1       3.098   3.394  17.773  0.00  0.00    +0.000 Cl
ATOM     22  C   UNL     1       2.238   5.418  19.338  0.00  0.00    +0.000 A 
ATOM     23  C   UNL     1       2.076   6.773  19.646  0.00  0.00    +0.000 A 
ATOM     24 CL   UNL     1       1.208   7.184  21.086  0.00  0.00    +0.000 Cl
ENDBRANCH  15  17
ENDBRANCH   1  14
BRANCH   2  25
ATOM     25  O   UNL     1       2.808  11.939  17.442  0.00  0.00    +0.000 OA
ATOM     26  H   UNL     1       2.496  12.447  16.660  0.00  0.00    +0.000 HD
ENDBRANCH   2  25
BRANCH   3  27
ATOM     27  S   UNL     1       3.159  14.675  18.211  0.00  0.00    +0.000 S 
ATOM     28  H   UNL     1       3.788  14.952  19.368  0.00  0.00    +0.000 HD
ENDBRANCH   3  27
TORSDOF 4
ENDMDL
