MODEL 1
REMARK VINA RESULT:      -6.9      0.000      0.000
REMARK  Name = 
REMARK  4 active torsions:
REMARK  status: ('A' for Active; 'I' for Inactive)
REMARK    1  A    between atoms: C_2  and  C_3
REMARK    2  A    between atoms: C_2  and  C_18
REMARK    3  A    between atoms: C_6  and  N_7
REMARK    4  A    between atoms: C_13  and  N_14
REMARK                            x       y       z     vdW  Elec       q    Type
REMARK                         _______ _______ _______ _____ _____    ______ ____
ROOT
ATOM      1  C   UNL     1       6.043   4.095  14.660  0.00  0.00    +0.000 A 
ATOM      2  C   UNL     1       4.745   3.751  15.023  0.00  0.00    +0.000 A 
ATOM      3  C   UNL     1       4.311   3.934  16.346  0.00  0.00    +0.000 A 
ATOM      4  C   UNL     1       5.132   4.450  17.375  0.00  0.00    +0.000 A 
ATOM      5  C   UNL     1       6.455   4.733  16.974  0.00  0.00    +0.000 A 
ATOM      6  C   UNL     1       6.908   4.570  15.647  0.00  0.00    +0.000 A 
ENDROOT
BRANCH   4   7
ATOM      7  N   UNL     1       4.584   4.585  18.640  0.00  0.00    +0.000 N 
ATOM      8  C   UNL     1       4.565   3.523  19.652  0.00  0.00    +0.000 C 
ATOM      9  C   UNL     1       3.137   3.359  20.173  0.00  0.00    +0.000 C 
ATOM     10  C   UNL     1       2.560   4.676  20.683  0.00  0.00    +0.000 C 
ATOM     11  C   UNL     1       2.696   5.782  19.636  0.00  0.00    +0.000 C 
ATOM     12  C   UNL     1       4.139   5.898  19.144  0.00  0.00    +0.000 C 
ENDBRANCH   4   7
BRANCH   5  13
ATOM     13  N   UNL     1       7.453   5.263  17.886  0.00  0.00    +0.000 N 
ATOM     14  O   UNL     1       8.114   4.451  18.549  0.00  0.00    +0.000 OA
ATOM     15  O   UNL     1       7.538   6.495  17.959  0.00  0.00    +0.000 OA
ENDBRANCH   5  13
BRANCH   1  17
ATOM     16  O   UNL     1       7.341   4.901  12.904  0.00  0.00    +0.000 OA
ATOM     17  C   UNL     1       6.545   4.029  13.255  0.00  0.00    +0.000 C 
BRANCH  17  18
ATOM     18  C   UNL     1       6.046   2.918  12.348  0.00  0.00    +0.000 C 
ATOM     19 CL   UNL     1       4.609   3.480  11.469  0.00  0.00    +0.000 Cl
ATOM     20 CL   UNL     1       7.315   2.442  11.197  0.00  0.00    +0.000 Cl
ENDBRANCH  17  18
ENDBRANCH   1  17
TORSDOF 4
ENDMDL
MODEL 2
REMARK VINA RESULT:      -6.8      0.975      1.021
REMARK  Name = 
REMARK  4 active torsions:
REMARK  status: ('A' for Active; 'I' for Inactive)
REMARK    1  A    between atoms: C_2  and  C_3
REMARK    2  A    between atoms: C_2  and  C_18
REMARK    3  A    between atoms: C_6  and  N_7
REMARK    4  A    between atoms: C_13  and  N_14
REMARK                            x       y       z     vdW  Elec       q    Type
REMARK                         _______ _______ _______ _____ _____    ______ ____
ROOT
ATOM      1  C   UNL     1       6.269   4.495  15.405  0.00  0.00    +0.000 A 
ATOM      2  C   UNL     1       5.034   3.877  15.575  0.00  0.00    +0.000 A 
ATOM      3  C   UNL     1       4.428   3.850  16.842  0.00  0.00    +0.000 A 
ATOM      4  C   UNL     1       5.009   4.416  18.000  0.00  0.00    +0.000 A 
ATOM      5  C   UNL     1       6.284   4.982  17.791  0.00  0.00    +0.000 A 
ATOM      6  C   UNL     1       6.905   5.032  16.525  0.00  0.00    +0.000 A 
ENDROOT
BRANCH   4   7
ATOM      7  N   UNL     1       4.307   4.326  19.192  0.00  0.00    +0.000 N 
ATOM      8  C   UNL     1       4.282   3.137  20.050  0.00  0.00    +0.000 C 
ATOM      9  C   UNL     1       2.829   2.778  20.358  0.00  0.00    +0.000 C 
ATOM     10  C   UNL     1       2.063   3.956  20.953  0.00  0.00    +0.000 C 
ATOM     11  C   UNL     1       2.203   5.204  20.081  0.00  0.00    +0.000 C 
ATOM     12  C   UNL     1       3.674   5.512  19.796  0.00  0.00    +0.000 C 
ENDBRANCH   4   7
BRANCH   5  13
ATOM     13  N   UNL     1       7.047   5.606  18.857  0.00  0.00    +0.000 N 
ATOM     14  O   UNL     1       7.088   5.025  19.951  0.00  0.00    +0.000 OA
ATOM     15  O   UNL     1       7.569   6.698  18.599  0.00  0.00    +0.000 OA
ENDBRANCH   5  13
BRANCH   1  17
ATOM     16  O   UNL     1       7.738   5.574  13.959  0.00  0.00    +0.000 OA
ATOM     17  C   UNL     1       6.926   4.656  14.074  0.00  0.00    +0.000 C 
BRANCH  17  18
ATOM     18  C   UNL     1       6.556   3.702  12.951  0.00  0.00    +0.000 C 
ATOM     19 CL   UNL     1       4.812   3.818  12.636  0.00  0.00    +0.000 Cl
ATOM     20 CL   UNL     1       7.467   4.098  11.477  0.00  0.00    +0.000 Cl
ENDBRANCH  17  18
ENDBRANCH   1  17
TORSDOF 4
ENDMDL
MODEL 3
REMARK VINA RESULT:      -6.7      6.067      8.080
REMARK  Name = 
REMARK  4 active torsions:
REMARK  status: ('A' for Active; 'I' for Inactive)
REMARK    1  A    between atoms: C_2  and  C_3
REMARK    2  A    between atoms: C_2  and  C_18
REMARK    3  A    between atoms: C_6  and  N_7
REMARK    4  A    between atoms: C_13  and  N_14
REMARK                            x       y       z     vdW  Elec       q    Type
REMARK                         _______ _______ _______ _____ _____    ______ ____
ROOT
ATOM      1  C   UNL     1       2.342   6.972  19.371  0.00  0.00    +0.000 A 
ATOM      2  C   UNL     1       2.249   7.781  18.244  0.00  0.00    +0.000 A 
ATOM      3  C   UNL     1       1.637   9.043  18.330  0.00  0.00    +0.000 A 
ATOM      4  C   UNL     1       1.081   9.563  19.521  0.00  0.00    +0.000 A 
ATOM      5  C   UNL     1       1.150   8.687  20.624  0.00  0.00    +0.000 A 
ATOM      6  C   UNL     1       1.771   7.421  20.563  0.00  0.00    +0.000 A 
ENDROOT
BRANCH   4   7
ATOM      7  N   UNL     1       0.509  10.824  19.477  0.00  0.00    +0.000 N 
ATOM      8  C   UNL     1      -0.934  11.076  19.389  0.00  0.00    +0.000 C 
ATOM      9  C   UNL     1      -1.200  12.040  18.232  0.00  0.00    +0.000 C 
ATOM     10  C   UNL     1      -0.380  13.321  18.356  0.00  0.00    +0.000 C 
ATOM     11  C   UNL     1       1.104  13.010  18.552  0.00  0.00    +0.000 C 
ATOM     12  C   UNL     1       1.313  12.037  19.713  0.00  0.00    +0.000 C 
ENDBRANCH   4   7
BRANCH   5  13
ATOM     13  N   UNL     1       0.627   9.034  21.933  0.00  0.00    +0.000 N 
ATOM     14  O   UNL     1      -0.558   8.756  22.172  0.00  0.00    +0.000 OA
ATOM     15  O   UNL     1       1.400   9.620  22.702  0.00  0.00    +0.000 OA
ENDBRANCH   5  13
BRANCH   1  17
ATOM     16  O   UNL     1       4.285   5.706  19.572  0.00  0.00    +0.000 OA
ATOM     17  C   UNL     1       3.068   5.667  19.384  0.00  0.00    +0.000 C 
BRANCH  17  18
ATOM     18  C   UNL     1       2.283   4.387  19.157  0.00  0.00    +0.000 C 
ATOM     19 CL   UNL     1       1.100   4.187  20.467  0.00  0.00    +0.000 Cl
ATOM     20 CL   UNL     1       1.449   4.442  17.588  0.00  0.00    +0.000 Cl
ENDBRANCH  17  18
ENDBRANCH   1  17
TORSDOF 4
ENDMDL
MODEL 4
REMARK VINA RESULT:      -6.7      2.338      3.114
REMARK  Name = 
REMARK  4 active torsions:
REMARK  status: ('A' for Active; 'I' for Inactive)
REMARK    1  A    between atoms: C_2  and  C_3
REMARK    2  A    between atoms: C_2  and  C_18
REMARK    3  A    between atoms: C_6  and  N_7
REMARK    4  A    between atoms: C_13  and  N_14
REMARK                            x       y       z     vdW  Elec       q    Type
REMARK                         _______ _______ _______ _____ _____    ______ ____
ROOT
ATOM      1  C   UNL     1       5.645   5.092  16.406  0.00  0.00    +0.000 A 
ATOM      2  C   UNL     1       4.708   6.075  16.707  0.00  0.00    +0.000 A 
ATOM      3  C   UNL     1       3.687   5.815  17.636  0.00  0.00    +0.000 A 
ATOM      4  C   UNL     1       3.531   4.578  18.301  0.00  0.00    +0.000 A 
ATOM      5  C   UNL     1       4.470   3.595  17.924  0.00  0.00    +0.000 A 
ATOM      6  C   UNL     1       5.512   3.838  17.004  0.00  0.00    +0.000 A 
ENDROOT
BRANCH   4   7
ATOM      7  N   UNL     1       2.483   4.448  19.198  0.00  0.00    +0.000 N 
ATOM      8  C   UNL     1       2.495   4.977  20.567  0.00  0.00    +0.000 C 
ATOM      9  C   UNL     1       2.108   3.858  21.535  0.00  0.00    +0.000 C 
ATOM     10  C   UNL     1       0.777   3.213  21.159  0.00  0.00    +0.000 C 
ATOM     11  C   UNL     1       0.771   2.772  19.695  0.00  0.00    +0.000 C 
ATOM     12  C   UNL     1       1.173   3.923  18.773  0.00  0.00    +0.000 C 
ENDBRANCH   4   7
BRANCH   5  13
ATOM     13  N   UNL     1       4.471   2.257  18.489  0.00  0.00    +0.000 N 
ATOM     14  O   UNL     1       5.031   2.095  19.583  0.00  0.00    +0.000 OA
ATOM     15  O   UNL     1       3.943   1.368  17.809  0.00  0.00    +0.000 OA
ENDBRANCH   5  13
BRANCH   1  17
ATOM     16  O   UNL     1       7.618   6.198  15.855  0.00  0.00    +0.000 OA
ATOM     17  C   UNL     1       6.818   5.326  15.512  0.00  0.00    +0.000 C 
BRANCH  17  18
ATOM     18  C   UNL     1       6.954   4.500  14.245  0.00  0.00    +0.000 C 
ATOM     19 CL   UNL     1       5.336   4.151  13.598  0.00  0.00    +0.000 Cl
ATOM     20 CL   UNL     1       7.916   5.375  13.034  0.00  0.00    +0.000 Cl
ENDBRANCH  17  18
ENDBRANCH   1  17
TORSDOF 4
ENDMDL
MODEL 5
REMARK VINA RESULT:      -6.6      0.927      1.235
REMARK  Name = 
REMARK  4 active torsions:
REMARK  status: ('A' for Active; 'I' for Inactive)
REMARK    1  A    between atoms: C_2  and  C_3
REMARK    2  A    between atoms: C_2  and  C_18
REMARK    3  A    between atoms: C_6  and  N_7
REMARK    4  A    between atoms: C_13  and  N_14
REMARK                            x       y       z     vdW  Elec       q    Type
REMARK                         _______ _______ _______ _____ _____    ______ ____
ROOT
ATOM      1  C   UNL     1       6.149   4.291  14.255  0.00  0.00    +0.000 A 
ATOM      2  C   UNL     1       4.889   3.896  14.693  0.00  0.00    +0.000 A 
ATOM      3  C   UNL     1       4.399   4.348  15.929  0.00  0.00    +0.000 A 
ATOM      4  C   UNL     1       5.125   5.196  16.797  0.00  0.00    +0.000 A 
ATOM      5  C   UNL     1       6.417   5.525  16.337  0.00  0.00    +0.000 A 
ATOM      6  C   UNL     1       6.925   5.094  15.092  0.00  0.00    +0.000 A 
ENDROOT
BRANCH   4   7
ATOM      7  N   UNL     1       4.529   5.574  17.989  0.00  0.00    +0.000 N 
ATOM      8  C   UNL     1       4.725   4.884  19.268  0.00  0.00    +0.000 C 
ATOM      9  C   UNL     1       3.358   4.566  19.876  0.00  0.00    +0.000 C 
ATOM     10  C   UNL     1       2.485   5.811  20.001  0.00  0.00    +0.000 C 
ATOM     11  C   UNL     1       2.394   6.558  18.670  0.00  0.00    +0.000 C 
ATOM     12  C   UNL     1       3.786   6.842  18.103  0.00  0.00    +0.000 C 
ENDBRANCH   4   7
BRANCH   5  13
ATOM     13  N   UNL     1       7.321   6.378  17.088  0.00  0.00    +0.000 N 
ATOM     14  O   UNL     1       7.406   7.567  16.748  0.00  0.00    +0.000 OA
ATOM     15  O   UNL     1       7.971   5.837  17.992  0.00  0.00    +0.000 OA
ENDBRANCH   5  13
BRANCH   1  17
ATOM     16  O   UNL     1       7.564   4.679  12.449  0.00  0.00    +0.000 OA
ATOM     17  C   UNL     1       6.695   3.939  12.911  0.00  0.00    +0.000 C 
BRANCH  17  18
ATOM     18  C   UNL     1       6.151   2.716  12.193  0.00  0.00    +0.000 C 
ATOM     19 CL   UNL     1       4.664   3.159  11.328  0.00  0.00    +0.000 Cl
ATOM     20 CL   UNL     1       7.354   2.083  11.048  0.00  0.00    +0.000 Cl
ENDBRANCH  17  18
ENDBRANCH   1  17
TORSDOF 4
ENDMDL
MODEL 6
REMARK VINA RESULT:      -6.6      5.864      7.775
REMARK  Name = 
REMARK  4 active torsions:
REMARK  status: ('A' for Active; 'I' for Inactive)
REMARK    1  A    between atoms: C_2  and  C_3
REMARK    2  A    between atoms: C_2  and  C_18
REMARK    3  A    between atoms: C_6  and  N_7
REMARK    4  A    between atoms: C_13  and  N_14
REMARK                            x       y       z     vdW  Elec       q    Type
REMARK                         _______ _______ _______ _____ _____    ______ ____
ROOT
ATOM      1  C   UNL     1       2.513   7.174  18.922  0.00  0.00    +0.000 A 
ATOM      2  C   UNL     1       2.395   8.077  17.870  0.00  0.00    +0.000 A 
ATOM      3  C   UNL     1       1.755   9.311  18.070  0.00  0.00    +0.000 A 
ATOM      4  C   UNL     1       1.192   9.711  19.304  0.00  0.00    +0.000 A 
ATOM      5  C   UNL     1       1.287   8.742  20.325  0.00  0.00    +0.000 A 
ATOM      6  C   UNL     1       1.938   7.502  20.150  0.00  0.00    +0.000 A 
ENDROOT
BRANCH   4   7
ATOM      7  N   UNL     1       0.590  10.957  19.372  0.00  0.00    +0.000 N 
ATOM      8  C   UNL     1      -0.860  11.177  19.370  0.00  0.00    +0.000 C 
ATOM      9  C   UNL     1      -1.205  12.209  18.296  0.00  0.00    +0.000 C 
ATOM     10  C   UNL     1      -0.408  13.499  18.468  0.00  0.00    +0.000 C 
ATOM     11  C   UNL     1       1.090  13.214  18.572  0.00  0.00    +0.000 C 
ATOM     12  C   UNL     1       1.378  12.172  19.652  0.00  0.00    +0.000 C 
ENDBRANCH   4   7
BRANCH   5  13
ATOM     13  N   UNL     1       0.762   8.960  21.661  0.00  0.00    +0.000 N 
ATOM     14  O   UNL     1      -0.423   8.662  21.869  0.00  0.00    +0.000 OA
ATOM     15  O   UNL     1       1.535   9.466  22.484  0.00  0.00    +0.000 OA
ENDBRANCH   5  13
BRANCH   1  17
ATOM     16  O   UNL     1       4.055   5.628  19.728  0.00  0.00    +0.000 OA
ATOM     17  C   UNL     1       3.270   5.891  18.817  0.00  0.00    +0.000 C 
BRANCH  17  18
ATOM     18  C   UNL     1       3.042   5.000  17.608  0.00  0.00    +0.000 C 
ATOM     19 CL   UNL     1       4.372   3.828  17.486  0.00  0.00    +0.000 Cl
ATOM     20 CL   UNL     1       1.490   4.144  17.753  0.00  0.00    +0.000 Cl
ENDBRANCH  17  18
ENDBRANCH   1  17
TORSDOF 4
ENDMDL
MODEL 7
REMARK VINA RESULT:      -6.6      2.210      2.882
REMARK  Name = 
REMARK  4 active torsions:
REMARK  status: ('A' for Active; 'I' for Inactive)
REMARK    1  A    between atoms: C_2  and  C_3
REMARK    2  A    between atoms: C_2  and  C_18
REMARK    3  A    between atoms: C_6  and  N_7
REMARK    4  A    between atoms: C_13  and  N_14
REMARK                            x       y       z     vdW  Elec       q    Type
REMARK                         _______ _______ _______ _____ _____    ______ ____
ROOT
ATOM      1  C   UNL     1       5.784   4.469  16.118  0.00  0.00    +0.000 A 
ATOM      2  C   UNL     1       5.466   3.128  16.312  0.00  0.00    +0.000 A 
ATOM      3  C   UNL     1       4.472   2.766  17.237  0.00  0.00    +0.000 A 
ATOM      4  C   UNL     1       3.755   3.699  18.020  0.00  0.00    +0.000 A 
ATOM      5  C   UNL     1       4.149   5.040  17.830  0.00  0.00    +0.000 A 
ATOM      6  C   UNL     1       5.135   5.428  16.897  0.00  0.00    +0.000 A 
ENDROOT
BRANCH   4   7
ATOM      7  N   UNL     1       2.796   3.215  18.895  0.00  0.00    +0.000 N 
ATOM      8  C   UNL     1       1.354   3.445  18.752  0.00  0.00    +0.000 C 
ATOM      9  C   UNL     1       0.804   3.986  20.072  0.00  0.00    +0.000 C 
ATOM     10  C   UNL     1       1.147   3.078  21.249  0.00  0.00    +0.000 C 
ATOM     11  C   UNL     1       2.646   2.778  21.298  0.00  0.00    +0.000 C 
ATOM     12  C   UNL     1       3.144   2.249  19.953  0.00  0.00    +0.000 C 
ENDBRANCH   4   7
BRANCH   5  13
ATOM     13  N   UNL     1       3.538   6.145  18.547  0.00  0.00    +0.000 N 
ATOM     14  O   UNL     1       3.583   6.121  19.786  0.00  0.00    +0.000 OA
ATOM     15  O   UNL     1       2.982   7.011  17.861  0.00  0.00    +0.000 OA
ENDBRANCH   5  13
BRANCH   1  17
ATOM     16  O   UNL     1       7.478   5.885  15.383  0.00  0.00    +0.000 OA
ATOM     17  C   UNL     1       6.751   4.938  15.081  0.00  0.00    +0.000 C 
BRANCH  17  18
ATOM     18  C   UNL     1       6.779   4.240  13.733  0.00  0.00    +0.000 C 
ATOM     19 CL   UNL     1       5.117   4.076  13.125  0.00  0.00    +0.000 Cl
ATOM     20 CL   UNL     1       7.759   5.168  12.575  0.00  0.00    +0.000 Cl
ENDBRANCH  17  18
ENDBRANCH   1  17
TORSDOF 4
ENDMDL
MODEL 8
REMARK VINA RESULT:      -6.6      2.169      2.719
REMARK  Name = 
REMARK  4 active torsions:
REMARK  status: ('A' for Active; 'I' for Inactive)
REMARK    1  A    between atoms: C_2  and  C_3
REMARK    2  A    between atoms: C_2  and  C_18
REMARK    3  A    between atoms: C_6  and  N_7
REMARK    4  A    between atoms: C_13  and  N_14
REMARK                            x       y       z     vdW  Elec       q    Type
REMARK                         _______ _______ _______ _____ _____    ______ ____
ROOT
ATOM      1  C   UNL     1       5.740   4.921  15.591  0.00  0.00    +0.000 A 
ATOM      2  C   UNL     1       4.947   6.044  15.806  0.00  0.00    +0.000 A 
ATOM      3  C   UNL     1       3.963   6.030  16.808  0.00  0.00    +0.000 A 
ATOM      4  C   UNL     1       3.704   4.913  17.636  0.00  0.00    +0.000 A 
ATOM      5  C   UNL     1       4.494   3.781  17.346  0.00  0.00    +0.000 A 
ATOM      6  C   UNL     1       5.497   3.777  16.353  0.00  0.00    +0.000 A 
ENDROOT
BRANCH   4   7
ATOM      7  N   UNL     1       2.707   5.028  18.591  0.00  0.00    +0.000 N 
ATOM      8  C   UNL     1       2.821   5.830  19.814  0.00  0.00    +0.000 C 
ATOM      9  C   UNL     1       2.449   4.960  21.015  0.00  0.00    +0.000 C 
ATOM     10  C   UNL     1       1.074   4.319  20.852  0.00  0.00    +0.000 C 
ATOM     11  C   UNL     1       0.963   3.582  19.516  0.00  0.00    +0.000 C 
ATOM     12  C   UNL     1       1.354   4.493  18.352  0.00  0.00    +0.000 C 
ENDBRANCH   4   7
BRANCH   5  13
ATOM     13  N   UNL     1       4.373   2.534  18.079  0.00  0.00    +0.000 N 
ATOM     14  O   UNL     1       3.687   1.633  17.572  0.00  0.00    +0.000 OA
ATOM     15  O   UNL     1       4.937   2.481  19.179  0.00  0.00    +0.000 OA
ENDBRANCH   5  13
BRANCH   1  17
ATOM     16  O   UNL     1       7.849   5.600  14.878  0.00  0.00    +0.000 OA
ATOM     17  C   UNL     1       6.873   4.894  14.619  0.00  0.00    +0.000 C 
BRANCH  17  18
ATOM     18  C   UNL     1       6.760   4.022  13.381  0.00  0.00    +0.000 C 
ATOM     19 CL   UNL     1       5.043   3.763  13.003  0.00  0.00    +0.000 Cl
ATOM     20 CL   UNL     1       7.575   4.794  12.002  0.00  0.00    +0.000 Cl
ENDBRANCH  17  18
ENDBRANCH   1  17
TORSDOF 4
ENDMDL
MODEL 9
REMARK VINA RESULT:      -6.6      2.470      3.351
REMARK  Name = 
REMARK  4 active torsions:
REMARK  status: ('A' for Active; 'I' for Inactive)
REMARK    1  A    between atoms: C_2  and  C_3
REMARK    2  A    between atoms: C_2  and  C_18
REMARK    3  A    between atoms: C_6  and  N_7
REMARK    4  A    between atoms: C_13  and  N_14
REMARK                            x       y       z     vdW  Elec       q    Type
REMARK                         _______ _______ _______ _____ _____    ______ ____
ROOT
ATOM      1  C   UNL     1       5.857   5.208  16.759  0.00  0.00    +0.000 A 
ATOM      2  C   UNL     1       5.659   3.976  17.374  0.00  0.00    +0.000 A 
ATOM      3  C   UNL     1       4.558   3.781  18.223  0.00  0.00    +0.000 A 
ATOM      4  C   UNL     1       3.608   4.786  18.517  0.00  0.00    +0.000 A 
ATOM      5  C   UNL     1       3.879   6.033  17.915  0.00  0.00    +0.000 A 
ATOM      6  C   UNL     1       4.973   6.248  17.048  0.00  0.00    +0.000 A 
ENDROOT
BRANCH   4   7
ATOM      7  N   UNL     1       2.563   4.467  19.368  0.00  0.00    +0.000 N 
ATOM      8  C   UNL     1       2.557   4.738  20.810  0.00  0.00    +0.000 C 
ATOM      9  C   UNL     1       2.199   3.452  21.555  0.00  0.00    +0.000 C 
ATOM     10  C   UNL     1       0.888   2.850  21.059  0.00  0.00    +0.000 C 
ATOM     11  C   UNL     1       0.897   2.683  19.539  0.00  0.00    +0.000 C 
ATOM     12  C   UNL     1       1.268   3.993  18.845  0.00  0.00    +0.000 C 
ENDBRANCH   4   7
BRANCH   5  13
ATOM     13  N   UNL     1       3.027   7.194  18.101  0.00  0.00    +0.000 N 
ATOM     14  O   UNL     1       2.832   7.927  17.120  0.00  0.00    +0.000 OA
ATOM     15  O   UNL     1       2.590   7.383  19.243  0.00  0.00    +0.000 OA
ENDBRANCH   5  13
BRANCH   1  17
ATOM     16  O   UNL     1       7.731   6.371  16.017  0.00  0.00    +0.000 OA
ATOM     17  C   UNL     1       6.942   5.461  15.764  0.00  0.00    +0.000 C 
BRANCH  17  18
ATOM     18  C   UNL     1       7.006   4.603  14.512  0.00  0.00    +0.000 C 
ATOM     19 CL   UNL     1       5.355   4.260  13.953  0.00  0.00    +0.000 Cl
ATOM     20 CL   UNL     1       7.918   5.438  13.235  0.00  0.00    +0.000 Cl
ENDBRANCH  17  18
ENDBRANCH   1  17
TORSDOF 4
ENDMDL
