MODEL 1
REMARK VINA RESULT:      -7.7      0.000      0.000
REMARK  Name = 
REMARK  16 active torsions:
REMARK  status: ('A' for Active; 'I' for Inactive)
REMARK    1  A    between atoms: C_1  and  C_2
REMARK    2  A    between atoms: C_2  and  C_3
REMARK    3  A    between atoms: C_3  and  C_4
REMARK    4  A    between atoms: C_4  and  C_5
REMARK    5  A    between atoms: C_5  and  N_6
REMARK    6  A    between atoms: N_6  and  C_20
REMARK    7  A    between atoms: C_7  and  C_9
REMARK    8  A    between atoms: C_9  and  O_10
REMARK    9  A    between atoms: O_10  and  C_11
REMARK   10  A    between atoms: C_11  and  C_13
REMARK   11  A    between atoms: C_16  and  C_17
REMARK   12  A    between atoms: C_21  and  N_22
REMARK   13  A    between atoms: N_23  and  C_24
REMARK   14  A    between atoms: C_24  and  C_25
REMARK   15  A    between atoms: C_25  and  C_26
REMARK   16  A    between atoms: C_26  and  C_27
REMARK                            x       y       z     vdW  Elec       q    Type
REMARK                         _______ _______ _______ _____ _____    ______ ____
ROOT
ATOM      1  N   UNL     1       4.653   5.651  16.747  0.00  0.00    +0.000 N 
ATOM      2  C   UNL     1       4.075   6.922  16.920  0.00  0.00    +0.000 C 
ATOM      3  O   UNL     1       4.264   7.835  16.110  0.00  0.00    +0.000 OA
ENDROOT
BRANCH   1   4
ATOM      4  C   UNL     1       4.541   4.633  17.705  0.00  0.00    +0.000 A 
ATOM      5  C   UNL     1       3.513   3.745  17.735  0.00  0.00    +0.000 A 
ATOM      6  N   UNL     1       3.423   2.823  18.780  0.00  0.00    +0.000 N 
ATOM      7  C   UNL     1       4.429   2.661  19.726  0.00  0.00    +0.000 A 
ATOM      8  O   UNL     1       4.399   1.841  20.641  0.00  0.00    +0.000 OA
ATOM      9  N   UNL     1       5.503   3.490  19.611  0.00  0.00    +0.000 N 
ATOM     10  C   UNL     1       5.604   4.535  18.749  0.00  0.00    +0.000 A 
ATOM     11  O   UNL     1       6.530   5.338  18.819  0.00  0.00    +0.000 OA
ATOM     12  H   UNL     1       6.211   3.405  20.324  0.00  0.00    +0.000 HD
BRANCH   5  13
ATOM     13  N   UNL     1       2.591   3.715  16.703  0.00  0.00    +0.000 N 
ATOM     14  H   UNL     1       2.726   4.397  15.963  0.00  0.00    +0.000 HD
ATOM     15  H   UNL     1       1.627   3.529  16.941  0.00  0.00    +0.000 HD
ENDBRANCH   5  13
BRANCH   6  16
ATOM     16  C   UNL     1       2.254   1.944  18.910  0.00  0.00    +0.000 C 
BRANCH  16  17
ATOM     17  C   UNL     1       0.967   2.684  19.287  0.00  0.00    +0.000 C 
BRANCH  17  18
ATOM     18  C   UNL     1       1.107   3.343  20.662  0.00  0.00    +0.000 C 
ATOM     19  C   UNL     1       1.343   4.841  20.556  0.00  0.00    +0.000 C 
ENDBRANCH  17  18
ENDBRANCH  16  17
ENDBRANCH   6  16
ENDBRANCH   1   4
BRANCH   1  20
ATOM     20  C   UNL     1       5.540   5.406  15.582  0.00  0.00    +0.000 C 
BRANCH  20  21
ATOM     21  C   UNL     1       5.931   3.936  15.361  0.00  0.00    +0.000 C 
BRANCH  21  22
ATOM     22  C   UNL     1       6.285   3.633  13.893  0.00  0.00    +0.000 C 
BRANCH  22  24
ATOM     23  C   UNL     1       5.195   3.002  11.672  0.00  0.00    +0.000 C 
ATOM     24  C   UNL     1       5.029   3.696  13.016  0.00  0.00    +0.000 C 
ENDBRANCH  22  24
ENDBRANCH  21  22
ENDBRANCH  20  21
ENDBRANCH   1  20
BRANCH   2  25
ATOM     25  C   UNL     1       3.210   7.179  18.185  0.00  0.00    +0.000 C 
BRANCH  25  26
ATOM     26  O   UNL     1       1.877   7.658  17.960  0.00  0.00    +0.000 OA
BRANCH  26  27
ATOM     27  C   UNL     1       1.741   8.981  18.222  0.00  0.00    +0.000 C 
ATOM     28  O   UNL     1       2.161   9.880  17.497  0.00  0.00    +0.000 OA
BRANCH  27  29
ATOM     29  C   UNL     1       1.080   9.254  19.527  0.00  0.00    +0.000 A 
ATOM     30  C   UNL     1       0.160  10.315  19.572  0.00  0.00    +0.000 A 
ATOM     31  C   UNL     1      -0.480  10.658  20.764  0.00  0.00    +0.000 A 
ATOM     32  C   UNL     1      -0.213   9.953  21.939  0.00  0.00    +0.000 A 
ATOM     33  C   UNL     1      -0.917  10.310  23.217  0.00  0.00    +0.000 C 
ATOM     34  C   UNL     1       0.707   8.895  21.902  0.00  0.00    +0.000 A 
ATOM     35  C   UNL     1       1.353   8.546  20.704  0.00  0.00    +0.000 A 
ENDBRANCH  27  29
ENDBRANCH  26  27
ENDBRANCH  25  26
ENDBRANCH   2  25
TORSDOF 13
ENDMDL
MODEL 2
REMARK VINA RESULT:      -7.6      1.208      1.678
REMARK  Name = 
REMARK  16 active torsions:
REMARK  status: ('A' for Active; 'I' for Inactive)
REMARK    1  A    between atoms: C_1  and  C_2
REMARK    2  A    between atoms: C_2  and  C_3
REMARK    3  A    between atoms: C_3  and  C_4
REMARK    4  A    between atoms: C_4  and  C_5
REMARK    5  A    between atoms: C_5  and  N_6
REMARK    6  A    between atoms: N_6  and  C_20
REMARK    7  A    between atoms: C_7  and  C_9
REMARK    8  A    between atoms: C_9  and  O_10
REMARK    9  A    between atoms: O_10  and  C_11
REMARK   10  A    between atoms: C_11  and  C_13
REMARK   11  A    between atoms: C_16  and  C_17
REMARK   12  A    between atoms: C_21  and  N_22
REMARK   13  A    between atoms: N_23  and  C_24
REMARK   14  A    between atoms: C_24  and  C_25
REMARK   15  A    between atoms: C_25  and  C_26
REMARK   16  A    between atoms: C_26  and  C_27
REMARK                            x       y       z     vdW  Elec       q    Type
REMARK                         _______ _______ _______ _____ _____    ______ ____
ROOT
ATOM      1  N   UNL     1       4.109   6.193  17.382  0.00  0.00    +0.000 N 
ATOM      2  C   UNL     1       3.336   7.273  17.848  0.00  0.00    +0.000 C 
ATOM      3  O   UNL     1       3.313   8.356  17.254  0.00  0.00    +0.000 OA
ENDROOT
BRANCH   1   4
ATOM      4  C   UNL     1       4.236   4.992  18.094  0.00  0.00    +0.000 A 
ATOM      5  C   UNL     1       3.326   3.985  18.029  0.00  0.00    +0.000 A 
ATOM      6  N   UNL     1       3.475   2.861  18.845  0.00  0.00    +0.000 N 
ATOM      7  C   UNL     1       4.606   2.645  19.623  0.00  0.00    +0.000 A 
ATOM      8  O   UNL     1       4.786   1.655  20.330  0.00  0.00    +0.000 OA
ATOM      9  N   UNL     1       5.557   3.618  19.588  0.00  0.00    +0.000 N 
ATOM     10  C   UNL     1       5.428   4.825  18.976  0.00  0.00    +0.000 A 
ATOM     11  O   UNL     1       6.261   5.714  19.131  0.00  0.00    +0.000 OA
ATOM     12  H   UNL     1       6.356   3.484  20.189  0.00  0.00    +0.000 HD
BRANCH   5  13
ATOM     13  N   UNL     1       2.288   4.045  17.115  0.00  0.00    +0.000 N 
ATOM     14  H   UNL     1       1.359   3.863  17.482  0.00  0.00    +0.000 HD
ATOM     15  H   UNL     1       2.458   3.683  16.188  0.00  0.00    +0.000 HD
ENDBRANCH   5  13
BRANCH   6  16
ATOM     16  C   UNL     1       2.438   1.823  18.893  0.00  0.00    +0.000 C 
BRANCH  16  17
ATOM     17  C   UNL     1       1.057   2.350  19.294  0.00  0.00    +0.000 C 
BRANCH  17  18
ATOM     18  C   UNL     1       1.166   3.272  20.512  0.00  0.00    +0.000 C 
ATOM     19  C   UNL     1       1.536   2.511  21.774  0.00  0.00    +0.000 C 
ENDBRANCH  17  18
ENDBRANCH  16  17
ENDBRANCH   6  16
ENDBRANCH   1   4
BRANCH   1  20
ATOM     20  C   UNL     1       4.945   6.366  16.167  0.00  0.00    +0.000 C 
BRANCH  20  21
ATOM     21  C   UNL     1       5.733   5.118  15.739  0.00  0.00    +0.000 C 
BRANCH  21  22
ATOM     22  C   UNL     1       6.094   5.132  14.242  0.00  0.00    +0.000 C 
BRANCH  22  24
ATOM     23  C   UNL     1       6.487   3.533  12.290  0.00  0.00    +0.000 C 
ATOM     24  C   UNL     1       5.746   3.786  13.595  0.00  0.00    +0.000 C 
ENDBRANCH  22  24
ENDBRANCH  21  22
ENDBRANCH  20  21
ENDBRANCH   1  20
BRANCH   2  25
ATOM     25  C   UNL     1       2.526   7.095  19.162  0.00  0.00    +0.000 C 
BRANCH  25  26
ATOM     26  O   UNL     1       1.903   8.273  19.692  0.00  0.00    +0.000 OA
BRANCH  26  27
ATOM     27  C   UNL     1       1.209   8.035  20.832  0.00  0.00    +0.000 C 
ATOM     28  O   UNL     1       1.085   6.929  21.353  0.00  0.00    +0.000 OA
BRANCH  27  29
ATOM     29  C   UNL     1       0.543   9.250  21.375  0.00  0.00    +0.000 A 
ATOM     30  C   UNL     1       0.784  10.465  20.713  0.00  0.00    +0.000 A 
ATOM     31  C   UNL     1       0.224  11.657  21.176  0.00  0.00    +0.000 A 
ATOM     32  C   UNL     1      -0.585  11.664  22.314  0.00  0.00    +0.000 A 
ATOM     33  C   UNL     1      -1.204  12.943  22.801  0.00  0.00    +0.000 C 
ATOM     34  C   UNL     1      -0.826  10.454  22.982  0.00  0.00    +0.000 A 
ATOM     35  C   UNL     1      -0.265   9.252  22.519  0.00  0.00    +0.000 A 
ENDBRANCH  27  29
ENDBRANCH  26  27
ENDBRANCH  25  26
ENDBRANCH   2  25
TORSDOF 13
ENDMDL
MODEL 3
REMARK VINA RESULT:      -7.6      3.932      5.801
REMARK  Name = 
REMARK  16 active torsions:
REMARK  status: ('A' for Active; 'I' for Inactive)
REMARK    1  A    between atoms: C_1  and  C_2
REMARK    2  A    between atoms: C_2  and  C_3
REMARK    3  A    between atoms: C_3  and  C_4
REMARK    4  A    between atoms: C_4  and  C_5
REMARK    5  A    between atoms: C_5  and  N_6
REMARK    6  A    between atoms: N_6  and  C_20
REMARK    7  A    between atoms: C_7  and  C_9
REMARK    8  A    between atoms: C_9  and  O_10
REMARK    9  A    between atoms: O_10  and  C_11
REMARK   10  A    between atoms: C_11  and  C_13
REMARK   11  A    between atoms: C_16  and  C_17
REMARK   12  A    between atoms: C_21  and  N_22
REMARK   13  A    between atoms: N_23  and  C_24
REMARK   14  A    between atoms: C_24  and  C_25
REMARK   15  A    between atoms: C_25  and  C_26
REMARK   16  A    between atoms: C_26  and  C_27
REMARK                            x       y       z     vdW  Elec       q    Type
REMARK                         _______ _______ _______ _____ _____    ______ ____
ROOT
ATOM      1  N   UNL     1       6.073   4.994  17.288  0.00  0.00    +0.000 N 
ATOM      2  C   UNL     1       7.355   5.221  17.820  0.00  0.00    +0.000 C 
ATOM      3  O   UNL     1       8.314   4.498  17.532  0.00  0.00    +0.000 OA
ENDROOT
BRANCH   1   4
ATOM      4  C   UNL     1       4.949   5.733  17.682  0.00  0.00    +0.000 A 
ATOM      5  C   UNL     1       4.229   5.458  18.802  0.00  0.00    +0.000 A 
ATOM      6  N   UNL     1       3.065   6.182  19.073  0.00  0.00    +0.000 N 
ATOM      7  C   UNL     1       2.679   7.289  18.326  0.00  0.00    +0.000 A 
ATOM      8  O   UNL     1       1.679   7.968  18.552  0.00  0.00    +0.000 OA
ATOM      9  N   UNL     1       3.478   7.613  17.272  0.00  0.00    +0.000 N 
ATOM     10  C   UNL     1       4.522   6.872  16.817  0.00  0.00    +0.000 A 
ATOM     11  O   UNL     1       5.088   7.142  15.761  0.00  0.00    +0.000 OA
ATOM     12  H   UNL     1       3.173   8.387  16.703  0.00  0.00    +0.000 HD
BRANCH   5  13
ATOM     13  N   UNL     1       4.678   4.506  19.700  0.00  0.00    +0.000 N 
ATOM     14  H   UNL     1       5.461   3.938  19.395  0.00  0.00    +0.000 HD
ATOM     15  H   UNL     1       3.985   4.017  20.249  0.00  0.00    +0.000 HD
ENDBRANCH   5  13
BRANCH   6  16
ATOM     16  C   UNL     1       2.196   5.817  20.199  0.00  0.00    +0.000 C 
BRANCH  16  17
ATOM     17  C   UNL     1       1.224   4.677  19.882  0.00  0.00    +0.000 C 
BRANCH  17  18
ATOM     18  C   UNL     1       1.330   3.569  20.935  0.00  0.00    +0.000 C 
ATOM     19  C   UNL     1       1.771   2.246  20.330  0.00  0.00    +0.000 C 
ENDBRANCH  17  18
ENDBRANCH  16  17
ENDBRANCH   6  16
ENDBRANCH   1   4
BRANCH   1  20
ATOM     20  C   UNL     1       5.854   3.837  16.384  0.00  0.00    +0.000 C 
BRANCH  20  21
ATOM     21  C   UNL     1       6.391   4.017  14.956  0.00  0.00    +0.000 C 
BRANCH  21  22
ATOM     22  C   UNL     1       5.268   4.060  13.903  0.00  0.00    +0.000 C 
BRANCH  22  24
ATOM     23  C   UNL     1       4.618   3.273  11.562  0.00  0.00    +0.000 C 
ATOM     24  C   UNL     1       5.709   3.343  12.622  0.00  0.00    +0.000 C 
ENDBRANCH  22  24
ENDBRANCH  21  22
ENDBRANCH  20  21
ENDBRANCH   1  20
BRANCH   2  25
ATOM     25  C   UNL     1       7.547   6.393  18.823  0.00  0.00    +0.000 C 
BRANCH  25  26
ATOM     26  O   UNL     1       8.613   7.310  18.537  0.00  0.00    +0.000 OA
BRANCH  26  27
ATOM     27  C   UNL     1       8.173   8.489  18.033  0.00  0.00    +0.000 C 
ATOM     28  O   UNL     1       7.299   8.597  17.176  0.00  0.00    +0.000 OA
BRANCH  27  29
ATOM     29  C   UNL     1       8.905   9.666  18.575  0.00  0.00    +0.000 A 
ATOM     30  C   UNL     1       8.927   9.821  19.971  0.00  0.00    +0.000 A 
ATOM     31  C   UNL     1       9.564  10.915  20.560  0.00  0.00    +0.000 A 
ATOM     32  C   UNL     1      10.190  11.880  19.769  0.00  0.00    +0.000 A 
ATOM     33  C   UNL     1      10.893  13.046  20.404  0.00  0.00    +0.000 C 
ATOM     34  C   UNL     1      10.169  11.732  18.374  0.00  0.00    +0.000 A 
ATOM     35  C   UNL     1       9.529  10.633  17.777  0.00  0.00    +0.000 A 
ENDBRANCH  27  29
ENDBRANCH  26  27
ENDBRANCH  25  26
ENDBRANCH   2  25
TORSDOF 13
ENDMDL
MODEL 4
REMARK VINA RESULT:      -7.5      0.736      1.128
REMARK  Name = 
REMARK  16 active torsions:
REMARK  status: ('A' for Active; 'I' for Inactive)
REMARK    1  A    between atoms: C_1  and  C_2
REMARK    2  A    between atoms: C_2  and  C_3
REMARK    3  A    between atoms: C_3  and  C_4
REMARK    4  A    between atoms: C_4  and  C_5
REMARK    5  A    between atoms: C_5  and  N_6
REMARK    6  A    between atoms: N_6  and  C_20
REMARK    7  A    between atoms: C_7  and  C_9
REMARK    8  A    between atoms: C_9  and  O_10
REMARK    9  A    between atoms: O_10  and  C_11
REMARK   10  A    between atoms: C_11  and  C_13
REMARK   11  A    between atoms: C_16  and  C_17
REMARK   12  A    between atoms: C_21  and  N_22
REMARK   13  A    between atoms: N_23  and  C_24
REMARK   14  A    between atoms: C_24  and  C_25
REMARK   15  A    between atoms: C_25  and  C_26
REMARK   16  A    between atoms: C_26  and  C_27
REMARK                            x       y       z     vdW  Elec       q    Type
REMARK                         _______ _______ _______ _____ _____    ______ ____
ROOT
ATOM      1  N   UNL     1       5.302   5.271  16.893  0.00  0.00    +0.000 N 
ATOM      2  C   UNL     1       4.588   6.451  16.613  0.00  0.00    +0.000 C 
ATOM      3  O   UNL     1       5.004   7.283  15.801  0.00  0.00    +0.000 OA
ENDROOT
BRANCH   1   4
ATOM      4  C   UNL     1       4.906   4.366  17.887  0.00  0.00    +0.000 A 
ATOM      5  C   UNL     1       3.879   3.489  17.733  0.00  0.00    +0.000 A 
ATOM      6  N   UNL     1       3.484   2.687  18.806  0.00  0.00    +0.000 N 
ATOM      7  C   UNL     1       4.194   2.629  20.000  0.00  0.00    +0.000 A 
ATOM      8  O   UNL     1       3.894   1.914  20.955  0.00  0.00    +0.000 OA
ATOM      9  N   UNL     1       5.285   3.437  20.092  0.00  0.00    +0.000 N 
ATOM     10  C   UNL     1       5.646   4.381  19.183  0.00  0.00    +0.000 A 
ATOM     11  O   UNL     1       6.545   5.185  19.416  0.00  0.00    +0.000 OA
ATOM     12  H   UNL     1       5.773   3.430  20.974  0.00  0.00    +0.000 HD
BRANCH   5  13
ATOM     13  N   UNL     1       3.266   3.347  16.500  0.00  0.00    +0.000 N 
ATOM     14  H   UNL     1       3.632   3.925  15.750  0.00  0.00    +0.000 HD
ATOM     15  H   UNL     1       2.265   3.215  16.486  0.00  0.00    +0.000 HD
ENDBRANCH   5  13
BRANCH   6  16
ATOM     16  C   UNL     1       2.295   1.831  18.709  0.00  0.00    +0.000 C 
BRANCH  16  17
ATOM     17  C   UNL     1       0.974   2.590  18.873  0.00  0.00    +0.000 C 
BRANCH  17  18
ATOM     18  C   UNL     1       0.805   3.071  20.317  0.00  0.00    +0.000 C 
ATOM     19  C   UNL     1       1.111   4.552  20.466  0.00  0.00    +0.000 C 
ENDBRANCH  17  18
ENDBRANCH  16  17
ENDBRANCH   6  16
ENDBRANCH   1   4
BRANCH   1  20
ATOM     20  C   UNL     1       6.605   5.032  16.224  0.00  0.00    +0.000 C 
BRANCH  20  21
ATOM     21  C   UNL     1       6.559   5.052  14.688  0.00  0.00    +0.000 C 
BRANCH  21  22
ATOM     22  C   UNL     1       5.828   3.829  14.103  0.00  0.00    +0.000 C 
BRANCH  22  24
ATOM     23  C   UNL     1       5.148   2.975  11.795  0.00  0.00    +0.000 C 
ATOM     24  C   UNL     1       6.242   3.606  12.643  0.00  0.00    +0.000 C 
ENDBRANCH  22  24
ENDBRANCH  21  22
ENDBRANCH  20  21
ENDBRANCH   1  20
BRANCH   2  25
ATOM     25  C   UNL     1       3.263   6.717  17.381  0.00  0.00    +0.000 C 
BRANCH  25  26
ATOM     26  O   UNL     1       3.282   7.787  18.336  0.00  0.00    +0.000 OA
BRANCH  26  27
ATOM     27  C   UNL     1       2.289   8.688  18.138  0.00  0.00    +0.000 C 
ATOM     28  O   UNL     1       2.051   9.236  17.064  0.00  0.00    +0.000 OA
BRANCH  27  29
ATOM     29  C   UNL     1       1.537   9.011  19.381  0.00  0.00    +0.000 A 
ATOM     30  C   UNL     1       1.731   8.167  20.487  0.00  0.00    +0.000 A 
ATOM     31  C   UNL     1       1.039   8.380  21.681  0.00  0.00    +0.000 A 
ATOM     32  C   UNL     1       0.135   9.439  21.796  0.00  0.00    +0.000 A 
ATOM     33  C   UNL     1      -0.593   9.679  23.087  0.00  0.00    +0.000 C 
ATOM     34  C   UNL     1      -0.065  10.282  20.694  0.00  0.00    +0.000 A 
ATOM     35  C   UNL     1       0.629  10.072  19.491  0.00  0.00    +0.000 A 
ENDBRANCH  27  29
ENDBRANCH  26  27
ENDBRANCH  25  26
ENDBRANCH   2  25
TORSDOF 13
ENDMDL
MODEL 5
REMARK VINA RESULT:      -7.5      1.474      4.657
REMARK  Name = 
REMARK  16 active torsions:
REMARK  status: ('A' for Active; 'I' for Inactive)
REMARK    1  A    between atoms: C_1  and  C_2
REMARK    2  A    between atoms: C_2  and  C_3
REMARK    3  A    between atoms: C_3  and  C_4
REMARK    4  A    between atoms: C_4  and  C_5
REMARK    5  A    between atoms: C_5  and  N_6
REMARK    6  A    between atoms: N_6  and  C_20
REMARK    7  A    between atoms: C_7  and  C_9
REMARK    8  A    between atoms: C_9  and  O_10
REMARK    9  A    between atoms: O_10  and  C_11
REMARK   10  A    between atoms: C_11  and  C_13
REMARK   11  A    between atoms: C_16  and  C_17
REMARK   12  A    between atoms: C_21  and  N_22
REMARK   13  A    between atoms: N_23  and  C_24
REMARK   14  A    between atoms: C_24  and  C_25
REMARK   15  A    between atoms: C_25  and  C_26
REMARK   16  A    between atoms: C_26  and  C_27
REMARK                            x       y       z     vdW  Elec       q    Type
REMARK                         _______ _______ _______ _____ _____    ______ ____
ROOT
ATOM      1  N   UNL     1       4.178   4.293  19.543  0.00  0.00    +0.000 N 
ATOM      2  C   UNL     1       3.113   5.055  20.058  0.00  0.00    +0.000 C 
ATOM      3  O   UNL     1       2.307   4.580  20.864  0.00  0.00    +0.000 OA
ENDROOT
BRANCH   1   4
ATOM      4  C   UNL     1       5.040   4.775  18.548  0.00  0.00    +0.000 A 
ATOM      5  C   UNL     1       4.734   4.761  17.223  0.00  0.00    +0.000 A 
ATOM      6  N   UNL     1       5.686   5.169  16.287  0.00  0.00    +0.000 N 
ATOM      7  C   UNL     1       6.898   5.743  16.652  0.00  0.00    +0.000 A 
ATOM      8  O   UNL     1       7.748   6.142  15.857  0.00  0.00    +0.000 OA
ATOM      9  N   UNL     1       7.137   5.848  17.988  0.00  0.00    +0.000 N 
ATOM     10  C   UNL     1       6.364   5.318  18.971  0.00  0.00    +0.000 A 
ATOM     11  O   UNL     1       6.732   5.309  20.143  0.00  0.00    +0.000 OA
ATOM     12  H   UNL     1       8.036   6.220  18.253  0.00  0.00    +0.000 HD
BRANCH   5  13
ATOM     13  N   UNL     1       3.464   4.400  16.808  0.00  0.00    +0.000 N 
ATOM     14  H   UNL     1       3.396   3.990  15.881  0.00  0.00    +0.000 HD
ATOM     15  H   UNL     1       2.698   5.007  17.062  0.00  0.00    +0.000 HD
ENDBRANCH   5  13
BRANCH   6  16
ATOM     16  C   UNL     1       5.431   5.037  14.847  0.00  0.00    +0.000 C 
BRANCH  16  17
ATOM     17  C   UNL     1       5.909   3.707  14.257  0.00  0.00    +0.000 C 
BRANCH  17  18
ATOM     18  C   UNL     1       6.288   3.877  12.782  0.00  0.00    +0.000 C 
ATOM     19  C   UNL     1       5.464   2.979  11.874  0.00  0.00    +0.000 C 
ENDBRANCH  17  18
ENDBRANCH  16  17
ENDBRANCH   6  16
ENDBRANCH   1   4
BRANCH   1  20
ATOM     20  C   UNL     1       4.321   2.873  19.950  0.00  0.00    +0.000 C 
BRANCH  20  21
ATOM     21  C   UNL     1       4.323   1.863  18.792  0.00  0.00    +0.000 C 
BRANCH  21  22
ATOM     22  C   UNL     1       2.927   1.678  18.167  0.00  0.00    +0.000 C 
BRANCH  22  24
ATOM     23  C   UNL     1       0.591   2.482  18.813  0.00  0.00    +0.000 C 
ATOM     24  C   UNL     1       1.844   1.737  19.250  0.00  0.00    +0.000 C 
ENDBRANCH  22  24
ENDBRANCH  21  22
ENDBRANCH  20  21
ENDBRANCH   1  20
BRANCH   2  25
ATOM     25  C   UNL     1       2.938   6.517  19.562  0.00  0.00    +0.000 C 
BRANCH  25  26
ATOM     26  O   UNL     1       2.039   7.343  20.316  0.00  0.00    +0.000 OA
BRANCH  26  27
ATOM     27  C   UNL     1       1.633   8.442  19.632  0.00  0.00    +0.000 C 
ATOM     28  O   UNL     1       1.919   8.676  18.460  0.00  0.00    +0.000 OA
BRANCH  27  29
ATOM     29  C   UNL     1       0.848   9.392  20.466  0.00  0.00    +0.000 A 
ATOM     30  C   UNL     1       0.368   8.919  21.698  0.00  0.00    +0.000 A 
ATOM     31  C   UNL     1      -0.405   9.735  22.527  0.00  0.00    +0.000 A 
ATOM     32  C   UNL     1      -0.719  11.040  22.141  0.00  0.00    +0.000 A 
ATOM     33  C   UNL     1      -1.534  11.925  23.042  0.00  0.00    +0.000 C 
ATOM     34  C   UNL     1      -0.246  11.516  20.910  0.00  0.00    +0.000 A 
ATOM     35  C   UNL     1       0.532  10.698  20.073  0.00  0.00    +0.000 A 
ENDBRANCH  27  29
ENDBRANCH  26  27
ENDBRANCH  25  26
ENDBRANCH   2  25
TORSDOF 13
ENDMDL
MODEL 6
REMARK VINA RESULT:      -7.5      1.432      1.940
REMARK  Name = 
REMARK  16 active torsions:
REMARK  status: ('A' for Active; 'I' for Inactive)
REMARK    1  A    between atoms: C_1  and  C_2
REMARK    2  A    between atoms: C_2  and  C_3
REMARK    3  A    between atoms: C_3  and  C_4
REMARK    4  A    between atoms: C_4  and  C_5
REMARK    5  A    between atoms: C_5  and  N_6
REMARK    6  A    between atoms: N_6  and  C_20
REMARK    7  A    between atoms: C_7  and  C_9
REMARK    8  A    between atoms: C_9  and  O_10
REMARK    9  A    between atoms: O_10  and  C_11
REMARK   10  A    between atoms: C_11  and  C_13
REMARK   11  A    between atoms: C_16  and  C_17
REMARK   12  A    between atoms: C_21  and  N_22
REMARK   13  A    between atoms: N_23  and  C_24
REMARK   14  A    between atoms: C_24  and  C_25
REMARK   15  A    between atoms: C_25  and  C_26
REMARK   16  A    between atoms: C_26  and  C_27
REMARK                            x       y       z     vdW  Elec       q    Type
REMARK                         _______ _______ _______ _____ _____    ______ ____
ROOT
ATOM      1  N   UNL     1       5.074   5.197  16.540  0.00  0.00    +0.000 N 
ATOM      2  C   UNL     1       4.587   6.517  16.556  0.00  0.00    +0.000 C 
ATOM      3  O   UNL     1       4.907   7.336  15.689  0.00  0.00    +0.000 OA
ENDROOT
BRANCH   1   4
ATOM      4  C   UNL     1       4.813   4.283  17.570  0.00  0.00    +0.000 A 
ATOM      5  C   UNL     1       3.706   3.494  17.605  0.00  0.00    +0.000 A 
ATOM      6  N   UNL     1       3.470   2.680  18.715  0.00  0.00    +0.000 N 
ATOM      7  C   UNL     1       4.399   2.516  19.736  0.00  0.00    +0.000 A 
ATOM      8  O   UNL     1       4.240   1.785  20.712  0.00  0.00    +0.000 OA
ATOM      9  N   UNL     1       5.550   3.233  19.623  0.00  0.00    +0.000 N 
ATOM     10  C   UNL     1       5.798   4.185  18.686  0.00  0.00    +0.000 A 
ATOM     11  O   UNL     1       6.790   4.907  18.751  0.00  0.00    +0.000 OA
ATOM     12  H   UNL     1       6.204   3.150  20.387  0.00  0.00    +0.000 HD
BRANCH   5  13
ATOM     13  N   UNL     1       2.847   3.453  16.521  0.00  0.00    +0.000 N 
ATOM     14  H   UNL     1       2.395   4.329  16.276  0.00  0.00    +0.000 HD
ATOM     15  H   UNL     1       2.271   2.631  16.409  0.00  0.00    +0.000 HD
ENDBRANCH   5  13
BRANCH   6  16
ATOM     16  C   UNL     1       2.218   1.922  18.840  0.00  0.00    +0.000 C 
BRANCH  16  17
ATOM     17  C   UNL     1       1.006   2.790  19.190  0.00  0.00    +0.000 C 
BRANCH  17  18
ATOM     18  C   UNL     1       1.036   3.187  20.669  0.00  0.00    +0.000 C 
ATOM     19  C   UNL     1       1.545   4.605  20.870  0.00  0.00    +0.000 C 
ENDBRANCH  17  18
ENDBRANCH  16  17
ENDBRANCH   6  16
ENDBRANCH   1   4
BRANCH   1  20
ATOM     20  C   UNL     1       6.022   4.783  15.475  0.00  0.00    +0.000 C 
BRANCH  20  21
ATOM     21  C   UNL     1       5.367   4.212  14.208  0.00  0.00    +0.000 C 
BRANCH  21  22
ATOM     22  C   UNL     1       6.396   3.861  13.117  0.00  0.00    +0.000 C 
BRANCH  22  24
ATOM     23  C   UNL     1       4.385   3.386  11.617  0.00  0.00    +0.000 C 
ATOM     24  C   UNL     1       5.769   2.938  12.067  0.00  0.00    +0.000 C 
ENDBRANCH  22  24
ENDBRANCH  21  22
ENDBRANCH  20  21
ENDBRANCH   1  20
BRANCH   2  25
ATOM     25  C   UNL     1       3.654   6.951  17.721  0.00  0.00    +0.000 C 
BRANCH  25  26
ATOM     26  O   UNL     1       2.963   8.196  17.555  0.00  0.00    +0.000 OA
BRANCH  26  27
ATOM     27  C   UNL     1       2.112   8.468  18.575  0.00  0.00    +0.000 C 
ATOM     28  O   UNL     1       1.752   7.648  19.417  0.00  0.00    +0.000 OA
BRANCH  27  29
ATOM     29  C   UNL     1       1.592   9.862  18.548  0.00  0.00    +0.000 A 
ATOM     30  C   UNL     1       0.239  10.049  18.873  0.00  0.00    +0.000 A 
ATOM     31  C   UNL     1      -0.337  11.321  18.840  0.00  0.00    +0.000 A 
ATOM     32  C   UNL     1       0.425  12.433  18.477  0.00  0.00    +0.000 A 
ATOM     33  C   UNL     1      -0.189  13.804  18.460  0.00  0.00    +0.000 C 
ATOM     34  C   UNL     1       1.776  12.252  18.146  0.00  0.00    +0.000 A 
ATOM     35  C   UNL     1       2.359  10.974  18.179  0.00  0.00    +0.000 A 
ENDBRANCH  27  29
ENDBRANCH  26  27
ENDBRANCH  25  26
ENDBRANCH   2  25
TORSDOF 13
ENDMDL
MODEL 7
REMARK VINA RESULT:      -7.5      1.113      1.601
REMARK  Name = 
REMARK  16 active torsions:
REMARK  status: ('A' for Active; 'I' for Inactive)
REMARK    1  A    between atoms: C_1  and  C_2
REMARK    2  A    between atoms: C_2  and  C_3
REMARK    3  A    between atoms: C_3  and  C_4
REMARK    4  A    between atoms: C_4  and  C_5
REMARK    5  A    between atoms: C_5  and  N_6
REMARK    6  A    between atoms: N_6  and  C_20
REMARK    7  A    between atoms: C_7  and  C_9
REMARK    8  A    between atoms: C_9  and  O_10
REMARK    9  A    between atoms: O_10  and  C_11
REMARK   10  A    between atoms: C_11  and  C_13
REMARK   11  A    between atoms: C_16  and  C_17
REMARK   12  A    between atoms: C_21  and  N_22
REMARK   13  A    between atoms: N_23  and  C_24
REMARK   14  A    between atoms: C_24  and  C_25
REMARK   15  A    between atoms: C_25  and  C_26
REMARK   16  A    between atoms: C_26  and  C_27
REMARK                            x       y       z     vdW  Elec       q    Type
REMARK                         _______ _______ _______ _____ _____    ______ ____
ROOT
ATOM      1  N   UNL     1       4.693   5.002  16.111  0.00  0.00    +0.000 N 
ATOM      2  C   UNL     1       4.732   6.406  16.189  0.00  0.00    +0.000 C 
ATOM      3  O   UNL     1       4.950   7.104  15.193  0.00  0.00    +0.000 OA
ENDROOT
BRANCH   1   4
ATOM      4  C   UNL     1       4.555   4.187  17.244  0.00  0.00    +0.000 A 
ATOM      5  C   UNL     1       3.412   3.516  17.546  0.00  0.00    +0.000 A 
ATOM      6  N   UNL     1       3.323   2.803  18.744  0.00  0.00    +0.000 N 
ATOM      7  C   UNL     1       4.412   2.615  19.587  0.00  0.00    +0.000 A 
ATOM      8  O   UNL     1       4.379   1.968  20.633  0.00  0.00    +0.000 OA
ATOM      9  N   UNL     1       5.577   3.205  19.207  0.00  0.00    +0.000 N 
ATOM     10  C   UNL     1       5.723   4.065  18.165  0.00  0.00    +0.000 A 
ATOM     11  O   UNL     1       6.766   4.688  17.988  0.00  0.00    +0.000 OA
ATOM     12  H   UNL     1       6.355   3.108  19.842  0.00  0.00    +0.000 HD
BRANCH   5  13
ATOM     13  N   UNL     1       2.363   3.490  16.644  0.00  0.00    +0.000 N 
ATOM     14  H   UNL     1       1.702   2.727  16.750  0.00  0.00    +0.000 HD
ATOM     15  H   UNL     1       2.558   3.756  15.690  0.00  0.00    +0.000 HD
ENDBRANCH   5  13
BRANCH   6  16
ATOM     16  C   UNL     1       2.058   2.183  19.158  0.00  0.00    +0.000 C 
BRANCH  16  17
ATOM     17  C   UNL     1       0.984   3.193  19.574  0.00  0.00    +0.000 C 
BRANCH  17  18
ATOM     18  C   UNL     1       1.378   3.891  20.879  0.00  0.00    +0.000 C 
ATOM     19  C   UNL     1       1.450   2.921  22.047  0.00  0.00    +0.000 C 
ENDBRANCH  17  18
ENDBRANCH  16  17
ENDBRANCH   6  16
ENDBRANCH   1   4
BRANCH   1  20
ATOM     20  C   UNL     1       4.953   4.336  14.811  0.00  0.00    +0.000 C 
BRANCH  20  21
ATOM     21  C   UNL     1       6.412   4.395  14.331  0.00  0.00    +0.000 C 
BRANCH  21  22
ATOM     22  C   UNL     1       6.600   3.771  12.935  0.00  0.00    +0.000 C 
BRANCH  22  24
ATOM     23  C   UNL     1       8.271   5.700  12.863  0.00  0.00    +0.000 C 
ATOM     24  C   UNL     1       7.490   4.665  12.065  0.00  0.00    +0.000 C 
ENDBRANCH  22  24
ENDBRANCH  21  22
ENDBRANCH  20  21
ENDBRANCH   1  20
BRANCH   2  25
ATOM     25  C   UNL     1       4.532   7.081  17.575  0.00  0.00    +0.000 C 
BRANCH  25  26
ATOM     26  O   UNL     1       3.210   7.020  18.128  0.00  0.00    +0.000 OA
BRANCH  26  27
ATOM     27  C   UNL     1       2.527   8.183  17.991  0.00  0.00    +0.000 C 
ATOM     28  O   UNL     1       2.568   8.901  16.995  0.00  0.00    +0.000 OA
BRANCH  27  29
ATOM     29  C   UNL     1       1.755   8.555  19.209  0.00  0.00    +0.000 A 
ATOM     30  C   UNL     1       1.798   7.663  20.293  0.00  0.00    +0.000 A 
ATOM     31  C   UNL     1       1.077   7.920  21.460  0.00  0.00    +0.000 A 
ATOM     32  C   UNL     1       0.293   9.071  21.570  0.00  0.00    +0.000 A 
ATOM     33  C   UNL     1      -0.467   9.357  22.834  0.00  0.00    +0.000 C 
ATOM     34  C   UNL     1       0.244   9.963  20.489  0.00  0.00    +0.000 A 
ATOM     35  C   UNL     1       0.968   9.708  19.312  0.00  0.00    +0.000 A 
ENDBRANCH  27  29
ENDBRANCH  26  27
ENDBRANCH  25  26
ENDBRANCH   2  25
TORSDOF 13
ENDMDL
MODEL 8
REMARK VINA RESULT:      -7.4      1.161      1.811
REMARK  Name = 
REMARK  16 active torsions:
REMARK  status: ('A' for Active; 'I' for Inactive)
REMARK    1  A    between atoms: C_1  and  C_2
REMARK    2  A    between atoms: C_2  and  C_3
REMARK    3  A    between atoms: C_3  and  C_4
REMARK    4  A    between atoms: C_4  and  C_5
REMARK    5  A    between atoms: C_5  and  N_6
REMARK    6  A    between atoms: N_6  and  C_20
REMARK    7  A    between atoms: C_7  and  C_9
REMARK    8  A    between atoms: C_9  and  O_10
REMARK    9  A    between atoms: O_10  and  C_11
REMARK   10  A    between atoms: C_11  and  C_13
REMARK   11  A    between atoms: C_16  and  C_17
REMARK   12  A    between atoms: C_21  and  N_22
REMARK   13  A    between atoms: N_23  and  C_24
REMARK   14  A    between atoms: C_24  and  C_25
REMARK   15  A    between atoms: C_25  and  C_26
REMARK   16  A    between atoms: C_26  and  C_27
REMARK                            x       y       z     vdW  Elec       q    Type
REMARK                         _______ _______ _______ _____ _____    ______ ____
ROOT
ATOM      1  N   UNL     1       4.157   6.178  17.299  0.00  0.00    +0.000 N 
ATOM      2  C   UNL     1       3.384   7.263  17.752  0.00  0.00    +0.000 C 
ATOM      3  O   UNL     1       3.342   8.331  17.134  0.00  0.00    +0.000 OA
ENDROOT
BRANCH   1   4
ATOM      4  C   UNL     1       4.305   4.996  18.037  0.00  0.00    +0.000 A 
ATOM      5  C   UNL     1       3.533   3.893  17.845  0.00  0.00    +0.000 A 
ATOM      6  N   UNL     1       3.678   2.789  18.688  0.00  0.00    +0.000 N 
ATOM      7  C   UNL     1       4.692   2.697  19.634  0.00  0.00    +0.000 A 
ATOM      8  O   UNL     1       4.870   1.729  20.373  0.00  0.00    +0.000 OA
ATOM      9  N   UNL     1       5.523   3.770  19.734  0.00  0.00    +0.000 N 
ATOM     10  C   UNL     1       5.357   4.958  19.095  0.00  0.00    +0.000 A 
ATOM     11  O   UNL     1       6.052   5.934  19.365  0.00  0.00    +0.000 OA
ATOM     12  H   UNL     1       6.229   3.723  20.453  0.00  0.00    +0.000 HD
BRANCH   5  13
ATOM     13  N   UNL     1       2.649   3.842  16.781  0.00  0.00    +0.000 N 
ATOM     14  H   UNL     1       2.150   4.701  16.573  0.00  0.00    +0.000 HD
ATOM     15  H   UNL     1       2.110   2.996  16.661  0.00  0.00    +0.000 HD
ENDBRANCH   5  13
BRANCH   6  16
ATOM     16  C   UNL     1       2.768   1.641  18.588  0.00  0.00    +0.000 C 
BRANCH  16  17
ATOM     17  C   UNL     1       1.333   1.955  19.020  0.00  0.00    +0.000 C 
BRANCH  17  18
ATOM     18  C   UNL     1       1.315   2.570  20.423  0.00  0.00    +0.000 C 
ATOM     19  C   UNL     1       0.864   4.021  20.404  0.00  0.00    +0.000 C 
ENDBRANCH  17  18
ENDBRANCH  16  17
ENDBRANCH   6  16
ENDBRANCH   1   4
BRANCH   1  20
ATOM     20  C   UNL     1       4.972   6.328  16.068  0.00  0.00    +0.000 C 
BRANCH  20  21
ATOM     21  C   UNL     1       6.472   6.045  16.243  0.00  0.00    +0.000 C 
BRANCH  21  22
ATOM     22  C   UNL     1       6.891   4.688  15.648  0.00  0.00    +0.000 C 
BRANCH  22  24
ATOM     23  C   UNL     1       6.258   3.842  13.324  0.00  0.00    +0.000 C 
ATOM     24  C   UNL     1       5.786   4.138  14.740  0.00  0.00    +0.000 C 
ENDBRANCH  22  24
ENDBRANCH  21  22
ENDBRANCH  20  21
ENDBRANCH   1  20
BRANCH   2  25
ATOM     25  C   UNL     1       2.596   7.110  19.083  0.00  0.00    +0.000 C 
BRANCH  25  26
ATOM     26  O   UNL     1       1.909   8.277  19.555  0.00  0.00    +0.000 OA
BRANCH  26  27
ATOM     27  C   UNL     1       1.347   8.100  20.777  0.00  0.00    +0.000 C 
ATOM     28  O   UNL     1       1.323   7.032  21.383  0.00  0.00    +0.000 OA
BRANCH  27  29
ATOM     29  C   UNL     1       0.691   9.329  21.302  0.00  0.00    +0.000 A 
ATOM     30  C   UNL     1      -0.083   9.196  22.466  0.00  0.00    +0.000 A 
ATOM     31  C   UNL     1      -0.759  10.292  23.006  0.00  0.00    +0.000 A 
ATOM     32  C   UNL     1      -0.679  11.544  22.393  0.00  0.00    +0.000 A 
ATOM     33  C   UNL     1      -1.390  12.728  22.986  0.00  0.00    +0.000 C 
ATOM     34  C   UNL     1       0.090  11.682  21.228  0.00  0.00    +0.000 A 
ATOM     35  C   UNL     1       0.771  10.582  20.682  0.00  0.00    +0.000 A 
ENDBRANCH  27  29
ENDBRANCH  26  27
ENDBRANCH  25  26
ENDBRANCH   2  25
TORSDOF 13
ENDMDL
MODEL 9
REMARK VINA RESULT:      -7.3      4.163      5.584
REMARK  Name = 
REMARK  16 active torsions:
REMARK  status: ('A' for Active; 'I' for Inactive)
REMARK    1  A    between atoms: C_1  and  C_2
REMARK    2  A    between atoms: C_2  and  C_3
REMARK    3  A    between atoms: C_3  and  C_4
REMARK    4  A    between atoms: C_4  and  C_5
REMARK    5  A    between atoms: C_5  and  N_6
REMARK    6  A    between atoms: N_6  and  C_20
REMARK    7  A    between atoms: C_7  and  C_9
REMARK    8  A    between atoms: C_9  and  O_10
REMARK    9  A    between atoms: O_10  and  C_11
REMARK   10  A    between atoms: C_11  and  C_13
REMARK   11  A    between atoms: C_16  and  C_17
REMARK   12  A    between atoms: C_21  and  N_22
REMARK   13  A    between atoms: N_23  and  C_24
REMARK   14  A    between atoms: C_24  and  C_25
REMARK   15  A    between atoms: C_25  and  C_26
REMARK   16  A    between atoms: C_26  and  C_27
REMARK                            x       y       z     vdW  Elec       q    Type
REMARK                         _______ _______ _______ _____ _____    ______ ____
ROOT
ATOM      1  N   UNL     1       5.753   5.946  16.703  0.00  0.00    +0.000 N 
ATOM      2  C   UNL     1       7.064   6.407  16.921  0.00  0.00    +0.000 C 
ATOM      3  O   UNL     1       7.885   6.484  16.000  0.00  0.00    +0.000 OA
ENDROOT
BRANCH   1   4
ATOM      4  C   UNL     1       4.839   5.748  17.748  0.00  0.00    +0.000 A 
ATOM      5  C   UNL     1       4.820   4.632  18.523  0.00  0.00    +0.000 A 
ATOM      6  N   UNL     1       3.816   4.468  19.480  0.00  0.00    +0.000 N 
ATOM      7  C   UNL     1       2.907   5.472  19.791  0.00  0.00    +0.000 A 
ATOM      8  O   UNL     1       2.029   5.377  20.647  0.00  0.00    +0.000 OA
ATOM      9  N   UNL     1       3.015   6.626  19.077  0.00  0.00    +0.000 N 
ATOM     10  C   UNL     1       3.831   6.818  18.007  0.00  0.00    +0.000 A 
ATOM     11  O   UNL     1       3.750   7.826  17.311  0.00  0.00    +0.000 OA
ATOM     12  H   UNL     1       2.326   7.337  19.270  0.00  0.00    +0.000 HD
BRANCH   5  13
ATOM     13  N   UNL     1       5.826   3.688  18.406  0.00  0.00    +0.000 N 
ATOM     14  H   UNL     1       5.693   2.827  18.927  0.00  0.00    +0.000 HD
ATOM     15  H   UNL     1       6.779   4.021  18.369  0.00  0.00    +0.000 HD
ENDBRANCH   5  13
BRANCH   6  16
ATOM     16  C   UNL     1       3.692   3.215  20.236  0.00  0.00    +0.000 C 
BRANCH  16  17
ATOM     17  C   UNL     1       2.955   2.108  19.475  0.00  0.00    +0.000 C 
BRANCH  17  18
ATOM     18  C   UNL     1       1.467   2.105  19.838  0.00  0.00    +0.000 C 
ATOM     19  C   UNL     1       0.597   2.574  18.683  0.00  0.00    +0.000 C 
ENDBRANCH  17  18
ENDBRANCH  16  17
ENDBRANCH   6  16
ENDBRANCH   1   4
BRANCH   1  20
ATOM     20  C   UNL     1       5.350   5.508  15.344  0.00  0.00    +0.000 C 
BRANCH  20  21
ATOM     21  C   UNL     1       5.921   4.151  14.903  0.00  0.00    +0.000 C 
BRANCH  21  22
ATOM     22  C   UNL     1       5.290   3.642  13.593  0.00  0.00    +0.000 C 
BRANCH  22  24
ATOM     23  C   UNL     1       6.108   2.365  11.538  0.00  0.00    +0.000 C 
ATOM     24  C   UNL     1       6.357   3.519  12.498  0.00  0.00    +0.000 C 
ENDBRANCH  22  24
ENDBRANCH  21  22
ENDBRANCH  20  21
ENDBRANCH   1  20
BRANCH   2  25
ATOM     25  C   UNL     1       7.488   6.790  18.366  0.00  0.00    +0.000 C 
BRANCH  25  26
ATOM     26  O   UNL     1       8.503   7.796  18.488  0.00  0.00    +0.000 OA
BRANCH  26  27
ATOM     27  C   UNL     1       8.090   9.017  18.068  0.00  0.00    +0.000 C 
ATOM     28  O   UNL     1       7.182   9.204  17.261  0.00  0.00    +0.000 OA
BRANCH  27  29
ATOM     29  C   UNL     1       8.893  10.134  18.635  0.00  0.00    +0.000 A 
ATOM     30  C   UNL     1       9.218  11.194  17.774  0.00  0.00    +0.000 A 
ATOM     31  C   UNL     1       9.995  12.265  18.217  0.00  0.00    +0.000 A 
ATOM     32  C   UNL     1      10.470  12.299  19.530  0.00  0.00    +0.000 A 
ATOM     33  C   UNL     1      11.291  13.462  20.013  0.00  0.00    +0.000 C 
ATOM     34  C   UNL     1      10.153  11.241  20.394  0.00  0.00    +0.000 A 
ATOM     35  C   UNL     1       9.370  10.161  19.952  0.00  0.00    +0.000 A 
ENDBRANCH  27  29
ENDBRANCH  26  27
ENDBRANCH  25  26
ENDBRANCH   2  25
TORSDOF 13
ENDMDL
