MODEL 1
REMARK VINA RESULT:      -8.1      0.000      0.000
REMARK  Name = 
REMARK  4 active torsions:
REMARK  status: ('A' for Active; 'I' for Inactive)
REMARK    1  A    between atoms: C_1  and  C_2
REMARK    2  A    between atoms: C_9  and  O_10
REMARK    3  A    between atoms: C_11  and  O_12
REMARK    4  A    between atoms: C_20  and  O_21
REMARK                            x       y       z     vdW  Elec       q    Type
REMARK                         _______ _______ _______ _____ _____    ______ ____
ROOT
ATOM      1  C   UNL     1       1.354   3.601  18.645  0.00  0.00    +0.000 C 
ATOM      2  C   UNL     1       2.761   4.058  19.109  0.00  0.00    +0.000 C 
ATOM      3  C   UNL     1       2.704   4.450  20.585  0.00  0.00    +0.000 C 
ATOM      4  C   UNL     1       1.843   5.695  20.785  0.00  0.00    +0.000 C 
ATOM      5  C   UNL     1       2.284   6.892  19.909  0.00  0.00    +0.000 C 
ATOM      6  C   UNL     1       1.391   8.123  20.038  0.00  0.00    +0.000 A 
ATOM      7  C   UNL     1       0.550   8.307  21.149  0.00  0.00    +0.000 A 
ATOM      8  C   UNL     1      -0.256   9.439  21.284  0.00  0.00    +0.000 A 
ATOM      9  C   UNL     1      -0.205  10.415  20.303  0.00  0.00    +0.000 A 
ATOM     10  C   UNL     1       0.639  10.266  19.201  0.00  0.00    +0.000 A 
ATOM     11  C   UNL     1       1.446   9.130  19.046  0.00  0.00    +0.000 A 
ATOM     12  C   UNL     1       2.314   8.993  17.813  0.00  0.00    +0.000 C 
ATOM     13  C   UNL     1       3.183   7.729  17.747  0.00  0.00    +0.000 C 
ATOM     14  C   UNL     1       2.495   6.521  18.406  0.00  0.00    +0.000 C 
ATOM     15  C   UNL     1       3.343   5.243  18.305  0.00  0.00    +0.000 C 
ATOM     16  C   UNL     1       3.613   4.592  16.949  0.00  0.00    +0.000 C 
ATOM     17  C   UNL     1       4.216   3.222  17.336  0.00  0.00    +0.000 C 
ATOM     18  C   UNL     1       3.830   2.988  18.810  0.00  0.00    +0.000 C 
ENDROOT
BRANCH   9  19
ATOM     19  O   UNL     1      -0.969  11.549  20.377  0.00  0.00    +0.000 OA
ATOM     20  H   UNL     1      -1.399  11.675  19.512  0.00  0.00    +0.000 HD
ENDBRANCH   9  19
BRANCH  10  21
ATOM     21  O   UNL     1       0.653  11.264  18.264  0.00  0.00    +0.000 OA
ATOM     22  H   UNL     1       0.922  10.814  17.435  0.00  0.00    +0.000 HD
ENDBRANCH  10  21
BRANCH  18  23
ATOM     23  O   UNL     1       3.409   1.663  19.068  0.00  0.00    +0.000 OA
ATOM     24  H   UNL     1       3.722   1.089  18.349  0.00  0.00    +0.000 HD
ENDBRANCH  18  23
TORSDOF 3
ENDMDL
MODEL 2
REMARK VINA RESULT:      -6.9      1.074      6.823
REMARK  Name = 
REMARK  4 active torsions:
REMARK  status: ('A' for Active; 'I' for Inactive)
REMARK    1  A    between atoms: C_1  and  C_2
REMARK    2  A    between atoms: C_9  and  O_10
REMARK    3  A    between atoms: C_11  and  O_12
REMARK    4  A    between atoms: C_20  and  O_21
REMARK                            x       y       z     vdW  Elec       q    Type
REMARK                         _______ _______ _______ _____ _____    ______ ____
ROOT
ATOM      1  C   UNL     1      -0.203   9.532  17.717  0.00  0.00    +0.000 C 
ATOM      2  C   UNL     1       0.954   9.969  18.653  0.00  0.00    +0.000 C 
ATOM      3  C   UNL     1       2.284   9.814  17.918  0.00  0.00    +0.000 C 
ATOM      4  C   UNL     1       2.587   8.342  17.645  0.00  0.00    +0.000 C 
ATOM      5  C   UNL     1       2.549   7.463  18.917  0.00  0.00    +0.000 C 
ATOM      6  C   UNL     1       2.774   5.976  18.654  0.00  0.00    +0.000 A 
ATOM      7  C   UNL     1       3.393   5.524  17.476  0.00  0.00    +0.000 A 
ATOM      8  C   UNL     1       3.621   4.167  17.238  0.00  0.00    +0.000 A 
ATOM      9  C   UNL     1       3.242   3.247  18.202  0.00  0.00    +0.000 A 
ATOM     10  C   UNL     1       2.646   3.673  19.389  0.00  0.00    +0.000 A 
ATOM     11  C   UNL     1       2.401   5.032  19.639  0.00  0.00    +0.000 A 
ATOM     12  C   UNL     1       1.714   5.442  20.924  0.00  0.00    +0.000 C 
ATOM     13  C   UNL     1       1.515   6.951  21.120  0.00  0.00    +0.000 C 
ATOM     14  C   UNL     1       1.269   7.679  19.787  0.00  0.00    +0.000 C 
ATOM     15  C   UNL     1       1.027   9.185  19.982  0.00  0.00    +0.000 C 
ATOM     16  C   UNL     1      -0.221   9.687  20.707  0.00  0.00    +0.000 C 
ATOM     17  C   UNL     1      -0.207  11.204  20.411  0.00  0.00    +0.000 C 
ATOM     18  C   UNL     1       0.730  11.393  19.201  0.00  0.00    +0.000 C 
ENDROOT
BRANCH   9  19
ATOM     19  O   UNL     1       3.439   1.903  18.028  0.00  0.00    +0.000 OA
ATOM     20  H   UNL     1       2.866   1.611  17.296  0.00  0.00    +0.000 HD
ENDBRANCH   9  19
BRANCH  10  21
ATOM     21  O   UNL     1       2.297   2.722  20.309  0.00  0.00    +0.000 OA
ATOM     22  H   UNL     1       2.732   3.014  21.138  0.00  0.00    +0.000 HD
ENDBRANCH  10  21
BRANCH  18  23
ATOM     23  O   UNL     1       0.224  12.306  18.248  0.00  0.00    +0.000 OA
ATOM     24  H   UNL     1       0.179  13.189  18.651  0.00  0.00    +0.000 HD
ENDBRANCH  18  23
TORSDOF 3
ENDMDL
MODEL 3
REMARK VINA RESULT:      -6.9      8.749      9.912
REMARK  Name = 
REMARK  4 active torsions:
REMARK  status: ('A' for Active; 'I' for Inactive)
REMARK    1  A    between atoms: C_1  and  C_2
REMARK    2  A    between atoms: C_9  and  O_10
REMARK    3  A    between atoms: C_11  and  O_12
REMARK    4  A    between atoms: C_20  and  O_21
REMARK                            x       y       z     vdW  Elec       q    Type
REMARK                         _______ _______ _______ _____ _____    ______ ____
ROOT
ATOM      1  C   UNL     1       9.649  11.184  18.438  0.00  0.00    +0.000 C 
ATOM      2  C   UNL     1      10.483  12.377  18.974  0.00  0.00    +0.000 C 
ATOM      3  C   UNL     1      11.157  11.973  20.285  0.00  0.00    +0.000 C 
ATOM      4  C   UNL     1      10.120  11.745  21.383  0.00  0.00    +0.000 C 
ATOM      5  C   UNL     1       9.174  12.951  21.592  0.00  0.00    +0.000 C 
ATOM      6  C   UNL     1       8.082  12.714  22.633  0.00  0.00    +0.000 A 
ATOM      7  C   UNL     1       8.201  11.705  23.605  0.00  0.00    +0.000 A 
ATOM      8  C   UNL     1       7.216  11.496  24.572  0.00  0.00    +0.000 A 
ATOM      9  C   UNL     1       6.104  12.321  24.582  0.00  0.00    +0.000 A 
ATOM     10  C   UNL     1       5.974  13.343  23.642  0.00  0.00    +0.000 A 
ATOM     11  C   UNL     1       6.950  13.561  22.657  0.00  0.00    +0.000 A 
ATOM     12  C   UNL     1       6.745  14.656  21.633  0.00  0.00    +0.000 C 
ATOM     13  C   UNL     1       7.880  14.835  20.614  0.00  0.00    +0.000 C 
ATOM     14  C   UNL     1       8.558  13.499  20.266  0.00  0.00    +0.000 C 
ATOM     15  C   UNL     1       9.667  13.667  19.214  0.00  0.00    +0.000 C 
ATOM     16  C   UNL     1       9.329  14.088  17.784  0.00  0.00    +0.000 C 
ATOM     17  C   UNL     1      10.653  13.840  17.027  0.00  0.00    +0.000 C 
ATOM     18  C   UNL     1      11.481  12.890  17.916  0.00  0.00    +0.000 C 
ENDROOT
BRANCH   9  19
ATOM     19  O   UNL     1       5.104  12.167  25.505  0.00  0.00    +0.000 OA
ATOM     20  H   UNL     1       5.427  11.562  26.196  0.00  0.00    +0.000 HD
ENDBRANCH   9  19
BRANCH  10  21
ATOM     21  O   UNL     1       4.857  14.133  23.701  0.00  0.00    +0.000 OA
ATOM     22  H   UNL     1       4.126  13.505  23.880  0.00  0.00    +0.000 HD
ENDBRANCH  10  21
BRANCH  18  23
ATOM     23  O   UNL     1      12.123  11.866  17.183  0.00  0.00    +0.000 OA
ATOM     24  H   UNL     1      12.914  11.580  17.669  0.00  0.00    +0.000 HD
ENDBRANCH  18  23
TORSDOF 3
ENDMDL
MODEL 4
REMARK VINA RESULT:      -6.7      1.221      2.871
REMARK  Name = 
REMARK  4 active torsions:
REMARK  status: ('A' for Active; 'I' for Inactive)
REMARK    1  A    between atoms: C_1  and  C_2
REMARK    2  A    between atoms: C_9  and  O_10
REMARK    3  A    between atoms: C_11  and  O_12
REMARK    4  A    between atoms: C_20  and  O_21
REMARK                            x       y       z     vdW  Elec       q    Type
REMARK                         _______ _______ _______ _____ _____    ______ ____
ROOT
ATOM      1  C   UNL     1       4.741   5.216  19.523  0.00  0.00    +0.000 C 
ATOM      2  C   UNL     1       3.333   4.723  19.103  0.00  0.00    +0.000 C 
ATOM      3  C   UNL     1       2.992   5.281  17.722  0.00  0.00    +0.000 C 
ATOM      4  C   UNL     1       2.835   6.800  17.773  0.00  0.00    +0.000 C 
ATOM      5  C   UNL     1       1.812   7.274  18.832  0.00  0.00    +0.000 C 
ATOM      6  C   UNL     1       1.695   8.791  18.951  0.00  0.00    +0.000 A 
ATOM      7  C   UNL     1       2.118   9.644  17.917  0.00  0.00    +0.000 A 
ATOM      8  C   UNL     1       1.996  11.032  18.011  0.00  0.00    +0.000 A 
ATOM      9  C   UNL     1       1.422  11.577  19.147  0.00  0.00    +0.000 A 
ATOM     10  C   UNL     1       0.974  10.750  20.178  0.00  0.00    +0.000 A 
ATOM     11  C   UNL     1       1.098   9.354  20.104  0.00  0.00    +0.000 A 
ATOM     12  C   UNL     1       0.635   8.502  21.265  0.00  0.00    +0.000 C 
ATOM     13  C   UNL     1       0.786   6.985  21.079  0.00  0.00    +0.000 C 
ATOM     14  C   UNL     1       2.024   6.628  20.239  0.00  0.00    +0.000 C 
ATOM     15  C   UNL     1       2.204   5.108  20.085  0.00  0.00    +0.000 C 
ATOM     16  C   UNL     1       2.537   4.237  21.295  0.00  0.00    +0.000 C 
ATOM     17  C   UNL     1       2.917   2.883  20.653  0.00  0.00    +0.000 C 
ATOM     18  C   UNL     1       3.228   3.186  19.174  0.00  0.00    +0.000 C 
ENDROOT
BRANCH   9  19
ATOM     19  O   UNL     1       1.274  12.929  19.299  0.00  0.00    +0.000 OA
ATOM     20  H   UNL     1       0.325  13.113  19.421  0.00  0.00    +0.000 HD
ENDBRANCH   9  19
BRANCH  10  21
ATOM     21  O   UNL     1       0.410  11.341  21.276  0.00  0.00    +0.000 OA
ATOM     22  H   UNL     1       1.148  11.832  21.694  0.00  0.00    +0.000 HD
ENDBRANCH  10  21
BRANCH  18  23
ATOM     23  O   UNL     1       4.374   2.506  18.699  0.00  0.00    +0.000 OA
ATOM     24  H   UNL     1       4.232   1.549  18.791  0.00  0.00    +0.000 HD
ENDBRANCH  18  23
TORSDOF 3
ENDMDL
MODEL 5
REMARK VINA RESULT:      -6.6      3.023      8.119
REMARK  Name = 
REMARK  4 active torsions:
REMARK  status: ('A' for Active; 'I' for Inactive)
REMARK    1  A    between atoms: C_1  and  C_2
REMARK    2  A    between atoms: C_9  and  O_10
REMARK    3  A    between atoms: C_11  and  O_12
REMARK    4  A    between atoms: C_20  and  O_21
REMARK                            x       y       z     vdW  Elec       q    Type
REMARK                         _______ _______ _______ _____ _____    ______ ____
ROOT
ATOM      1  C   UNL     1      -3.062  12.230  19.604  0.00  0.00    +0.000 C 
ATOM      2  C   UNL     1      -1.956  12.985  20.386  0.00  0.00    +0.000 C 
ATOM      3  C   UNL     1      -0.829  13.364  19.427  0.00  0.00    +0.000 C 
ATOM      4  C   UNL     1      -0.110  12.119  18.911  0.00  0.00    +0.000 C 
ATOM      5  C   UNL     1       0.408  11.199  20.041  0.00  0.00    +0.000 C 
ATOM      6  C   UNL     1       1.062   9.911  19.546  0.00  0.00    +0.000 A 
ATOM      7  C   UNL     1       1.546   9.792  18.231  0.00  0.00    +0.000 A 
ATOM      8  C   UNL     1       2.163   8.624  17.777  0.00  0.00    +0.000 A 
ATOM      9  C   UNL     1       2.319   7.566  18.656  0.00  0.00    +0.000 A 
ATOM     10  C   UNL     1       1.867   7.669  19.972  0.00  0.00    +0.000 A 
ATOM     11  C   UNL     1       1.236   8.830  20.441  0.00  0.00    +0.000 A 
ATOM     12  C   UNL     1       0.726   8.879  21.865  0.00  0.00    +0.000 C 
ATOM     13  C   UNL     1       0.076  10.202  22.295  0.00  0.00    +0.000 C 
ATOM     14  C   UNL     1      -0.665  10.884  21.131  0.00  0.00    +0.000 C 
ATOM     15  C   UNL     1      -1.355  12.188  21.566  0.00  0.00    +0.000 C 
ATOM     16  C   UNL     1      -2.525  12.162  22.548  0.00  0.00    +0.000 C 
ATOM     17  C   UNL     1      -3.082  13.601  22.463  0.00  0.00    +0.000 C 
ATOM     18  C   UNL     1      -2.529  14.194  21.152  0.00  0.00    +0.000 C 
ENDROOT
BRANCH   9  19
ATOM     19  O   UNL     1       2.917   6.395  18.272  0.00  0.00    +0.000 OA
ATOM     20  H   UNL     1       3.696   6.622  17.734  0.00  0.00    +0.000 HD
ENDBRANCH   9  19
BRANCH  10  21
ATOM     21  O   UNL     1       2.053   6.594  20.800  0.00  0.00    +0.000 OA
ATOM     22  H   UNL     1       2.364   6.987  21.643  0.00  0.00    +0.000 HD
ENDBRANCH  10  21
BRANCH  18  23
ATOM     23  O   UNL     1      -3.495  14.931  20.428  0.00  0.00    +0.000 OA
ATOM     24  H   UNL     1      -3.039  15.501  19.786  0.00  0.00    +0.000 HD
ENDBRANCH  18  23
TORSDOF 3
ENDMDL
MODEL 6
REMARK VINA RESULT:      -6.6      9.619     10.967
REMARK  Name = 
REMARK  4 active torsions:
REMARK  status: ('A' for Active; 'I' for Inactive)
REMARK    1  A    between atoms: C_1  and  C_2
REMARK    2  A    between atoms: C_9  and  O_10
REMARK    3  A    between atoms: C_11  and  O_12
REMARK    4  A    between atoms: C_20  and  O_21
REMARK                            x       y       z     vdW  Elec       q    Type
REMARK                         _______ _______ _______ _____ _____    ______ ____
ROOT
ATOM      1  C   UNL     1       9.770  13.056  17.749  0.00  0.00    +0.000 C 
ATOM      2  C   UNL     1      11.048  13.099  18.627  0.00  0.00    +0.000 C 
ATOM      3  C   UNL     1      11.150  11.807  19.435  0.00  0.00    +0.000 C 
ATOM      4  C   UNL     1      10.021  11.714  20.459  0.00  0.00    +0.000 C 
ATOM      5  C   UNL     1       9.936  12.946  21.390  0.00  0.00    +0.000 C 
ATOM      6  C   UNL     1       8.768  12.908  22.372  0.00  0.00    +0.000 A 
ATOM      7  C   UNL     1       8.126  11.702  22.702  0.00  0.00    +0.000 A 
ATOM      8  C   UNL     1       7.069  11.656  23.614  0.00  0.00    +0.000 A 
ATOM      9  C   UNL     1       6.660  12.830  24.222  0.00  0.00    +0.000 A 
ATOM     10  C   UNL     1       7.297  14.037  23.927  0.00  0.00    +0.000 A 
ATOM     11  C   UNL     1       8.353  14.102  23.006  0.00  0.00    +0.000 A 
ATOM     12  C   UNL     1       8.984  15.440  22.688  0.00  0.00    +0.000 C 
ATOM     13  C   UNL     1      10.150  15.406  21.690  0.00  0.00    +0.000 C 
ATOM     14  C   UNL     1       9.967  14.309  20.627  0.00  0.00    +0.000 C 
ATOM     15  C   UNL     1      11.111  14.298  19.600  0.00  0.00    +0.000 C 
ATOM     16  C   UNL     1      11.305  15.468  18.636  0.00  0.00    +0.000 C 
ATOM     17  C   UNL     1      12.333  14.916  17.623  0.00  0.00    +0.000 C 
ATOM     18  C   UNL     1      12.305  13.382  17.780  0.00  0.00    +0.000 C 
ENDROOT
BRANCH   9  19
ATOM     19  O   UNL     1       5.631  12.851  25.125  0.00  0.00    +0.000 OA
ATOM     20  H   UNL     1       4.862  13.262  24.690  0.00  0.00    +0.000 HD
ENDBRANCH   9  19
BRANCH  10  21
ATOM     21  O   UNL     1       6.855  15.167  24.561  0.00  0.00    +0.000 OA
ATOM     22  H   UNL     1       5.959  15.317  24.195  0.00  0.00    +0.000 HD
ENDBRANCH  10  21
BRANCH  18  23
ATOM     23  O   UNL     1      12.333  12.699  16.542  0.00  0.00    +0.000 OA
ATOM     24  H   UNL     1      12.812  13.242  15.894  0.00  0.00    +0.000 HD
ENDBRANCH  18  23
TORSDOF 3
ENDMDL
MODEL 7
REMARK VINA RESULT:      -6.6      9.481     11.584
REMARK  Name = 
REMARK  4 active torsions:
REMARK  status: ('A' for Active; 'I' for Inactive)
REMARK    1  A    between atoms: C_1  and  C_2
REMARK    2  A    between atoms: C_9  and  O_10
REMARK    3  A    between atoms: C_11  and  O_12
REMARK    4  A    between atoms: C_20  and  O_21
REMARK                            x       y       z     vdW  Elec       q    Type
REMARK                         _______ _______ _______ _____ _____    ______ ____
ROOT
ATOM      1  C   UNL     1       6.872  14.813  22.402  0.00  0.00    +0.000 C 
ATOM      2  C   UNL     1       7.917  14.099  23.299  0.00  0.00    +0.000 C 
ATOM      3  C   UNL     1       9.213  14.907  23.305  0.00  0.00    +0.000 C 
ATOM      4  C   UNL     1       9.867  14.899  21.925  0.00  0.00    +0.000 C 
ATOM      5  C   UNL     1      10.102  13.475  21.368  0.00  0.00    +0.000 C 
ATOM      6  C   UNL     1      10.686  13.445  19.957  0.00  0.00    +0.000 A 
ATOM      7  C   UNL     1      11.352  14.558  19.415  0.00  0.00    +0.000 A 
ATOM      8  C   UNL     1      11.906  14.531  18.133  0.00  0.00    +0.000 A 
ATOM      9  C   UNL     1      11.810  13.368  17.388  0.00  0.00    +0.000 A 
ATOM     10  C   UNL     1      11.172  12.243  17.914  0.00  0.00    +0.000 A 
ATOM     11  C   UNL     1      10.602  12.256  19.195  0.00  0.00    +0.000 A 
ATOM     12  C   UNL     1       9.885  11.026  19.706  0.00  0.00    +0.000 C 
ATOM     13  C   UNL     1       9.319  11.127  21.130  0.00  0.00    +0.000 C 
ATOM     14  C   UNL     1       8.845  12.553  21.462  0.00  0.00    +0.000 C 
ATOM     15  C   UNL     1       8.239  12.650  22.871  0.00  0.00    +0.000 C 
ATOM     16  C   UNL     1       6.934  11.931  23.210  0.00  0.00    +0.000 C 
ATOM     17  C   UNL     1       6.552  12.533  24.582  0.00  0.00    +0.000 C 
ATOM     18  C   UNL     1       7.362  13.838  24.714  0.00  0.00    +0.000 C 
ENDROOT
BRANCH   9  19
ATOM     19  O   UNL     1      12.332  13.278  16.126  0.00  0.00    +0.000 OA
ATOM     20  H   UNL     1      12.298  12.343  15.855  0.00  0.00    +0.000 HD
ENDBRANCH   9  19
BRANCH  10  21
ATOM     21  O   UNL     1      11.111  11.118  17.136  0.00  0.00    +0.000 OA
ATOM     22  H   UNL     1      11.922  11.159  16.586  0.00  0.00    +0.000 HD
ENDBRANCH  10  21
BRANCH  18  23
ATOM     23  O   UNL     1       6.605  14.907  25.245  0.00  0.00    +0.000 OA
ATOM     24  H   UNL     1       6.695  15.677  24.659  0.00  0.00    +0.000 HD
ENDBRANCH  18  23
TORSDOF 3
ENDMDL
MODEL 8
REMARK VINA RESULT:      -6.4      2.498      3.756
REMARK  Name = 
REMARK  4 active torsions:
REMARK  status: ('A' for Active; 'I' for Inactive)
REMARK    1  A    between atoms: C_1  and  C_2
REMARK    2  A    between atoms: C_9  and  O_10
REMARK    3  A    between atoms: C_11  and  O_12
REMARK    4  A    between atoms: C_20  and  O_21
REMARK                            x       y       z     vdW  Elec       q    Type
REMARK                         _______ _______ _______ _____ _____    ______ ____
ROOT
ATOM      1  C   UNL     1       6.769   7.312  17.362  0.00  0.00    +0.000 C 
ATOM      2  C   UNL     1       5.811   6.233  16.794  0.00  0.00    +0.000 C 
ATOM      3  C   UNL     1       4.812   6.892  15.845  0.00  0.00    +0.000 C 
ATOM      4  C   UNL     1       3.877   7.830  16.604  0.00  0.00    +0.000 C 
ATOM      5  C   UNL     1       3.151   7.147  17.787  0.00  0.00    +0.000 C 
ATOM      6  C   UNL     1       2.269   8.086  18.606  0.00  0.00    +0.000 A 
ATOM      7  C   UNL     1       1.812   9.307  18.080  0.00  0.00    +0.000 A 
ATOM      8  C   UNL     1       0.989  10.163  18.816  0.00  0.00    +0.000 A 
ATOM      9  C   UNL     1       0.598   9.783  20.089  0.00  0.00    +0.000 A 
ATOM     10  C   UNL     1       1.021   8.565  20.623  0.00  0.00    +0.000 A 
ATOM     11  C   UNL     1       1.856   7.699  19.902  0.00  0.00    +0.000 A 
ATOM     12  C   UNL     1       2.322   6.408  20.540  0.00  0.00    +0.000 C 
ATOM     13  C   UNL     1       3.209   5.514  19.662  0.00  0.00    +0.000 C 
ATOM     14  C   UNL     1       4.107   6.338  18.722  0.00  0.00    +0.000 C 
ATOM     15  C   UNL     1       5.028   5.448  17.871  0.00  0.00    +0.000 C 
ATOM     16  C   UNL     1       6.139   4.627  18.523  0.00  0.00    +0.000 C 
ATOM     17  C   UNL     1       6.973   4.149  17.313  0.00  0.00    +0.000 C 
ATOM     18  C   UNL     1       6.590   5.074  16.140  0.00  0.00    +0.000 C 
ENDROOT
BRANCH   9  19
ATOM     19  O   UNL     1      -0.208  10.577  20.860  0.00  0.00    +0.000 OA
ATOM     20  H   UNL     1       0.172  10.606  21.756  0.00  0.00    +0.000 HD
ENDBRANCH   9  19
BRANCH  10  21
ATOM     21  O   UNL     1       0.601   8.237  21.884  0.00  0.00    +0.000 OA
ATOM     22  H   UNL     1      -0.268   8.683  21.974  0.00  0.00    +0.000 HD
ENDBRANCH  10  21
BRANCH  18  23
ATOM     23  O   UNL     1       7.705   5.486  15.374  0.00  0.00    +0.000 OA
ATOM     24  H   UNL     1       7.653   5.074  14.496  0.00  0.00    +0.000 HD
ENDBRANCH  18  23
TORSDOF 3
ENDMDL
MODEL 9
REMARK VINA RESULT:      -6.4      1.512      6.975
REMARK  Name = 
REMARK  4 active torsions:
REMARK  status: ('A' for Active; 'I' for Inactive)
REMARK    1  A    between atoms: C_1  and  C_2
REMARK    2  A    between atoms: C_9  and  O_10
REMARK    3  A    between atoms: C_11  and  O_12
REMARK    4  A    between atoms: C_20  and  O_21
REMARK                            x       y       z     vdW  Elec       q    Type
REMARK                         _______ _______ _______ _____ _____    ______ ____
ROOT
ATOM      1  C   UNL     1      -0.997  10.264  17.722  0.00  0.00    +0.000 C 
ATOM      2  C   UNL     1       0.133  10.953  18.530  0.00  0.00    +0.000 C 
ATOM      3  C   UNL     1       1.452  10.815  17.772  0.00  0.00    +0.000 C 
ATOM      4  C   UNL     1       1.898   9.356  17.714  0.00  0.00    +0.000 C 
ATOM      5  C   UNL     1       1.985   8.687  19.106  0.00  0.00    +0.000 C 
ATOM      6  C   UNL     1       2.356   7.206  19.064  0.00  0.00    +0.000 A 
ATOM      7  C   UNL     1       2.987   6.638  17.944  0.00  0.00    +0.000 A 
ATOM      8  C   UNL     1       3.347   5.289  17.907  0.00  0.00    +0.000 A 
ATOM      9  C   UNL     1       3.091   4.499  19.015  0.00  0.00    +0.000 A 
ATOM     10  C   UNL     1       2.486   5.045  20.147  0.00  0.00    +0.000 A 
ATOM     11  C   UNL     1       2.109   6.396  20.197  0.00  0.00    +0.000 A 
ATOM     12  C   UNL     1       1.417   6.932  21.432  0.00  0.00    +0.000 C 
ATOM     13  C   UNL     1       1.070   8.427  21.404  0.00  0.00    +0.000 C 
ATOM     14  C   UNL     1       0.714   8.910  19.986  0.00  0.00    +0.000 C 
ATOM     15  C   UNL     1       0.324  10.396  19.959  0.00  0.00    +0.000 C 
ATOM     16  C   UNL     1      -0.950  10.881  20.650  0.00  0.00    +0.000 C 
ATOM     17  C   UNL     1      -1.101  12.327  20.126  0.00  0.00    +0.000 C 
ATOM     18  C   UNL     1      -0.221  12.416  18.863  0.00  0.00    +0.000 C 
ENDROOT
BRANCH   9  19
ATOM     19  O   UNL     1       3.420   3.171  19.040  0.00  0.00    +0.000 OA
ATOM     20  H   UNL     1       2.918   2.726  18.334  0.00  0.00    +0.000 HD
ENDBRANCH   9  19
BRANCH  10  21
ATOM     21  O   UNL     1       2.261   4.220  21.216  0.00  0.00    +0.000 OA
ATOM     22  H   UNL     1       2.700   4.671  21.968  0.00  0.00    +0.000 HD
ENDBRANCH  10  21
BRANCH  18  23
ATOM     23  O   UNL     1      -0.844  13.115  17.804  0.00  0.00    +0.000 OA
ATOM     24  H   UNL     1      -0.954  12.511  17.050  0.00  0.00    +0.000 HD
ENDBRANCH  18  23
TORSDOF 3
ENDMDL
