MODEL 1
REMARK VINA RESULT:      -6.9      0.000      0.000
REMARK  Name = 
REMARK  11 active torsions:
REMARK  status: ('A' for Active; 'I' for Inactive)
REMARK    1  A    between atoms: C_1  and  C_2
REMARK    2  A    between atoms: C_2  and  C_3
REMARK    3  A    between atoms: C_3  and  C_4
REMARK    4  A    between atoms: C_4  and  O_5
REMARK    5  A    between atoms: O_5  and  C_6
REMARK    6  A    between atoms: N_8  and  C_9
REMARK    7  A    between atoms: C_15  and  C_16
REMARK    8  A    between atoms: C_15  and  C_17
REMARK    9  A    between atoms: C_24  and  C_25
REMARK   10  A    between atoms: C_24  and  C_26
REMARK   11  A    between atoms: C_28  and  C_29
REMARK                            x       y       z     vdW  Elec       q    Type
REMARK                         _______ _______ _______ _____ _____    ______ ____
ROOT
ATOM      1  C   UNL     1      -3.856  13.750  20.890  0.00  0.00    +0.000 A 
ATOM      2  C   UNL     1      -3.255  14.990  20.987  0.00  0.00    +0.000 A 
ATOM      3  C   UNL     1      -1.940  15.177  20.548  0.00  0.00    +0.000 A 
ATOM      4  C   UNL     1      -1.197  14.170  19.912  0.00  0.00    +0.000 A 
ATOM      5  C   UNL     1      -1.743  12.869  19.969  0.00  0.00    +0.000 A 
ATOM      6  C   UNL     1      -3.067  12.684  20.470  0.00  0.00    +0.000 A 
ATOM      7  C   UNL     1      -0.961  11.615  19.551  0.00  0.00    +0.000 C 
ATOM      8  C   UNL     1      -1.857  10.811  18.547  0.00  0.00    +0.000 C 
ATOM      9  C   UNL     1       0.282  12.021  18.745  0.00  0.00    +0.000 C 
ATOM     10  C   UNL     1       1.039  13.299  19.181  0.00  0.00    +0.000 C 
ATOM     11  C   UNL     1       1.805  13.156  20.507  0.00  0.00    +0.000 C 
ATOM     12  C   UNL     1       2.118  13.457  18.058  0.00  0.00    +0.000 C 
ATOM     13  N   UNL     1       0.085  14.457  19.287  0.00  0.00    +0.000 N 
ATOM     14  C   UNL     1       0.573  15.755  19.034  0.00  0.00    +0.000 C 
ATOM     15  C   UNL     1      -0.375  16.916  18.801  0.00  0.00    +0.000 C 
ATOM     16  O   UNL     1       1.776  16.012  18.926  0.00  0.00    +0.000 OA
ENDROOT
BRANCH   7  17
ATOM     17  C   UNL     1      -0.600  10.700  20.759  0.00  0.00    +0.000 A 
ATOM     18  C   UNL     1      -0.970  11.040  22.077  0.00  0.00    +0.000 A 
ATOM     19  C   UNL     1      -0.512  10.308  23.180  0.00  0.00    +0.000 A 
ATOM     20  C   UNL     1       0.280   9.182  22.994  0.00  0.00    +0.000 A 
ATOM     21  C   UNL     1       0.593   8.776  21.703  0.00  0.00    +0.000 A 
ATOM     22  C   UNL     1       0.170   9.531  20.604  0.00  0.00    +0.000 A 
ENDBRANCH   7  17
BRANCH   1  25
ATOM     23  C   UNL     1      -5.649  12.841  22.338  0.00  0.00    +0.000 C 
ATOM     24  O   UNL     1      -4.998  12.447  23.290  0.00  0.00    +0.000 OA
ATOM     25  N   UNL     1      -5.194  13.508  21.230  0.00  0.00    +0.000 N 
ATOM     26  H   UNL     1      -5.921  13.815  20.600  0.00  0.00    +0.000 HD
BRANCH  23  27
ATOM     27  O   UNL     1      -6.980  12.601  22.184  0.00  0.00    +0.000 OA
BRANCH  27  28
ATOM     28  C   UNL     1      -7.332  12.264  20.838  0.00  0.00    +0.000 C 
BRANCH  28  29
ATOM     29  C   UNL     1      -7.808  10.823  20.671  0.00  0.00    +0.000 C 
BRANCH  29  31
ATOM     30  C   UNL     1      -6.641  11.041  18.417  0.00  0.00    +0.000 C 
ATOM     31  C   UNL     1      -6.944  10.145  19.602  0.00  0.00    +0.000 C 
ENDBRANCH  29  31
ENDBRANCH  28  29
ENDBRANCH  27  28
ENDBRANCH  23  27
ENDBRANCH   1  25
TORSDOF 6
ENDMDL
MODEL 2
REMARK VINA RESULT:      -6.5      3.872      5.385
REMARK  Name = 
REMARK  11 active torsions:
REMARK  status: ('A' for Active; 'I' for Inactive)
REMARK    1  A    between atoms: C_1  and  C_2
REMARK    2  A    between atoms: C_2  and  C_3
REMARK    3  A    between atoms: C_3  and  C_4
REMARK    4  A    between atoms: C_4  and  O_5
REMARK    5  A    between atoms: O_5  and  C_6
REMARK    6  A    between atoms: N_8  and  C_9
REMARK    7  A    between atoms: C_15  and  C_16
REMARK    8  A    between atoms: C_15  and  C_17
REMARK    9  A    between atoms: C_24  and  C_25
REMARK   10  A    between atoms: C_24  and  C_26
REMARK   11  A    between atoms: C_28  and  C_29
REMARK                            x       y       z     vdW  Elec       q    Type
REMARK                         _______ _______ _______ _____ _____    ______ ____
ROOT
ATOM      1  C   UNL     1      -3.347  11.622  17.298  0.00  0.00    +0.000 A 
ATOM      2  C   UNL     1      -4.387  11.791  18.190  0.00  0.00    +0.000 A 
ATOM      3  C   UNL     1      -4.132  12.148  19.519  0.00  0.00    +0.000 A 
ATOM      4  C   UNL     1      -2.845  12.442  19.996  0.00  0.00    +0.000 A 
ATOM      5  C   UNL     1      -1.774  12.104  19.138  0.00  0.00    +0.000 A 
ATOM      6  C   UNL     1      -2.051  11.688  17.801  0.00  0.00    +0.000 A 
ATOM      7  C   UNL     1      -0.306  12.120  19.588  0.00  0.00    +0.000 C 
ATOM      8  C   UNL     1       0.500  12.961  18.538  0.00  0.00    +0.000 C 
ATOM      9  C   UNL     1      -0.174  12.893  20.909  0.00  0.00    +0.000 C 
ATOM     10  C   UNL     1      -1.304  12.732  21.955  0.00  0.00    +0.000 C 
ATOM     11  C   UNL     1      -1.343  11.352  22.633  0.00  0.00    +0.000 C 
ATOM     12  C   UNL     1      -0.895  13.761  23.061  0.00  0.00    +0.000 C 
ATOM     13  N   UNL     1      -2.641  13.006  21.321  0.00  0.00    +0.000 N 
ATOM     14  C   UNL     1      -3.669  13.537  22.126  0.00  0.00    +0.000 C 
ATOM     15  C   UNL     1      -4.916  14.138  21.506  0.00  0.00    +0.000 C 
ATOM     16  O   UNL     1      -3.595  13.602  23.357  0.00  0.00    +0.000 OA
ENDROOT
BRANCH   7  17
ATOM     17  C   UNL     1       0.311  10.694  19.681  0.00  0.00    +0.000 A 
ATOM     18  C   UNL     1       0.240   9.936  20.869  0.00  0.00    +0.000 A 
ATOM     19  C   UNL     1       0.929   8.725  21.011  0.00  0.00    +0.000 A 
ATOM     20  C   UNL     1       1.662   8.209  19.950  0.00  0.00    +0.000 A 
ATOM     21  C   UNL     1       1.685   8.892  18.740  0.00  0.00    +0.000 A 
ATOM     22  C   UNL     1       1.029  10.122  18.614  0.00  0.00    +0.000 A 
ENDBRANCH   7  17
BRANCH   1  25
ATOM     23  C   UNL     1      -3.088  10.241  15.256  0.00  0.00    +0.000 C 
ATOM     24  O   UNL     1      -2.572   9.239  15.721  0.00  0.00    +0.000 OA
ATOM     25  N   UNL     1      -3.529  11.348  15.935  0.00  0.00    +0.000 N 
ATOM     26  H   UNL     1      -4.002  12.029  15.360  0.00  0.00    +0.000 HD
BRANCH  23  27
ATOM     27  O   UNL     1      -3.244  10.461  13.922  0.00  0.00    +0.000 OA
BRANCH  27  28
ATOM     28  C   UNL     1      -4.323   9.708  13.357  0.00  0.00    +0.000 C 
BRANCH  28  29
ATOM     29  C   UNL     1      -4.585  10.020  11.887  0.00  0.00    +0.000 C 
BRANCH  29  31
ATOM     30  C   UNL     1      -7.025  10.142  11.167  0.00  0.00    +0.000 C 
ATOM     31  C   UNL     1      -5.830   9.249  11.438  0.00  0.00    +0.000 C 
ENDBRANCH  29  31
ENDBRANCH  28  29
ENDBRANCH  27  28
ENDBRANCH  23  27
ENDBRANCH   1  25
TORSDOF 6
ENDMDL
MODEL 3
REMARK VINA RESULT:      -6.5      3.472      5.628
REMARK  Name = 
REMARK  11 active torsions:
REMARK  status: ('A' for Active; 'I' for Inactive)
REMARK    1  A    between atoms: C_1  and  C_2
REMARK    2  A    between atoms: C_2  and  C_3
REMARK    3  A    between atoms: C_3  and  C_4
REMARK    4  A    between atoms: C_4  and  O_5
REMARK    5  A    between atoms: O_5  and  C_6
REMARK    6  A    between atoms: N_8  and  C_9
REMARK    7  A    between atoms: C_15  and  C_16
REMARK    8  A    between atoms: C_15  and  C_17
REMARK    9  A    between atoms: C_24  and  C_25
REMARK   10  A    between atoms: C_24  and  C_26
REMARK   11  A    between atoms: C_28  and  C_29
REMARK                            x       y       z     vdW  Elec       q    Type
REMARK                         _______ _______ _______ _____ _____    ______ ____
ROOT
ATOM      1  C   UNL     1      -3.793  11.800  18.089  0.00  0.00    +0.000 A 
ATOM      2  C   UNL     1      -5.059  11.891  18.633  0.00  0.00    +0.000 A 
ATOM      3  C   UNL     1      -5.237  12.353  19.941  0.00  0.00    +0.000 A 
ATOM      4  C   UNL     1      -4.181  12.831  20.733  0.00  0.00    +0.000 A 
ATOM      5  C   UNL     1      -2.879  12.579  20.245  0.00  0.00    +0.000 A 
ATOM      6  C   UNL     1      -2.712  12.055  18.927  0.00  0.00    +0.000 A 
ATOM      7  C   UNL     1      -1.614  12.803  21.086  0.00  0.00    +0.000 C 
ATOM      8  C   UNL     1      -0.628  13.675  20.233  0.00  0.00    +0.000 C 
ATOM      9  C   UNL     1      -1.949  13.662  22.314  0.00  0.00    +0.000 C 
ATOM     10  C   UNL     1      -3.311  13.424  23.010  0.00  0.00    +0.000 C 
ATOM     11  C   UNL     1      -3.405  12.092  23.773  0.00  0.00    +0.000 C 
ATOM     12  C   UNL     1      -3.348  14.558  24.088  0.00  0.00    +0.000 C 
ATOM     13  N   UNL     1      -4.428  13.493  22.004  0.00  0.00    +0.000 N 
ATOM     14  C   UNL     1      -5.694  13.939  22.436  0.00  0.00    +0.000 C 
ATOM     15  C   UNL     1      -6.762  14.344  21.438  0.00  0.00    +0.000 C 
ATOM     16  O   UNL     1      -5.986  14.084  23.626  0.00  0.00    +0.000 OA
ENDROOT
BRANCH   7  17
ATOM     17  C   UNL     1      -0.908  11.472  21.479  0.00  0.00    +0.000 A 
ATOM     18  C   UNL     1      -0.337  10.625  20.506  0.00  0.00    +0.000 A 
ATOM     19  C   UNL     1       0.154   9.355  20.835  0.00  0.00    +0.000 A 
ATOM     20  C   UNL     1       0.142   8.920  22.154  0.00  0.00    +0.000 A 
ATOM     21  C   UNL     1      -0.338   9.765  23.146  0.00  0.00    +0.000 A 
ATOM     22  C   UNL     1      -0.867  11.017  22.811  0.00  0.00    +0.000 A 
ENDBRANCH   7  17
BRANCH   1  25
ATOM     23  C   UNL     1      -2.697  10.436  16.334  0.00  0.00    +0.000 C 
ATOM     24  O   UNL     1      -2.104   9.618  17.016  0.00  0.00    +0.000 OA
ATOM     25  N   UNL     1      -3.544  11.427  16.761  0.00  0.00    +0.000 N 
ATOM     26  H   UNL     1      -3.993  11.940  16.017  0.00  0.00    +0.000 HD
BRANCH  23  27
ATOM     27  O   UNL     1      -2.544  10.547  14.986  0.00  0.00    +0.000 OA
BRANCH  27  28
ATOM     28  C   UNL     1      -3.709  10.144  14.259  0.00  0.00    +0.000 C 
BRANCH  28  29
ATOM     29  C   UNL     1      -3.399   9.506  12.907  0.00  0.00    +0.000 C 
BRANCH  29  31
ATOM     30  C   UNL     1      -5.796   9.252  12.084  0.00  0.00    +0.000 C 
ATOM     31  C   UNL     1      -4.464   9.953  11.900  0.00  0.00    +0.000 C 
ENDBRANCH  29  31
ENDBRANCH  28  29
ENDBRANCH  27  28
ENDBRANCH  23  27
ENDBRANCH   1  25
TORSDOF 6
ENDMDL
MODEL 4
REMARK VINA RESULT:      -6.5      0.599      1.120
REMARK  Name = 
REMARK  11 active torsions:
REMARK  status: ('A' for Active; 'I' for Inactive)
REMARK    1  A    between atoms: C_1  and  C_2
REMARK    2  A    between atoms: C_2  and  C_3
REMARK    3  A    between atoms: C_3  and  C_4
REMARK    4  A    between atoms: C_4  and  O_5
REMARK    5  A    between atoms: O_5  and  C_6
REMARK    6  A    between atoms: N_8  and  C_9
REMARK    7  A    between atoms: C_15  and  C_16
REMARK    8  A    between atoms: C_15  and  C_17
REMARK    9  A    between atoms: C_24  and  C_25
REMARK   10  A    between atoms: C_24  and  C_26
REMARK   11  A    between atoms: C_28  and  C_29
REMARK                            x       y       z     vdW  Elec       q    Type
REMARK                         _______ _______ _______ _____ _____    ______ ____
ROOT
ATOM      1  C   UNL     1      -3.566  13.586  20.650  0.00  0.00    +0.000 A 
ATOM      2  C   UNL     1      -3.059  14.858  20.838  0.00  0.00    +0.000 A 
ATOM      3  C   UNL     1      -1.735  15.151  20.497  0.00  0.00    +0.000 A 
ATOM      4  C   UNL     1      -0.884  14.225  19.873  0.00  0.00    +0.000 A 
ATOM      5  C   UNL     1      -1.341  12.889  19.840  0.00  0.00    +0.000 A 
ATOM      6  C   UNL     1      -2.679  12.595  20.242  0.00  0.00    +0.000 A 
ATOM      7  C   UNL     1      -0.448  11.710  19.428  0.00  0.00    +0.000 C 
ATOM      8  C   UNL     1      -1.219  10.893  18.333  0.00  0.00    +0.000 C 
ATOM      9  C   UNL     1       0.814  12.232  18.725  0.00  0.00    +0.000 C 
ATOM     10  C   UNL     1       1.450  13.537  19.262  0.00  0.00    +0.000 C 
ATOM     11  C   UNL     1       2.136  13.387  20.630  0.00  0.00    +0.000 C 
ATOM     12  C   UNL     1       2.587  13.817  18.223  0.00  0.00    +0.000 C 
ATOM     13  N   UNL     1       0.413  14.624  19.349  0.00  0.00    +0.000 N 
ATOM     14  C   UNL     1       0.826  15.961  19.182  0.00  0.00    +0.000 C 
ATOM     15  C   UNL     1      -0.183  17.066  18.931  0.00  0.00    +0.000 C 
ATOM     16  O   UNL     1       2.013  16.302  19.166  0.00  0.00    +0.000 OA
ENDROOT
BRANCH   7  17
ATOM     17  C   UNL     1      -0.105  10.768  20.620  0.00  0.00    +0.000 A 
ATOM     18  C   UNL     1       0.617   9.571  20.429  0.00  0.00    +0.000 A 
ATOM     19  C   UNL     1       0.788   8.644  21.465  0.00  0.00    +0.000 A 
ATOM     20  C   UNL     1       0.295   8.913  22.735  0.00  0.00    +0.000 A 
ATOM     21  C   UNL     1      -0.349  10.121  22.974  0.00  0.00    +0.000 A 
ATOM     22  C   UNL     1      -0.556  11.028  21.928  0.00  0.00    +0.000 A 
ENDBRANCH   7  17
BRANCH   1  25
ATOM     23  C   UNL     1      -5.405  12.640  22.014  0.00  0.00    +0.000 C 
ATOM     24  O   UNL     1      -4.821  12.409  23.059  0.00  0.00    +0.000 OA
ATOM     25  N   UNL     1      -4.903  13.241  20.888  0.00  0.00    +0.000 N 
ATOM     26  H   UNL     1      -5.586  13.409  20.165  0.00  0.00    +0.000 HD
BRANCH  23  27
ATOM     27  O   UNL     1      -6.685  12.250  21.763  0.00  0.00    +0.000 OA
BRANCH  27  28
ATOM     28  C   UNL     1      -6.793  11.401  20.615  0.00  0.00    +0.000 C 
BRANCH  28  29
ATOM     29  C   UNL     1      -7.580  12.023  19.465  0.00  0.00    +0.000 C 
BRANCH  29  31
ATOM     30  C   UNL     1      -5.599  10.889  18.335  0.00  0.00    +0.000 C 
ATOM     31  C   UNL     1      -6.909  11.630  18.145  0.00  0.00    +0.000 C 
ENDBRANCH  29  31
ENDBRANCH  28  29
ENDBRANCH  27  28
ENDBRANCH  23  27
ENDBRANCH   1  25
TORSDOF 6
ENDMDL
MODEL 5
REMARK VINA RESULT:      -6.3      0.786      1.213
REMARK  Name = 
REMARK  11 active torsions:
REMARK  status: ('A' for Active; 'I' for Inactive)
REMARK    1  A    between atoms: C_1  and  C_2
REMARK    2  A    between atoms: C_2  and  C_3
REMARK    3  A    between atoms: C_3  and  C_4
REMARK    4  A    between atoms: C_4  and  O_5
REMARK    5  A    between atoms: O_5  and  C_6
REMARK    6  A    between atoms: N_8  and  C_9
REMARK    7  A    between atoms: C_15  and  C_16
REMARK    8  A    between atoms: C_15  and  C_17
REMARK    9  A    between atoms: C_24  and  C_25
REMARK   10  A    between atoms: C_24  and  C_26
REMARK   11  A    between atoms: C_28  and  C_29
REMARK                            x       y       z     vdW  Elec       q    Type
REMARK                         _______ _______ _______ _____ _____    ______ ____
ROOT
ATOM      1  C   UNL     1      -3.548  14.415  20.956  0.00  0.00    +0.000 A 
ATOM      2  C   UNL     1      -2.807  15.577  21.052  0.00  0.00    +0.000 A 
ATOM      3  C   UNL     1      -1.486  15.616  20.592  0.00  0.00    +0.000 A 
ATOM      4  C   UNL     1      -0.873  14.536  19.937  0.00  0.00    +0.000 A 
ATOM      5  C   UNL     1      -1.564  13.305  19.995  0.00  0.00    +0.000 A 
ATOM      6  C   UNL     1      -2.892  13.268  20.517  0.00  0.00    +0.000 A 
ATOM      7  C   UNL     1      -0.936  11.974  19.557  0.00  0.00    +0.000 C 
ATOM      8  C   UNL     1      -1.934  11.285  18.563  0.00  0.00    +0.000 C 
ATOM      9  C   UNL     1       0.332  12.241  18.733  0.00  0.00    +0.000 C 
ATOM     10  C   UNL     1       1.237  13.421  19.163  0.00  0.00    +0.000 C 
ATOM     11  C   UNL     1       2.002  13.181  20.476  0.00  0.00    +0.000 C 
ATOM     12  C   UNL     1       2.309  13.464  18.024  0.00  0.00    +0.000 C 
ATOM     13  N   UNL     1       0.422  14.680  19.293  0.00  0.00    +0.000 N 
ATOM     14  C   UNL     1       1.052  15.916  19.039  0.00  0.00    +0.000 C 
ATOM     15  C   UNL     1       0.239  17.178  18.829  0.00  0.00    +0.000 C 
ATOM     16  O   UNL     1       2.274  16.035  18.913  0.00  0.00    +0.000 OA
ENDROOT
BRANCH   7  17
ATOM     17  C   UNL     1      -0.664  11.014  20.753  0.00  0.00    +0.000 A 
ATOM     18  C   UNL     1      -0.290   9.669  20.548  0.00  0.00    +0.000 A 
ATOM     19  C   UNL     1      -0.201   8.761  21.611  0.00  0.00    +0.000 A 
ATOM     20  C   UNL     1      -0.426   9.186  22.914  0.00  0.00    +0.000 A 
ATOM     21  C   UNL     1      -0.715  10.523  23.156  0.00  0.00    +0.000 A 
ATOM     22  C   UNL     1      -0.844  11.419  22.089  0.00  0.00    +0.000 A 
ENDBRANCH   7  17
BRANCH   1  25
ATOM     23  C   UNL     1      -5.396  14.005  22.555  0.00  0.00    +0.000 C 
ATOM     24  O   UNL     1      -4.774  13.866  23.594  0.00  0.00    +0.000 OA
ATOM     25  N   UNL     1      -4.899  14.324  21.317  0.00  0.00    +0.000 N 
ATOM     26  H   UNL     1      -5.604  14.471  20.610  0.00  0.00    +0.000 HD
BRANCH  23  27
ATOM     27  O   UNL     1      -6.734  13.780  22.440  0.00  0.00    +0.000 OA
BRANCH  27  28
ATOM     28  C   UNL     1      -7.104  12.441  22.787  0.00  0.00    +0.000 C 
BRANCH  28  29
ATOM     29  C   UNL     1      -7.913  11.729  21.706  0.00  0.00    +0.000 C 
BRANCH  29  31
ATOM     30  C   UNL     1      -7.219  12.094  19.283  0.00  0.00    +0.000 C 
ATOM     31  C   UNL     1      -6.966  11.332  20.569  0.00  0.00    +0.000 C 
ENDBRANCH  29  31
ENDBRANCH  28  29
ENDBRANCH  27  28
ENDBRANCH  23  27
ENDBRANCH   1  25
TORSDOF 6
ENDMDL
MODEL 6
REMARK VINA RESULT:      -6.3      7.095     10.664
REMARK  Name = 
REMARK  11 active torsions:
REMARK  status: ('A' for Active; 'I' for Inactive)
REMARK    1  A    between atoms: C_1  and  C_2
REMARK    2  A    between atoms: C_2  and  C_3
REMARK    3  A    between atoms: C_3  and  C_4
REMARK    4  A    between atoms: C_4  and  O_5
REMARK    5  A    between atoms: O_5  and  C_6
REMARK    6  A    between atoms: N_8  and  C_9
REMARK    7  A    between atoms: C_15  and  C_16
REMARK    8  A    between atoms: C_15  and  C_17
REMARK    9  A    between atoms: C_24  and  C_25
REMARK   10  A    between atoms: C_24  and  C_26
REMARK   11  A    between atoms: C_28  and  C_29
REMARK                            x       y       z     vdW  Elec       q    Type
REMARK                         _______ _______ _______ _____ _____    ______ ____
ROOT
ATOM      1  C   UNL     1       2.805   7.749  17.858  0.00  0.00    +0.000 A 
ATOM      2  C   UNL     1       1.658   7.055  18.192  0.00  0.00    +0.000 A 
ATOM      3  C   UNL     1       1.730   5.715  18.589  0.00  0.00    +0.000 A 
ATOM      4  C   UNL     1       2.945   5.033  18.758  0.00  0.00    +0.000 A 
ATOM      5  C   UNL     1       4.094   5.682  18.254  0.00  0.00    +0.000 A 
ATOM      6  C   UNL     1       3.996   7.033  17.802  0.00  0.00    +0.000 A 
ATOM      7  C   UNL     1       5.458   4.988  18.126  0.00  0.00    +0.000 C 
ATOM      8  C   UNL     1       6.525   5.910  18.811  0.00  0.00    +0.000 C 
ATOM      9  C   UNL     1       5.461   3.690  18.948  0.00  0.00    +0.000 C 
ATOM     10  C   UNL     1       4.161   2.850  18.975  0.00  0.00    +0.000 C 
ATOM     11  C   UNL     1       3.841   2.143  17.647  0.00  0.00    +0.000 C 
ATOM     12  C   UNL     1       4.502   1.724  20.008  0.00  0.00    +0.000 C 
ATOM     13  N   UNL     1       2.992   3.713  19.366  0.00  0.00    +0.000 N 
ATOM     14  C   UNL     1       1.917   3.115  20.054  0.00  0.00    +0.000 C 
ATOM     15  C   UNL     1       0.874   3.960  20.760  0.00  0.00    +0.000 C 
ATOM     16  O   UNL     1       1.792   1.893  20.176  0.00  0.00    +0.000 OA
ENDROOT
BRANCH   7  17
ATOM     17  C   UNL     1       5.872   4.741  16.645  0.00  0.00    +0.000 A 
ATOM     18  C   UNL     1       7.197   4.945  16.207  0.00  0.00    +0.000 A 
ATOM     19  C   UNL     1       7.540   4.882  14.850  0.00  0.00    +0.000 A 
ATOM     20  C   UNL     1       6.581   4.556  13.900  0.00  0.00    +0.000 A 
ATOM     21  C   UNL     1       5.285   4.269  14.310  0.00  0.00    +0.000 A 
ATOM     22  C   UNL     1       4.934   4.373  15.661  0.00  0.00    +0.000 A 
ENDBRANCH   7  17
BRANCH   1  25
ATOM     23  C   UNL     1       2.073  10.102  18.120  0.00  0.00    +0.000 C 
ATOM     24  O   UNL     1       1.359  10.012  19.104  0.00  0.00    +0.000 OA
ATOM     25  N   UNL     1       2.820   9.112  17.533  0.00  0.00    +0.000 N 
ATOM     26  H   UNL     1       3.406   9.427  16.774  0.00  0.00    +0.000 HD
BRANCH  23  27
ATOM     27  O   UNL     1       2.187  11.233  17.371  0.00  0.00    +0.000 OA
BRANCH  27  28
ATOM     28  C   UNL     1       2.657  12.355  18.125  0.00  0.00    +0.000 C 
BRANCH  28  29
ATOM     29  C   UNL     1       1.586  13.409  18.389  0.00  0.00    +0.000 C 
BRANCH  29  31
ATOM     30  C   UNL     1       3.771  14.717  18.398  0.00  0.00    +0.000 C 
ATOM     31  C   UNL     1       2.257  14.785  18.441  0.00  0.00    +0.000 C 
ENDBRANCH  29  31
ENDBRANCH  28  29
ENDBRANCH  27  28
ENDBRANCH  23  27
ENDBRANCH   1  25
TORSDOF 6
ENDMDL
MODEL 7
REMARK VINA RESULT:      -6.3      3.544      5.429
REMARK  Name = 
REMARK  11 active torsions:
REMARK  status: ('A' for Active; 'I' for Inactive)
REMARK    1  A    between atoms: C_1  and  C_2
REMARK    2  A    between atoms: C_2  and  C_3
REMARK    3  A    between atoms: C_3  and  C_4
REMARK    4  A    between atoms: C_4  and  O_5
REMARK    5  A    between atoms: O_5  and  C_6
REMARK    6  A    between atoms: N_8  and  C_9
REMARK    7  A    between atoms: C_15  and  C_16
REMARK    8  A    between atoms: C_15  and  C_17
REMARK    9  A    between atoms: C_24  and  C_25
REMARK   10  A    between atoms: C_24  and  C_26
REMARK   11  A    between atoms: C_28  and  C_29
REMARK                            x       y       z     vdW  Elec       q    Type
REMARK                         _______ _______ _______ _____ _____    ______ ____
ROOT
ATOM      1  C   UNL     1      -3.807  11.584  17.878  0.00  0.00    +0.000 A 
ATOM      2  C   UNL     1      -5.041  11.830  18.449  0.00  0.00    +0.000 A 
ATOM      3  C   UNL     1      -5.132  12.407  19.720  0.00  0.00    +0.000 A 
ATOM      4  C   UNL     1      -4.011  12.847  20.441  0.00  0.00    +0.000 A 
ATOM      5  C   UNL     1      -2.754  12.441  19.939  0.00  0.00    +0.000 A 
ATOM      6  C   UNL     1      -2.680  11.804  18.663  0.00  0.00    +0.000 A 
ATOM      7  C   UNL     1      -1.446  12.614  20.724  0.00  0.00    +0.000 C 
ATOM      8  C   UNL     1      -0.417  13.325  19.777  0.00  0.00    +0.000 C 
ATOM      9  C   UNL     1      -1.662  13.592  21.888  0.00  0.00    +0.000 C 
ATOM     10  C   UNL     1      -3.014  13.533  22.639  0.00  0.00    +0.000 C 
ATOM     11  C   UNL     1      -3.198  12.277  23.508  0.00  0.00    +0.000 C 
ATOM     12  C   UNL     1      -2.914  14.745  23.623  0.00  0.00    +0.000 C 
ATOM     13  N   UNL     1      -4.155  13.624  21.661  0.00  0.00    +0.000 N 
ATOM     14  C   UNL     1      -5.361  14.214  22.091  0.00  0.00    +0.000 C 
ATOM     15  C   UNL     1      -6.424  14.636  21.094  0.00  0.00    +0.000 C 
ATOM     16  O   UNL     1      -5.598  14.478  23.274  0.00  0.00    +0.000 OA
ENDROOT
BRANCH   7  17
ATOM     17  C   UNL     1      -0.847  11.259  21.202  0.00  0.00    +0.000 A 
ATOM     18  C   UNL     1      -0.861  10.887  22.563  0.00  0.00    +0.000 A 
ATOM     19  C   UNL     1      -0.183   9.749  23.020  0.00  0.00    +0.000 A 
ATOM     20  C   UNL     1       0.478   8.920  22.123  0.00  0.00    +0.000 A 
ATOM     21  C   UNL     1       0.440   9.216  20.767  0.00  0.00    +0.000 A 
ATOM     22  C   UNL     1      -0.202  10.376  20.316  0.00  0.00    +0.000 A 
ENDBRANCH   7  17
BRANCH   1  25
ATOM     23  C   UNL     1      -2.622  10.281  16.135  0.00  0.00    +0.000 C 
ATOM     24  O   UNL     1      -1.755   9.743  16.801  0.00  0.00    +0.000 OA
ATOM     25  N   UNL     1      -3.638  11.088  16.578  0.00  0.00    +0.000 N 
ATOM     26  H   UNL     1      -4.297  11.360  15.863  0.00  0.00    +0.000 HD
BRANCH  23  27
ATOM     27  O   UNL     1      -2.675  10.223  14.776  0.00  0.00    +0.000 OA
BRANCH  27  28
ATOM     28  C   UNL     1      -3.984   9.922  14.283  0.00  0.00    +0.000 C 
BRANCH  28  29
ATOM     29  C   UNL     1      -4.083   9.931  12.760  0.00  0.00    +0.000 C 
BRANCH  29  31
ATOM     30  C   UNL     1      -6.113   9.998  11.222  0.00  0.00    +0.000 C 
ATOM     31  C   UNL     1      -5.406   9.274  12.352  0.00  0.00    +0.000 C 
ENDBRANCH  29  31
ENDBRANCH  28  29
ENDBRANCH  27  28
ENDBRANCH  23  27
ENDBRANCH   1  25
TORSDOF 6
ENDMDL
MODEL 8
REMARK VINA RESULT:      -6.3      3.615      6.738
REMARK  Name = 
REMARK  11 active torsions:
REMARK  status: ('A' for Active; 'I' for Inactive)
REMARK    1  A    between atoms: C_1  and  C_2
REMARK    2  A    between atoms: C_2  and  C_3
REMARK    3  A    between atoms: C_3  and  C_4
REMARK    4  A    between atoms: C_4  and  O_5
REMARK    5  A    between atoms: O_5  and  C_6
REMARK    6  A    between atoms: N_8  and  C_9
REMARK    7  A    between atoms: C_15  and  C_16
REMARK    8  A    between atoms: C_15  and  C_17
REMARK    9  A    between atoms: C_24  and  C_25
REMARK   10  A    between atoms: C_24  and  C_26
REMARK   11  A    between atoms: C_28  and  C_29
REMARK                            x       y       z     vdW  Elec       q    Type
REMARK                         _______ _______ _______ _____ _____    ______ ____
ROOT
ATOM      1  C   UNL     1       1.714  10.031  18.212  0.00  0.00    +0.000 A 
ATOM      2  C   UNL     1       2.479  11.038  17.655  0.00  0.00    +0.000 A 
ATOM      3  C   UNL     1       2.364  12.354  18.116  0.00  0.00    +0.000 A 
ATOM      4  C   UNL     1       1.556  12.713  19.207  0.00  0.00    +0.000 A 
ATOM      5  C   UNL     1       0.652  11.726  19.658  0.00  0.00    +0.000 A 
ATOM      6  C   UNL     1       0.744  10.399  19.140  0.00  0.00    +0.000 A 
ATOM      7  C   UNL     1      -0.471  12.019  20.664  0.00  0.00    +0.000 C 
ATOM      8  C   UNL     1      -0.370  10.952  21.809  0.00  0.00    +0.000 C 
ATOM      9  C   UNL     1      -0.217  13.369  21.350  0.00  0.00    +0.000 C 
ATOM     10  C   UNL     1       0.375  14.514  20.493  0.00  0.00    +0.000 C 
ATOM     11  C   UNL     1      -0.602  15.095  19.456  0.00  0.00    +0.000 C 
ATOM     12  C   UNL     1       0.624  15.641  21.550  0.00  0.00    +0.000 C 
ATOM     13  N   UNL     1       1.618  14.045  19.787  0.00  0.00    +0.000 N 
ATOM     14  C   UNL     1       2.627  14.989  19.505  0.00  0.00    +0.000 C 
ATOM     15  C   UNL     1       4.021  14.547  19.102  0.00  0.00    +0.000 C 
ATOM     16  O   UNL     1       2.462  16.207  19.627  0.00  0.00    +0.000 OA
ENDROOT
BRANCH   7  17
ATOM     17  C   UNL     1      -1.888  11.947  20.023  0.00  0.00    +0.000 A 
ATOM     18  C   UNL     1      -2.104  11.314  18.781  0.00  0.00    +0.000 A 
ATOM     19  C   UNL     1      -3.339  11.386  18.125  0.00  0.00    +0.000 A 
ATOM     20  C   UNL     1      -4.410  12.043  18.718  0.00  0.00    +0.000 A 
ATOM     21  C   UNL     1      -4.251  12.606  19.977  0.00  0.00    +0.000 A 
ATOM     22  C   UNL     1      -3.005  12.569  20.614  0.00  0.00    +0.000 A 
ENDBRANCH   7  17
BRANCH   1  25
ATOM     23  C   UNL     1       2.205   7.650  18.686  0.00  0.00    +0.000 C 
ATOM     24  O   UNL     1       2.375   7.686  19.892  0.00  0.00    +0.000 OA
ATOM     25  N   UNL     1       1.835   8.680  17.860  0.00  0.00    +0.000 N 
ATOM     26  H   UNL     1       1.670   8.409  16.902  0.00  0.00    +0.000 HD
BRANCH  23  27
ATOM     27  O   UNL     1       2.442   6.547  17.923  0.00  0.00    +0.000 OA
BRANCH  27  28
ATOM     28  C   UNL     1       2.401   5.331  18.677  0.00  0.00    +0.000 C 
BRANCH  28  29
ATOM     29  C   UNL     1       1.518   4.253  18.053  0.00  0.00    +0.000 C 
BRANCH  29  31
ATOM     30  C   UNL     1       1.135   3.924  20.550  0.00  0.00    +0.000 C 
ATOM     31  C   UNL     1       1.032   3.317  19.165  0.00  0.00    +0.000 C 
ENDBRANCH  29  31
ENDBRANCH  28  29
ENDBRANCH  27  28
ENDBRANCH  23  27
ENDBRANCH   1  25
TORSDOF 6
ENDMDL
MODEL 9
REMARK VINA RESULT:      -6.2      1.364      2.178
REMARK  Name = 
REMARK  11 active torsions:
REMARK  status: ('A' for Active; 'I' for Inactive)
REMARK    1  A    between atoms: C_1  and  C_2
REMARK    2  A    between atoms: C_2  and  C_3
REMARK    3  A    between atoms: C_3  and  C_4
REMARK    4  A    between atoms: C_4  and  O_5
REMARK    5  A    between atoms: O_5  and  C_6
REMARK    6  A    between atoms: N_8  and  C_9
REMARK    7  A    between atoms: C_15  and  C_16
REMARK    8  A    between atoms: C_15  and  C_17
REMARK    9  A    between atoms: C_24  and  C_25
REMARK   10  A    between atoms: C_24  and  C_26
REMARK   11  A    between atoms: C_28  and  C_29
REMARK                            x       y       z     vdW  Elec       q    Type
REMARK                         _______ _______ _______ _____ _____    ______ ____
ROOT
ATOM      1  C   UNL     1      -3.634  13.959  20.852  0.00  0.00    +0.000 A 
ATOM      2  C   UNL     1      -2.970  15.168  20.932  0.00  0.00    +0.000 A 
ATOM      3  C   UNL     1      -1.646  15.280  20.493  0.00  0.00    +0.000 A 
ATOM      4  C   UNL     1      -0.955  14.227  19.872  0.00  0.00    +0.000 A 
ATOM      5  C   UNL     1      -1.568  12.957  19.947  0.00  0.00    +0.000 A 
ATOM      6  C   UNL     1      -2.900  12.848  20.449  0.00  0.00    +0.000 A 
ATOM      7  C   UNL     1      -0.851  11.659  19.550  0.00  0.00    +0.000 C 
ATOM      8  C   UNL     1      -1.786  10.887  18.556  0.00  0.00    +0.000 C 
ATOM      9  C   UNL     1       0.412  11.988  18.740  0.00  0.00    +0.000 C 
ATOM     10  C   UNL     1       1.234  13.231  19.158  0.00  0.00    +0.000 C 
ATOM     11  C   UNL     1       1.989  13.069  20.488  0.00  0.00    +0.000 C 
ATOM     12  C   UNL     1       2.321  13.317  18.036  0.00  0.00    +0.000 C 
ATOM     13  N   UNL     1       0.340  14.439  19.246  0.00  0.00    +0.000 N 
ATOM     14  C   UNL     1       0.895  15.706  18.975  0.00  0.00    +0.000 C 
ATOM     15  C   UNL     1       0.008  16.910  18.723  0.00  0.00    +0.000 C 
ATOM     16  O   UNL     1       2.110  15.899  18.865  0.00  0.00    +0.000 OA
ENDROOT
BRANCH   7  17
ATOM     17  C   UNL     1      -0.539  10.744  20.771  0.00  0.00    +0.000 A 
ATOM     18  C   UNL     1      -0.980  11.074  22.070  0.00  0.00    +0.000 A 
ATOM     19  C   UNL     1      -0.568  10.344  23.193  0.00  0.00    +0.000 A 
ATOM     20  C   UNL     1       0.248   9.230  23.043  0.00  0.00    +0.000 A 
ATOM     21  C   UNL     1       0.631   8.832  21.768  0.00  0.00    +0.000 A 
ATOM     22  C   UNL     1       0.253   9.586  20.651  0.00  0.00    +0.000 A 
ENDBRANCH   7  17
BRANCH   1  25
ATOM     23  C   UNL     1      -5.482  12.994  22.191  0.00  0.00    +0.000 C 
ATOM     24  O   UNL     1      -4.855  12.387  23.042  0.00  0.00    +0.000 OA
ATOM     25  N   UNL     1      -4.983  13.791  21.193  0.00  0.00    +0.000 N 
ATOM     26  H   UNL     1      -5.687  14.266  20.648  0.00  0.00    +0.000 HD
BRANCH  23  27
ATOM     27  O   UNL     1      -6.833  12.910  22.045  0.00  0.00    +0.000 OA
BRANCH  27  28
ATOM     28  C   UNL     1      -7.482  14.182  22.144  0.00  0.00    +0.000 C 
BRANCH  28  29
ATOM     29  C   UNL     1      -7.523  14.742  23.563  0.00  0.00    +0.000 C 
BRANCH  29  31
ATOM     30  C   UNL     1      -5.469  16.136  24.133  0.00  0.00    +0.000 C 
ATOM     31  C   UNL     1      -6.873  16.129  23.560  0.00  0.00    +0.000 C 
ENDBRANCH  29  31
ENDBRANCH  28  29
ENDBRANCH  27  28
ENDBRANCH  23  27
ENDBRANCH   1  25
TORSDOF 6
ENDMDL
