MODEL 1
REMARK VINA RESULT:      -8.7      0.000      0.000
REMARK  Name = 
REMARK  5 active torsions:
REMARK  status: ('A' for Active; 'I' for Inactive)
REMARK    1  A    between atoms: C_1  and  C_2
REMARK    2  A    between atoms: N_4  and  C_5
REMARK    3  A    between atoms: C_9  and  C_10
REMARK    4  A    between atoms: C_21  and  N_22
REMARK    5  A    between atoms: C_23  and  C_24
REMARK                            x       y       z     vdW  Elec       q    Type
REMARK                         _______ _______ _______ _____ _____    ______ ____
ROOT
ATOM      1  C   UNL     1       2.109   6.564  20.375  0.00  0.00    +0.000 A 
ATOM      2  S   UNL     1       1.100   7.630  21.234  0.00  0.00    +0.000 S 
ATOM      3  C   UNL     1       1.151   8.794  20.009  0.00  0.00    +0.000 A 
ATOM      4  C   UNL     1       1.971   8.429  18.955  0.00  0.00    +0.000 A 
ATOM      5  C   UNL     1       2.529   7.104  19.164  0.00  0.00    +0.000 A 
ATOM      6  C   UNL     1       2.135   9.347  17.774  0.00  0.00    +0.000 C 
ATOM      7  C   UNL     1       1.678  10.780  18.066  0.00  0.00    +0.000 C 
ATOM      8  C   UNL     1       0.318  10.822  18.779  0.00  0.00    +0.000 C 
ATOM      9  C   UNL     1       0.392  10.085  20.133  0.00  0.00    +0.000 C 
ENDROOT
BRANCH   5  10
ATOM     10  C   UNL     1       3.422   6.330  18.201  0.00  0.00    +0.000 A 
ATOM     11  N   UNL     1       4.581   6.810  17.781  0.00  0.00    +0.000 NA
ATOM     12  C   UNL     1       5.232   5.862  16.992  0.00  0.00    +0.000 A 
ATOM     13  C   UNL     1       6.509   5.988  16.408  0.00  0.00    +0.000 A 
ATOM     14  C   UNL     1       7.041   4.929  15.658  0.00  0.00    +0.000 A 
ATOM     15  C   UNL     1       6.314   3.755  15.471  0.00  0.00    +0.000 A 
ATOM     16  C   UNL     1       5.045   3.611  16.028  0.00  0.00    +0.000 A 
ATOM     17  C   UNL     1       4.533   4.674  16.789  0.00  0.00    +0.000 A 
ATOM     18  S   UNL     1       3.044   4.764  17.606  0.00  0.00    +0.000 S 
ENDBRANCH   5  10
BRANCH   1  22
ATOM     19  C   UNL     1       2.319   3.040  21.641  0.00  0.00    +0.000 C 
ATOM     20  C   UNL     1       1.678   4.170  20.876  0.00  0.00    +0.000 C 
ATOM     21  O   UNL     1       0.603   3.994  20.318  0.00  0.00    +0.000 OA
ATOM     22  N   UNL     1       2.444   5.326  20.915  0.00  0.00    +0.000 N 
ATOM     23  H   UNL     1       3.390   5.273  21.293  0.00  0.00    +0.000 HD
ENDBRANCH   1  22
BRANCH   8  24
ATOM     24  N   UNL     1      -0.745  10.277  17.935  0.00  0.00    +0.000 N 
ATOM     25  C   UNL     1      -2.025  10.780  17.955  0.00  0.00    +0.000 C 
ATOM     26  C   UNL     1      -2.975  10.089  17.013  0.00  0.00    +0.000 C 
ATOM     27  O   UNL     1      -2.387  11.689  18.695  0.00  0.00    +0.000 OA
ATOM     28  H   UNL     1      -0.488   9.618  17.209  0.00  0.00    +0.000 HD
ENDBRANCH   8  24
TORSDOF 3
ENDMDL
MODEL 2
REMARK VINA RESULT:      -8.5      0.823      1.240
REMARK  Name = 
REMARK  5 active torsions:
REMARK  status: ('A' for Active; 'I' for Inactive)
REMARK    1  A    between atoms: C_1  and  C_2
REMARK    2  A    between atoms: N_4  and  C_5
REMARK    3  A    between atoms: C_9  and  C_10
REMARK    4  A    between atoms: C_21  and  N_22
REMARK    5  A    between atoms: C_23  and  C_24
REMARK                            x       y       z     vdW  Elec       q    Type
REMARK                         _______ _______ _______ _____ _____    ______ ____
ROOT
ATOM      1  C   UNL     1       2.147   6.490  20.287  0.00  0.00    +0.000 A 
ATOM      2  S   UNL     1       0.995   7.462  21.074  0.00  0.00    +0.000 S 
ATOM      3  C   UNL     1       1.092   8.671  19.896  0.00  0.00    +0.000 A 
ATOM      4  C   UNL     1       2.030   8.394  18.918  0.00  0.00    +0.000 A 
ATOM      5  C   UNL     1       2.647   7.098  19.140  0.00  0.00    +0.000 A 
ATOM      6  C   UNL     1       2.251   9.363  17.788  0.00  0.00    +0.000 C 
ATOM      7  C   UNL     1       1.679  10.755  18.077  0.00  0.00    +0.000 C 
ATOM      8  C   UNL     1       0.257  10.690  18.654  0.00  0.00    +0.000 C 
ATOM      9  C   UNL     1       0.246   9.910  19.985  0.00  0.00    +0.000 C 
ENDROOT
BRANCH   5  10
ATOM     10  C   UNL     1       3.676   6.414  18.247  0.00  0.00    +0.000 A 
ATOM     11  N   UNL     1       3.481   5.202  17.754  0.00  0.00    +0.000 NA
ATOM     12  C   UNL     1       4.529   4.862  16.898  0.00  0.00    +0.000 A 
ATOM     13  C   UNL     1       4.648   3.674  16.147  0.00  0.00    +0.000 A 
ATOM     14  C   UNL     1       5.756   3.489  15.308  0.00  0.00    +0.000 A 
ATOM     15  C   UNL     1       6.750   4.462  15.216  0.00  0.00    +0.000 A 
ATOM     16  C   UNL     1       6.660   5.638  15.957  0.00  0.00    +0.000 A 
ATOM     17  C   UNL     1       5.538   5.815  16.782  0.00  0.00    +0.000 A 
ATOM     18  S   UNL     1       5.151   7.149  17.763  0.00  0.00    +0.000 S 
ENDBRANCH   5  10
BRANCH   1  22
ATOM     19  C   UNL     1       2.418   2.966  21.541  0.00  0.00    +0.000 C 
ATOM     20  C   UNL     1       1.752   4.090  20.788  0.00  0.00    +0.000 C 
ATOM     21  O   UNL     1       0.670   3.903  20.246  0.00  0.00    +0.000 OA
ATOM     22  N   UNL     1       2.505   5.255  20.819  0.00  0.00    +0.000 N 
ATOM     23  H   UNL     1       3.456   5.213  21.183  0.00  0.00    +0.000 HD
ENDBRANCH   1  22
BRANCH   8  24
ATOM     24  N   UNL     1      -0.684  10.115  17.692  0.00  0.00    +0.000 N 
ATOM     25  C   UNL     1      -1.875  10.728  17.378  0.00  0.00    +0.000 C 
ATOM     26  C   UNL     1      -2.704   9.983  16.366  0.00  0.00    +0.000 C 
ATOM     27  O   UNL     1      -2.260  11.771  17.895  0.00  0.00    +0.000 OA
ATOM     28  H   UNL     1      -0.374   9.330  17.133  0.00  0.00    +0.000 HD
ENDBRANCH   8  24
TORSDOF 3
ENDMDL
MODEL 3
REMARK VINA RESULT:      -7.8      0.921      1.068
REMARK  Name = 
REMARK  5 active torsions:
REMARK  status: ('A' for Active; 'I' for Inactive)
REMARK    1  A    between atoms: C_1  and  C_2
REMARK    2  A    between atoms: N_4  and  C_5
REMARK    3  A    between atoms: C_9  and  C_10
REMARK    4  A    between atoms: C_21  and  N_22
REMARK    5  A    between atoms: C_23  and  C_24
REMARK                            x       y       z     vdW  Elec       q    Type
REMARK                         _______ _______ _______ _____ _____    ______ ____
ROOT
ATOM      1  C   UNL     1       1.949   6.731  20.433  0.00  0.00    +0.000 A 
ATOM      2  S   UNL     1       0.672   7.605  21.138  0.00  0.00    +0.000 S 
ATOM      3  C   UNL     1       0.797   8.857  20.009  0.00  0.00    +0.000 A 
ATOM      4  C   UNL     1       1.835   8.670  19.114  0.00  0.00    +0.000 A 
ATOM      5  C   UNL     1       2.510   7.406  19.354  0.00  0.00    +0.000 A 
ATOM      6  C   UNL     1       2.094   9.688  18.036  0.00  0.00    +0.000 C 
ATOM      7  C   UNL     1       1.412  11.033  18.311  0.00  0.00    +0.000 C 
ATOM      8  C   UNL     1      -0.049  10.862  18.752  0.00  0.00    +0.000 C 
ATOM      9  C   UNL     1      -0.130  10.039  20.055  0.00  0.00    +0.000 C 
ENDROOT
BRANCH   5  10
ATOM     10  C   UNL     1       3.656   6.817  18.540  0.00  0.00    +0.000 A 
ATOM     11  N   UNL     1       4.627   6.116  19.102  0.00  0.00    +0.000 NA
ATOM     12  C   UNL     1       5.484   5.616  18.121  0.00  0.00    +0.000 A 
ATOM     13  C   UNL     1       6.602   4.783  18.327  0.00  0.00    +0.000 A 
ATOM     14  C   UNL     1       7.355   4.342  17.229  0.00  0.00    +0.000 A 
ATOM     15  C   UNL     1       7.017   4.730  15.934  0.00  0.00    +0.000 A 
ATOM     16  C   UNL     1       5.924   5.562  15.706  0.00  0.00    +0.000 A 
ATOM     17  C   UNL     1       5.172   5.983  16.814  0.00  0.00    +0.000 A 
ATOM     18  S   UNL     1       3.782   6.964  16.834  0.00  0.00    +0.000 S 
ENDBRANCH   5  10
BRANCH   1  22
ATOM     19  C   UNL     1       2.331   3.188  21.602  0.00  0.00    +0.000 C 
ATOM     20  C   UNL     1       1.667   4.294  20.821  0.00  0.00    +0.000 C 
ATOM     21  O   UNL     1       0.657   4.059  20.170  0.00  0.00    +0.000 OA
ATOM     22  N   UNL     1       2.335   5.503  20.960  0.00  0.00    +0.000 N 
ATOM     23  H   UNL     1       3.248   5.507  21.415  0.00  0.00    +0.000 HD
ENDBRANCH   1  22
BRANCH   8  24
ATOM     24  N   UNL     1      -0.861  10.264  17.693  0.00  0.00    +0.000 N 
ATOM     25  C   UNL     1      -2.120  10.728  17.386  0.00  0.00    +0.000 C 
ATOM     26  C   UNL     1      -2.795   9.984  16.264  0.00  0.00    +0.000 C 
ATOM     27  O   UNL     1      -2.673  11.643  17.988  0.00  0.00    +0.000 OA
ATOM     28  H   UNL     1      -0.420   9.597  17.072  0.00  0.00    +0.000 HD
ENDBRANCH   8  24
TORSDOF 3
ENDMDL
MODEL 4
REMARK VINA RESULT:      -6.8      1.849      2.158
REMARK  Name = 
REMARK  5 active torsions:
REMARK  status: ('A' for Active; 'I' for Inactive)
REMARK    1  A    between atoms: C_1  and  C_2
REMARK    2  A    between atoms: N_4  and  C_5
REMARK    3  A    between atoms: C_9  and  C_10
REMARK    4  A    between atoms: C_21  and  N_22
REMARK    5  A    between atoms: C_23  and  C_24
REMARK                            x       y       z     vdW  Elec       q    Type
REMARK                         _______ _______ _______ _____ _____    ______ ____
ROOT
ATOM      1  C   UNL     1       2.823   5.513  19.409  0.00  0.00    +0.000 A 
ATOM      2  S   UNL     1       1.728   6.291  20.452  0.00  0.00    +0.000 S 
ATOM      3  C   UNL     1       1.801   7.738  19.582  0.00  0.00    +0.000 A 
ATOM      4  C   UNL     1       2.691   7.683  18.524  0.00  0.00    +0.000 A 
ATOM      5  C   UNL     1       3.287   6.364  18.411  0.00  0.00    +0.000 A 
ATOM      6  C   UNL     1       2.885   8.885  17.638  0.00  0.00    +0.000 C 
ATOM      7  C   UNL     1       2.357  10.179  18.267  0.00  0.00    +0.000 C 
ATOM      8  C   UNL     1       0.960  10.000  18.879  0.00  0.00    +0.000 C 
ATOM      9  C   UNL     1       0.988   8.933  19.994  0.00  0.00    +0.000 C 
ENDROOT
BRANCH   5  10
ATOM     10  C   UNL     1       4.261   5.893  17.337  0.00  0.00    +0.000 A 
ATOM     11  N   UNL     1       3.998   4.858  16.558  0.00  0.00    +0.000 NA
ATOM     12  C   UNL     1       5.008   4.708  15.607  0.00  0.00    +0.000 A 
ATOM     13  C   UNL     1       5.053   3.751  14.573  0.00  0.00    +0.000 A 
ATOM     14  C   UNL     1       6.131   3.744  13.675  0.00  0.00    +0.000 A 
ATOM     15  C   UNL     1       7.167   4.668  13.802  0.00  0.00    +0.000 A 
ATOM     16  C   UNL     1       7.151   5.616  14.822  0.00  0.00    +0.000 A 
ATOM     17  C   UNL     1       6.058   5.619  15.703  0.00  0.00    +0.000 A 
ATOM     18  S   UNL     1       5.758   6.669  17.007  0.00  0.00    +0.000 S 
ENDBRANCH   5  10
BRANCH   1  22
ATOM     19  C   UNL     1       4.467   2.176  19.885  0.00  0.00    +0.000 C 
ATOM     20  C   UNL     1       4.461   3.677  19.746  0.00  0.00    +0.000 C 
ATOM     21  O   UNL     1       5.520   4.293  19.748  0.00  0.00    +0.000 OA
ATOM     22  N   UNL     1       3.175   4.184  19.624  0.00  0.00    +0.000 N 
ATOM     23  H   UNL     1       2.386   3.561  19.792  0.00  0.00    +0.000 HD
ENDBRANCH   1  22
BRANCH   8  24
ATOM     24  N   UNL     1      -0.034   9.674  17.856  0.00  0.00    +0.000 N 
ATOM     25  C   UNL     1      -1.291  10.233  17.854  0.00  0.00    +0.000 C 
ATOM     26  C   UNL     1      -2.168   9.775  16.718  0.00  0.00    +0.000 C 
ATOM     27  O   UNL     1      -1.691  11.010  18.714  0.00  0.00    +0.000 OA
ATOM     28  H   UNL     1       0.270   9.146  17.047  0.00  0.00    +0.000 HD
ENDBRANCH   8  24
TORSDOF 3
ENDMDL
MODEL 5
REMARK VINA RESULT:      -6.7      4.480      7.318
REMARK  Name = 
REMARK  5 active torsions:
REMARK  status: ('A' for Active; 'I' for Inactive)
REMARK    1  A    between atoms: C_1  and  C_2
REMARK    2  A    between atoms: N_4  and  C_5
REMARK    3  A    between atoms: C_9  and  C_10
REMARK    4  A    between atoms: C_21  and  N_22
REMARK    5  A    between atoms: C_23  and  C_24
REMARK                            x       y       z     vdW  Elec       q    Type
REMARK                         _______ _______ _______ _____ _____    ______ ____
ROOT
ATOM      1  C   UNL     1      -0.209  13.264  18.468  0.00  0.00    +0.000 A 
ATOM      2  S   UNL     1      -0.299  14.957  18.597  0.00  0.00    +0.000 S 
ATOM      3  C   UNL     1       0.986  15.023  19.694  0.00  0.00    +0.000 A 
ATOM      4  C   UNL     1       1.471  13.771  20.027  0.00  0.00    +0.000 A 
ATOM      5  C   UNL     1       0.774  12.729  19.293  0.00  0.00    +0.000 A 
ATOM      6  C   UNL     1       2.618  13.639  20.993  0.00  0.00    +0.000 C 
ATOM      7  C   UNL     1       2.855  14.912  21.813  0.00  0.00    +0.000 C 
ATOM      8  C   UNL     1       2.839  16.176  20.940  0.00  0.00    +0.000 C 
ATOM      9  C   UNL     1       1.473  16.336  20.240  0.00  0.00    +0.000 C 
ENDROOT
BRANCH   5  10
ATOM     10  C   UNL     1       1.066  11.233  19.337  0.00  0.00    +0.000 A 
ATOM     11  N   UNL     1       1.583  10.589  18.305  0.00  0.00    +0.000 NA
ATOM     12  C   UNL     1       1.835   9.261  18.649  0.00  0.00    +0.000 A 
ATOM     13  C   UNL     1       2.430   8.279  17.831  0.00  0.00    +0.000 A 
ATOM     14  C   UNL     1       2.640   6.987  18.333  0.00  0.00    +0.000 A 
ATOM     15  C   UNL     1       2.255   6.657  19.631  0.00  0.00    +0.000 A 
ATOM     16  C   UNL     1       1.655   7.606  20.455  0.00  0.00    +0.000 A 
ATOM     17  C   UNL     1       1.465   8.900  19.943  0.00  0.00    +0.000 A 
ATOM     18  S   UNL     1       0.795  10.255  20.723  0.00  0.00    +0.000 S 
ENDBRANCH   5  10
BRANCH   1  22
ATOM     19  C   UNL     1      -2.857  11.167  16.838  0.00  0.00    +0.000 C 
ATOM     20  C   UNL     1      -2.201  11.854  18.009  0.00  0.00    +0.000 C 
ATOM     21  O   UNL     1      -2.674  11.729  19.132  0.00  0.00    +0.000 OA
ATOM     22  N   UNL     1      -1.080  12.576  17.628  0.00  0.00    +0.000 N 
ATOM     23  H   UNL     1      -0.899  12.709  16.633  0.00  0.00    +0.000 HD
ENDBRANCH   1  22
BRANCH   8  24
ATOM     24  N   UNL     1       3.936  16.170  19.971  0.00  0.00    +0.000 N 
ATOM     25  C   UNL     1       4.787  17.241  19.825  0.00  0.00    +0.000 C 
ATOM     26  C   UNL     1       5.853  17.043  18.780  0.00  0.00    +0.000 C 
ATOM     27  O   UNL     1       4.680  18.287  20.457  0.00  0.00    +0.000 OA
ATOM     28  H   UNL     1       4.162  15.297  19.513  0.00  0.00    +0.000 HD
ENDBRANCH   8  24
TORSDOF 3
ENDMDL
MODEL 6
REMARK VINA RESULT:      -6.5      3.736      6.286
REMARK  Name = 
REMARK  5 active torsions:
REMARK  status: ('A' for Active; 'I' for Inactive)
REMARK    1  A    between atoms: C_1  and  C_2
REMARK    2  A    between atoms: N_4  and  C_5
REMARK    3  A    between atoms: C_9  and  C_10
REMARK    4  A    between atoms: C_21  and  N_22
REMARK    5  A    between atoms: C_23  and  C_24
REMARK                            x       y       z     vdW  Elec       q    Type
REMARK                         _______ _______ _______ _____ _____    ______ ____
ROOT
ATOM      1  C   UNL     1      -1.038  11.659  19.305  0.00  0.00    +0.000 A 
ATOM      2  S   UNL     1      -1.554  13.260  19.555  0.00  0.00    +0.000 S 
ATOM      3  C   UNL     1      -0.005  13.777  19.992  0.00  0.00    +0.000 A 
ATOM      4  C   UNL     1       0.919  12.747  20.012  0.00  0.00    +0.000 A 
ATOM      5  C   UNL     1       0.313  11.495  19.593  0.00  0.00    +0.000 A 
ATOM      6  C   UNL     1       2.352  13.026  20.380  0.00  0.00    +0.000 C 
ATOM      7  C   UNL     1       2.533  14.373  21.088  0.00  0.00    +0.000 C 
ATOM      8  C   UNL     1       1.777  15.507  20.380  0.00  0.00    +0.000 C 
ATOM      9  C   UNL     1       0.262  15.212  20.348  0.00  0.00    +0.000 C 
ENDROOT
BRANCH   5  10
ATOM     10  C   UNL     1       1.019  10.154  19.423  0.00  0.00    +0.000 A 
ATOM     11  N   UNL     1       1.006   9.230  20.370  0.00  0.00    +0.000 NA
ATOM     12  C   UNL     1       1.639   8.074  19.916  0.00  0.00    +0.000 A 
ATOM     13  C   UNL     1       1.778   6.860  20.620  0.00  0.00    +0.000 A 
ATOM     14  C   UNL     1       2.424   5.773  20.014  0.00  0.00    +0.000 A 
ATOM     15  C   UNL     1       2.944   5.882  18.726  0.00  0.00    +0.000 A 
ATOM     16  C   UNL     1       2.830   7.074  18.015  0.00  0.00    +0.000 A 
ATOM     17  C   UNL     1       2.167   8.149  18.629  0.00  0.00    +0.000 A 
ATOM     18  S   UNL     1       1.854   9.695  17.994  0.00  0.00    +0.000 S 
ENDBRANCH   5  10
BRANCH   1  22
ATOM     19  C   UNL     1      -3.534   9.463  17.569  0.00  0.00    +0.000 C 
ATOM     20  C   UNL     1      -2.542  10.597  17.639  0.00  0.00    +0.000 C 
ATOM     21  O   UNL     1      -2.358  11.306  16.658  0.00  0.00    +0.000 OA
ATOM     22  N   UNL     1      -1.941  10.687  18.886  0.00  0.00    +0.000 N 
ATOM     23  H   UNL     1      -2.086   9.931  19.554  0.00  0.00    +0.000 HD
ENDBRANCH   1  22
BRANCH   8  24
ATOM     24  N   UNL     1       2.302  15.741  19.034  0.00  0.00    +0.000 N 
ATOM     25  C   UNL     1       2.398  17.004  18.497  0.00  0.00    +0.000 C 
ATOM     26  C   UNL     1       2.965  17.039  17.102  0.00  0.00    +0.000 C 
ATOM     27  O   UNL     1       2.025  18.019  19.075  0.00  0.00    +0.000 OA
ATOM     28  H   UNL     1       2.747  14.968  18.555  0.00  0.00    +0.000 HD
ENDBRANCH   8  24
TORSDOF 3
ENDMDL
MODEL 7
REMARK VINA RESULT:      -6.5      3.651      6.213
REMARK  Name = 
REMARK  5 active torsions:
REMARK  status: ('A' for Active; 'I' for Inactive)
REMARK    1  A    between atoms: C_1  and  C_2
REMARK    2  A    between atoms: N_4  and  C_5
REMARK    3  A    between atoms: C_9  and  C_10
REMARK    4  A    between atoms: C_21  and  N_22
REMARK    5  A    between atoms: C_23  and  C_24
REMARK                            x       y       z     vdW  Elec       q    Type
REMARK                         _______ _______ _______ _____ _____    ______ ____
ROOT
ATOM      1  C   UNL     1      -1.112  11.773  19.345  0.00  0.00    +0.000 A 
ATOM      2  S   UNL     1      -1.555  13.396  19.594  0.00  0.00    +0.000 S 
ATOM      3  C   UNL     1       0.023  13.850  19.998  0.00  0.00    +0.000 A 
ATOM      4  C   UNL     1       0.902  12.782  20.008  0.00  0.00    +0.000 A 
ATOM      5  C   UNL     1       0.236  11.554  19.609  0.00  0.00    +0.000 A 
ATOM      6  C   UNL     1       2.352  13.001  20.347  0.00  0.00    +0.000 C 
ATOM      7  C   UNL     1       2.604  14.344  21.042  0.00  0.00    +0.000 C 
ATOM      8  C   UNL     1       1.883  15.505  20.340  0.00  0.00    +0.000 C 
ATOM      9  C   UNL     1       0.357  15.275  20.339  0.00  0.00    +0.000 C 
ENDROOT
BRANCH   5  10
ATOM     10  C   UNL     1       0.880  10.183  19.435  0.00  0.00    +0.000 A 
ATOM     11  N   UNL     1       1.527   9.848  18.331  0.00  0.00    +0.000 NA
ATOM     12  C   UNL     1       2.096   8.583  18.478  0.00  0.00    +0.000 A 
ATOM     13  C   UNL     1       2.902   7.909  17.537  0.00  0.00    +0.000 A 
ATOM     14  C   UNL     1       3.424   6.645  17.845  0.00  0.00    +0.000 A 
ATOM     15  C   UNL     1       3.143   6.037  19.067  0.00  0.00    +0.000 A 
ATOM     16  C   UNL     1       2.340   6.677  20.008  0.00  0.00    +0.000 A 
ATOM     17  C   UNL     1       1.838   7.950  19.692  0.00  0.00    +0.000 A 
ATOM     18  S   UNL     1       0.869   8.969  20.649  0.00  0.00    +0.000 S 
ENDBRANCH   5  10
BRANCH   1  22
ATOM     19  C   UNL     1      -3.661   9.620  17.633  0.00  0.00    +0.000 C 
ATOM     20  C   UNL     1      -2.584  10.674  17.674  0.00  0.00    +0.000 C 
ATOM     21  O   UNL     1      -2.274  11.268  16.649  0.00  0.00    +0.000 OA
ATOM     22  N   UNL     1      -2.063  10.838  18.949  0.00  0.00    +0.000 N 
ATOM     23  H   UNL     1      -2.317  10.164  19.671  0.00  0.00    +0.000 HD
ENDBRANCH   1  22
BRANCH   8  24
ATOM     24  N   UNL     1       2.392  15.708  18.984  0.00  0.00    +0.000 N 
ATOM     25  C   UNL     1       2.396  16.946  18.383  0.00  0.00    +0.000 C 
ATOM     26  C   UNL     1       2.962  16.952  16.987  0.00  0.00    +0.000 C 
ATOM     27  O   UNL     1       1.950  17.959  18.910  0.00  0.00    +0.000 OA
ATOM     28  H   UNL     1       2.893  14.947  18.543  0.00  0.00    +0.000 HD
ENDBRANCH   8  24
TORSDOF 3
ENDMDL
MODEL 8
REMARK VINA RESULT:      -6.5      6.116      8.884
REMARK  Name = 
REMARK  5 active torsions:
REMARK  status: ('A' for Active; 'I' for Inactive)
REMARK    1  A    between atoms: C_1  and  C_2
REMARK    2  A    between atoms: N_4  and  C_5
REMARK    3  A    between atoms: C_9  and  C_10
REMARK    4  A    between atoms: C_21  and  N_22
REMARK    5  A    between atoms: C_23  and  C_24
REMARK                            x       y       z     vdW  Elec       q    Type
REMARK                         _______ _______ _______ _____ _____    ______ ____
ROOT
ATOM      1  C   UNL     1      -4.269  12.203  19.091  0.00  0.00    +0.000 A 
ATOM      2  S   UNL     1      -5.836  12.129  19.748  0.00  0.00    +0.000 S 
ATOM      3  C   UNL     1      -5.293  12.531  21.298  0.00  0.00    +0.000 A 
ATOM      4  C   UNL     1      -3.918  12.676  21.364  0.00  0.00    +0.000 A 
ATOM      5  C   UNL     1      -3.311  12.494  20.056  0.00  0.00    +0.000 A 
ATOM      6  C   UNL     1      -3.259  13.034  22.669  0.00  0.00    +0.000 C 
ATOM      7  C   UNL     1      -4.170  12.802  23.879  0.00  0.00    +0.000 C 
ATOM      8  C   UNL     1      -5.586  13.355  23.654  0.00  0.00    +0.000 C 
ATOM      9  C   UNL     1      -6.253  12.664  22.446  0.00  0.00    +0.000 C 
ENDROOT
BRANCH   5  10
ATOM     10  C   UNL     1      -1.834  12.639  19.711  0.00  0.00    +0.000 A 
ATOM     11  N   UNL     1      -1.097  11.606  19.337  0.00  0.00    +0.000 NA
ATOM     12  C   UNL     1       0.184  12.035  18.988  0.00  0.00    +0.000 A 
ATOM     13  C   UNL     1       1.233  11.234  18.493  0.00  0.00    +0.000 A 
ATOM     14  C   UNL     1       2.463  11.821  18.163  0.00  0.00    +0.000 A 
ATOM     15  C   UNL     1       2.665  13.190  18.333  0.00  0.00    +0.000 A 
ATOM     16  C   UNL     1       1.649  14.000  18.831  0.00  0.00    +0.000 A 
ATOM     17  C   UNL     1       0.418  13.400  19.142  0.00  0.00    +0.000 A 
ATOM     18  S   UNL     1      -0.997  14.139  19.730  0.00  0.00    +0.000 S 
ENDBRANCH   5  10
BRANCH   1  22
ATOM     19  C   UNL     1      -3.475  10.879  15.673  0.00  0.00    +0.000 C 
ATOM     20  C   UNL     1      -3.694  10.752  17.159  0.00  0.00    +0.000 C 
ATOM     21  O   UNL     1      -3.536   9.668  17.708  0.00  0.00    +0.000 OA
ATOM     22  N   UNL     1      -4.063  11.958  17.737  0.00  0.00    +0.000 N 
ATOM     23  H   UNL     1      -4.300  12.740  17.126  0.00  0.00    +0.000 HD
ENDBRANCH   1  22
BRANCH   8  24
ATOM     24  N   UNL     1      -5.573  14.809  23.495  0.00  0.00    +0.000 N 
ATOM     25  C   UNL     1      -6.699  15.576  23.688  0.00  0.00    +0.000 C 
ATOM     26  C   UNL     1      -6.483  17.052  23.480  0.00  0.00    +0.000 C 
ATOM     27  O   UNL     1      -7.798  15.111  23.969  0.00  0.00    +0.000 OA
ATOM     28  H   UNL     1      -4.677  15.270  23.394  0.00  0.00    +0.000 HD
ENDBRANCH   8  24
TORSDOF 3
ENDMDL
MODEL 9
REMARK VINA RESULT:      -6.4      6.589      8.774
REMARK  Name = 
REMARK  5 active torsions:
REMARK  status: ('A' for Active; 'I' for Inactive)
REMARK    1  A    between atoms: C_1  and  C_2
REMARK    2  A    between atoms: N_4  and  C_5
REMARK    3  A    between atoms: C_9  and  C_10
REMARK    4  A    between atoms: C_21  and  N_22
REMARK    5  A    between atoms: C_23  and  C_24
REMARK                            x       y       z     vdW  Elec       q    Type
REMARK                         _______ _______ _______ _____ _____    ______ ____
ROOT
ATOM      1  C   UNL     1      -3.805  12.193  18.817  0.00  0.00    +0.000 A 
ATOM      2  S   UNL     1      -5.329  12.020  19.551  0.00  0.00    +0.000 S 
ATOM      3  C   UNL     1      -4.743  12.493  21.065  0.00  0.00    +0.000 A 
ATOM      4  C   UNL     1      -3.381  12.737  21.061  0.00  0.00    +0.000 A 
ATOM      5  C   UNL     1      -2.826  12.573  19.729  0.00  0.00    +0.000 A 
ATOM      6  C   UNL     1      -2.688  13.169  22.326  0.00  0.00    +0.000 C 
ATOM      7  C   UNL     1      -3.521  12.897  23.583  0.00  0.00    +0.000 C 
ATOM      8  C   UNL     1      -4.983  13.342  23.419  0.00  0.00    +0.000 C 
ATOM      9  C   UNL     1      -5.654  12.580  22.257  0.00  0.00    +0.000 C 
ENDROOT
BRANCH   5  10
ATOM     10  C   UNL     1      -1.381  12.816  19.308  0.00  0.00    +0.000 A 
ATOM     11  N   UNL     1      -0.863  14.031  19.251  0.00  0.00    +0.000 NA
ATOM     12  C   UNL     1       0.494  13.957  18.935  0.00  0.00    +0.000 A 
ATOM     13  C   UNL     1       1.394  15.037  18.835  0.00  0.00    +0.000 A 
ATOM     14  C   UNL     1       2.741  14.796  18.531  0.00  0.00    +0.000 A 
ATOM     15  C   UNL     1       3.200  13.498  18.312  0.00  0.00    +0.000 A 
ATOM     16  C   UNL     1       2.328  12.416  18.394  0.00  0.00    +0.000 A 
ATOM     17  C   UNL     1       0.985  12.672  18.714  0.00  0.00    +0.000 A 
ATOM     18  S   UNL     1      -0.283  11.556  18.911  0.00  0.00    +0.000 S 
ENDBRANCH   5  10
BRANCH   1  22
ATOM     19  C   UNL     1      -3.195  10.816  15.382  0.00  0.00    +0.000 C 
ATOM     20  C   UNL     1      -3.396  10.703  16.873  0.00  0.00    +0.000 C 
ATOM     21  O   UNL     1      -3.325   9.608  17.416  0.00  0.00    +0.000 OA
ATOM     22  N   UNL     1      -3.646  11.936  17.459  0.00  0.00    +0.000 N 
ATOM     23  H   UNL     1      -3.825  12.737  16.854  0.00  0.00    +0.000 HD
ENDBRANCH   1  22
BRANCH   8  24
ATOM     24  N   UNL     1      -5.083  14.790  23.234  0.00  0.00    +0.000 N 
ATOM     25  C   UNL     1      -6.192  15.502  23.631  0.00  0.00    +0.000 C 
ATOM     26  C   UNL     1      -6.105  16.981  23.358  0.00  0.00    +0.000 C 
ATOM     27  O   UNL     1      -7.186  14.989  24.131  0.00  0.00    +0.000 OA
ATOM     28  H   UNL     1      -4.252  15.293  22.950  0.00  0.00    +0.000 HD
ENDBRANCH   8  24
TORSDOF 3
ENDMDL
