MODEL 1
REMARK VINA RESULT:      -7.4      0.000      0.000
REMARK  Name = 
REMARK  3 active torsions:
REMARK  status: ('A' for Active; 'I' for Inactive)
REMARK    1  A    between atoms: C_1  and  C_2
REMARK    2  A    between atoms: C_6  and  C_7
REMARK    3  A    between atoms: C_13  and  C_14
REMARK                            x       y       z     vdW  Elec       q    Type
REMARK                         _______ _______ _______ _____ _____    ______ ____
ROOT
ATOM      1  C   UNL     1       3.429   2.421  18.345  0.00  0.00    +0.000 C 
ATOM      2  O   UNL     1       3.542   1.314  17.816  0.00  0.00    +0.000 OA
ATOM      3  N   UNL     1       3.955   3.554  17.711  0.00  0.00    +0.000 N 
ATOM      4  C   UNL     1       3.668   4.955  18.043  0.00  0.00    +0.000 C 
ATOM      5  C   UNL     1       4.968   5.718  18.284  0.00  0.00    +0.000 C 
ATOM      6  N   UNL     1       5.937   5.428  17.239  0.00  0.00    +0.000 N 
ATOM      7  C   UNL     1       7.099   6.113  16.957  0.00  0.00    +0.000 A 
ATOM      8  C   UNL     1       7.619   5.417  15.881  0.00  0.00    +0.000 A 
ATOM      9  N   UNL     1       6.835   4.346  15.534  0.00  0.00    +0.000 NA
ATOM     10  C   UNL     1       5.834   4.350  16.390  0.00  0.00    +0.000 A 
ATOM     11  C   UNL     1       4.696   3.374  16.462  0.00  0.00    +0.000 C 
ENDROOT
BRANCH   1  17
ATOM     12  C   UNL     1       0.240   2.758  18.939  0.00  0.00    +0.000 C 
ATOM     13  C   UNL     1       1.372   2.726  19.900  0.00  0.00    +0.000 A 
ATOM     14  C   UNL     1       1.279   2.880  21.313  0.00  0.00    +0.000 A 
ATOM     15  C   UNL     1       2.551   2.743  21.805  0.00  0.00    +0.000 A 
ATOM     16  O   UNL     1       3.423   2.516  20.796  0.00  0.00    +0.000 OA
ATOM     17  C   UNL     1       2.727   2.574  19.616  0.00  0.00    +0.000 A 
ENDBRANCH   1  17
BRANCH   7  18
ATOM     18  C   UNL     1       7.586   7.268  17.664  0.00  0.00    +0.000 C 
ATOM     19  N   UNL     1       8.261   7.035  18.823  0.00  0.00    +0.000 N 
ATOM     20  O   UNL     1       7.424   8.429  17.290  0.00  0.00    +0.000 OA
ATOM     21  H   UNL     1       8.412   6.117  19.212  0.00  0.00    +0.000 HD
ATOM     22  H   UNL     1       8.592   7.840  19.336  0.00  0.00    +0.000 HD
ENDBRANCH   7  18
TORSDOF 2
ENDMDL
MODEL 2
REMARK VINA RESULT:      -6.6      0.926      1.405
REMARK  Name = 
REMARK  3 active torsions:
REMARK  status: ('A' for Active; 'I' for Inactive)
REMARK    1  A    between atoms: C_1  and  C_2
REMARK    2  A    between atoms: C_6  and  C_7
REMARK    3  A    between atoms: C_13  and  C_14
REMARK                            x       y       z     vdW  Elec       q    Type
REMARK                         _______ _______ _______ _____ _____    ______ ____
ROOT
ATOM      1  C   UNL     1       2.996   2.770  18.077  0.00  0.00    +0.000 C 
ATOM      2  O   UNL     1       2.944   1.736  17.409  0.00  0.00    +0.000 OA
ATOM      3  N   UNL     1       3.612   3.912  17.548  0.00  0.00    +0.000 N 
ATOM      4  C   UNL     1       3.514   5.280  18.070  0.00  0.00    +0.000 C 
ATOM      5  C   UNL     1       4.907   5.858  18.301  0.00  0.00    +0.000 C 
ATOM      6  N   UNL     1       5.768   5.603  17.157  0.00  0.00    +0.000 N 
ATOM      7  C   UNL     1       6.982   6.188  16.871  0.00  0.00    +0.000 A 
ATOM      8  C   UNL     1       7.348   5.585  15.681  0.00  0.00    +0.000 A 
ATOM      9  N   UNL     1       6.422   4.662  15.268  0.00  0.00    +0.000 NA
ATOM     10  C   UNL     1       5.485   4.663  16.192  0.00  0.00    +0.000 A 
ATOM     11  C   UNL     1       4.246   3.817  16.233  0.00  0.00    +0.000 C 
ENDROOT
BRANCH   1  17
ATOM     12  C   UNL     1       4.310   2.098  20.985  0.00  0.00    +0.000 C 
ATOM     13  C   UNL     1       2.930   2.544  20.663  0.00  0.00    +0.000 A 
ATOM     14  C   UNL     1       1.870   2.734  21.594  0.00  0.00    +0.000 A 
ATOM     15  C   UNL     1       0.794   3.186  20.874  0.00  0.00    +0.000 A 
ATOM     16  O   UNL     1       1.116   3.288  19.564  0.00  0.00    +0.000 OA
ATOM     17  C   UNL     1       2.399   2.831  19.408  0.00  0.00    +0.000 A 
ENDBRANCH   1  17
BRANCH   7  18
ATOM     18  C   UNL     1       7.646   7.180  17.675  0.00  0.00    +0.000 C 
ATOM     19  N   UNL     1       8.193   6.752  18.845  0.00  0.00    +0.000 N 
ATOM     20  O   UNL     1       7.740   8.369  17.371  0.00  0.00    +0.000 OA
ATOM     21  H   UNL     1       8.137   5.803  19.180  0.00  0.00    +0.000 HD
ATOM     22  H   UNL     1       8.646   7.445  19.426  0.00  0.00    +0.000 HD
ENDBRANCH   7  18
TORSDOF 2
ENDMDL
MODEL 3
REMARK VINA RESULT:      -6.6      2.148      6.262
REMARK  Name = 
REMARK  3 active torsions:
REMARK  status: ('A' for Active; 'I' for Inactive)
REMARK    1  A    between atoms: C_1  and  C_2
REMARK    2  A    between atoms: C_6  and  C_7
REMARK    3  A    between atoms: C_13  and  C_14
REMARK                            x       y       z     vdW  Elec       q    Type
REMARK                         _______ _______ _______ _____ _____    ______ ____
ROOT
ATOM      1  C   UNL     1       6.269   5.542  16.714  0.00  0.00    +0.000 C 
ATOM      2  O   UNL     1       6.317   5.364  15.495  0.00  0.00    +0.000 OA
ATOM      3  N   UNL     1       5.495   4.690  17.513  0.00  0.00    +0.000 N 
ATOM      4  C   UNL     1       5.548   4.574  18.975  0.00  0.00    +0.000 C 
ATOM      5  C   UNL     1       4.156   4.759  19.571  0.00  0.00    +0.000 C 
ATOM      6  N   UNL     1       3.174   3.974  18.839  0.00  0.00    +0.000 N 
ATOM      7  C   UNL     1       1.887   3.665  19.226  0.00  0.00    +0.000 A 
ATOM      8  C   UNL     1       1.417   2.907  18.169  0.00  0.00    +0.000 A 
ATOM      9  N   UNL     1       2.352   2.775  17.175  0.00  0.00    +0.000 NA
ATOM     10  C   UNL     1       3.401   3.456  17.585  0.00  0.00    +0.000 A 
ATOM     11  C   UNL     1       4.701   3.649  16.858  0.00  0.00    +0.000 C 
ENDROOT
BRANCH   1  17
ATOM     12  C   UNL     1       8.302   5.438  19.261  0.00  0.00    +0.000 C 
ATOM     13  C   UNL     1       7.900   6.603  18.433  0.00  0.00    +0.000 A 
ATOM     14  C   UNL     1       8.312   7.952  18.625  0.00  0.00    +0.000 A 
ATOM     15  C   UNL     1       7.740   8.683  17.616  0.00  0.00    +0.000 A 
ATOM     16  O   UNL     1       7.002   7.879  16.815  0.00  0.00    +0.000 OA
ATOM     17  C   UNL     1       7.032   6.615  17.343  0.00  0.00    +0.000 A 
ENDBRANCH   1  17
BRANCH   7  18
ATOM     18  C   UNL     1       1.257   4.077  20.452  0.00  0.00    +0.000 C 
ATOM     19  N   UNL     1       0.952   3.095  21.342  0.00  0.00    +0.000 N 
ATOM     20  O   UNL     1       0.981   5.244  20.731  0.00  0.00    +0.000 OA
ATOM     21  H   UNL     1       1.121   2.114  21.179  0.00  0.00    +0.000 HD
ATOM     22  H   UNL     1       0.493   3.372  22.200  0.00  0.00    +0.000 HD
ENDBRANCH   7  18
TORSDOF 2
ENDMDL
MODEL 4
REMARK VINA RESULT:      -6.5      2.273      3.563
REMARK  Name = 
REMARK  3 active torsions:
REMARK  status: ('A' for Active; 'I' for Inactive)
REMARK    1  A    between atoms: C_1  and  C_2
REMARK    2  A    between atoms: C_6  and  C_7
REMARK    3  A    between atoms: C_13  and  C_14
REMARK                            x       y       z     vdW  Elec       q    Type
REMARK                         _______ _______ _______ _____ _____    ______ ____
ROOT
ATOM      1  C   UNL     1       4.352   4.647  19.169  0.00  0.00    +0.000 C 
ATOM      2  O   UNL     1       4.740   5.621  19.817  0.00  0.00    +0.000 OA
ATOM      3  N   UNL     1       5.133   4.152  18.116  0.00  0.00    +0.000 N 
ATOM      4  C   UNL     1       4.973   2.859  17.441  0.00  0.00    +0.000 C 
ATOM      5  C   UNL     1       4.857   3.062  15.933  0.00  0.00    +0.000 C 
ATOM      6  N   UNL     1       5.878   3.982  15.456  0.00  0.00    +0.000 N 
ATOM      7  C   UNL     1       6.267   4.202  14.153  0.00  0.00    +0.000 A 
ATOM      8  C   UNL     1       7.258   5.159  14.280  0.00  0.00    +0.000 A 
ATOM      9  N   UNL     1       7.451   5.527  15.587  0.00  0.00    +0.000 NA
ATOM     10  C   UNL     1       6.583   4.825  16.284  0.00  0.00    +0.000 A 
ATOM     11  C   UNL     1       6.365   4.862  17.769  0.00  0.00    +0.000 C 
ENDROOT
BRANCH   1  17
ATOM     12  C   UNL     1       1.496   4.679  17.596  0.00  0.00    +0.000 C 
ATOM     13  C   UNL     1       1.861   3.982  18.855  0.00  0.00    +0.000 A 
ATOM     14  C   UNL     1       0.991   3.198  19.664  0.00  0.00    +0.000 A 
ATOM     15  C   UNL     1       1.750   2.715  20.699  0.00  0.00    +0.000 A 
ATOM     16  O   UNL     1       3.028   3.146  20.586  0.00  0.00    +0.000 OA
ATOM     17  C   UNL     1       3.096   3.982  19.501  0.00  0.00    +0.000 A 
ENDBRANCH   1  17
BRANCH   7  18
ATOM     18  C   UNL     1       5.720   3.553  12.991  0.00  0.00    +0.000 C 
ATOM     19  N   UNL     1       6.538   2.686  12.334  0.00  0.00    +0.000 N 
ATOM     20  O   UNL     1       4.580   3.738  12.566  0.00  0.00    +0.000 OA
ATOM     21  H   UNL     1       7.492   2.499  12.601  0.00  0.00    +0.000 HD
ATOM     22  H   UNL     1       6.169   2.238  11.506  0.00  0.00    +0.000 HD
ENDBRANCH   7  18
TORSDOF 2
ENDMDL
MODEL 5
REMARK VINA RESULT:      -6.5      2.730      4.670
REMARK  Name = 
REMARK  3 active torsions:
REMARK  status: ('A' for Active; 'I' for Inactive)
REMARK    1  A    between atoms: C_1  and  C_2
REMARK    2  A    between atoms: C_6  and  C_7
REMARK    3  A    between atoms: C_13  and  C_14
REMARK                            x       y       z     vdW  Elec       q    Type
REMARK                         _______ _______ _______ _____ _____    ______ ____
ROOT
ATOM      1  C   UNL     1       5.562   5.968  17.834  0.00  0.00    +0.000 C 
ATOM      2  O   UNL     1       6.169   7.008  18.096  0.00  0.00    +0.000 OA
ATOM      3  N   UNL     1       6.055   5.101  16.850  0.00  0.00    +0.000 N 
ATOM      4  C   UNL     1       5.634   3.715  16.614  0.00  0.00    +0.000 C 
ATOM      5  C   UNL     1       5.225   3.527  15.156  0.00  0.00    +0.000 C 
ATOM      6  N   UNL     1       6.207   4.124  14.264  0.00  0.00    +0.000 N 
ATOM      7  C   UNL     1       6.335   3.932  12.906  0.00  0.00    +0.000 A 
ATOM      8  C   UNL     1       7.417   4.728  12.578  0.00  0.00    +0.000 A 
ATOM      9  N   UNL     1       7.914   5.394  13.669  0.00  0.00    +0.000 NA
ATOM     10  C   UNL     1       7.147   5.040  14.678  0.00  0.00    +0.000 A 
ATOM     11  C   UNL     1       7.249   5.500  16.104  0.00  0.00    +0.000 C 
ENDROOT
BRANCH   1  17
ATOM     12  C   UNL     1       2.664   7.460  17.902  0.00  0.00    +0.000 C 
ATOM     13  C   UNL     1       3.098   6.230  18.612  0.00  0.00    +0.000 A 
ATOM     14  C   UNL     1       2.315   5.462  19.520  0.00  0.00    +0.000 A 
ATOM     15  C   UNL     1       3.091   4.399  19.902  0.00  0.00    +0.000 A 
ATOM     16  O   UNL     1       4.299   4.457  19.296  0.00  0.00    +0.000 OA
ATOM     17  C   UNL     1       4.345   5.611  18.557  0.00  0.00    +0.000 A 
ENDBRANCH   1  17
BRANCH   7  18
ATOM     18  C   UNL     1       5.497   3.089  12.094  0.00  0.00    +0.000 C 
ATOM     19  N   UNL     1       6.027   1.899  11.701  0.00  0.00    +0.000 N 
ATOM     20  O   UNL     1       4.355   3.382  11.740  0.00  0.00    +0.000 OA
ATOM     21  H   UNL     1       6.962   1.597  11.925  0.00  0.00    +0.000 HD
ATOM     22  H   UNL     1       5.452   1.307  11.116  0.00  0.00    +0.000 HD
ENDBRANCH   7  18
TORSDOF 2
ENDMDL
MODEL 6
REMARK VINA RESULT:      -6.5      4.993      6.986
REMARK  Name = 
REMARK  3 active torsions:
REMARK  status: ('A' for Active; 'I' for Inactive)
REMARK    1  A    between atoms: C_1  and  C_2
REMARK    2  A    between atoms: C_6  and  C_7
REMARK    3  A    between atoms: C_13  and  C_14
REMARK                            x       y       z     vdW  Elec       q    Type
REMARK                         _______ _______ _______ _____ _____    ______ ____
ROOT
ATOM      1  C   UNL     1       1.486   9.307  18.387  0.00  0.00    +0.000 C 
ATOM      2  O   UNL     1       1.906   9.605  17.267  0.00  0.00    +0.000 OA
ATOM      3  N   UNL     1       2.069   8.244  19.090  0.00  0.00    +0.000 N 
ATOM      4  C   UNL     1       1.897   7.939  20.515  0.00  0.00    +0.000 C 
ATOM      5  C   UNL     1       1.440   6.495  20.696  0.00  0.00    +0.000 C 
ATOM      6  N   UNL     1       2.237   5.595  19.877  0.00  0.00    +0.000 N 
ATOM      7  C   UNL     1       2.314   4.223  19.966  0.00  0.00    +0.000 A 
ATOM      8  C   UNL     1       3.209   3.894  18.965  0.00  0.00    +0.000 A 
ATOM      9  N   UNL     1       3.642   4.999  18.279  0.00  0.00    +0.000 NA
ATOM     10  C   UNL     1       3.017   6.021  18.825  0.00  0.00    +0.000 A 
ATOM     11  C   UNL     1       3.121   7.466  18.434  0.00  0.00    +0.000 C 
ENDROOT
BRANCH   1  17
ATOM     12  C   UNL     1      -1.547   9.855  17.324  0.00  0.00    +0.000 C 
ATOM     13  C   UNL     1      -0.896  10.323  18.574  0.00  0.00    +0.000 A 
ATOM     14  C   UNL     1      -1.482  11.161  19.563  0.00  0.00    +0.000 A 
ATOM     15  C   UNL     1      -0.549  11.305  20.557  0.00  0.00    +0.000 A 
ATOM     16  O   UNL     1       0.574  10.614  20.250  0.00  0.00    +0.000 OA
ATOM     17  C   UNL     1       0.404  10.065  19.005  0.00  0.00    +0.000 A 
ENDBRANCH   1  17
BRANCH   7  18
ATOM     18  C   UNL     1       1.598   3.401  20.906  0.00  0.00    +0.000 C 
ATOM     19  N   UNL     1       0.425   2.861  20.475  0.00  0.00    +0.000 N 
ATOM     20  O   UNL     1       1.976   3.169  22.053  0.00  0.00    +0.000 OA
ATOM     21  H   UNL     1       0.032   3.024  19.560  0.00  0.00    +0.000 HD
ATOM     22  H   UNL     1      -0.095   2.296  21.133  0.00  0.00    +0.000 HD
ENDBRANCH   7  18
TORSDOF 2
ENDMDL
MODEL 7
REMARK VINA RESULT:      -6.3      4.684      6.689
REMARK  Name = 
REMARK  3 active torsions:
REMARK  status: ('A' for Active; 'I' for Inactive)
REMARK    1  A    between atoms: C_1  and  C_2
REMARK    2  A    between atoms: C_6  and  C_7
REMARK    3  A    between atoms: C_13  and  C_14
REMARK                            x       y       z     vdW  Elec       q    Type
REMARK                         _______ _______ _______ _____ _____    ______ ____
ROOT
ATOM      1  C   UNL     1       1.809   9.102  18.392  0.00  0.00    +0.000 C 
ATOM      2  O   UNL     1       2.267   9.605  17.364  0.00  0.00    +0.000 OA
ATOM      3  N   UNL     1       2.274   7.852  18.823  0.00  0.00    +0.000 N 
ATOM      4  C   UNL     1       2.059   7.247  20.143  0.00  0.00    +0.000 C 
ATOM      5  C   UNL     1       1.455   5.854  19.994  0.00  0.00    +0.000 C 
ATOM      6  N   UNL     1       2.163   5.091  18.979  0.00  0.00    +0.000 N 
ATOM      7  C   UNL     1       2.098   3.734  18.750  0.00  0.00    +0.000 A 
ATOM      8  C   UNL     1       2.963   3.554  17.686  0.00  0.00    +0.000 A 
ATOM      9  N   UNL     1       3.512   4.738  17.265  0.00  0.00    +0.000 NA
ATOM     10  C   UNL     1       2.991   5.665  18.041  0.00  0.00    +0.000 A 
ATOM     11  C   UNL     1       3.246   7.143  17.990  0.00  0.00    +0.000 C 
ENDROOT
BRANCH   1  17
ATOM     12  C   UNL     1      -1.237   9.960  17.609  0.00  0.00    +0.000 C 
ATOM     13  C   UNL     1      -0.498  10.190  18.876  0.00  0.00    +0.000 A 
ATOM     14  C   UNL     1      -0.984  10.888  20.018  0.00  0.00    +0.000 A 
ATOM     15  C   UNL     1       0.006  10.825  20.964  0.00  0.00    +0.000 A 
ATOM     16  O   UNL     1       1.069  10.138  20.487  0.00  0.00    +0.000 OA
ATOM     17  C   UNL     1       0.805   9.804  19.184  0.00  0.00    +0.000 A 
ENDBRANCH   1  17
BRANCH   7  18
ATOM     18  C   UNL     1       1.293   2.795  19.487  0.00  0.00    +0.000 C 
ATOM     19  N   UNL     1       1.723   2.470  20.736  0.00  0.00    +0.000 N 
ATOM     20  O   UNL     1       0.263   2.278  19.056  0.00  0.00    +0.000 OA
ATOM     21  H   UNL     1       2.569   2.828  21.152  0.00  0.00    +0.000 HD
ATOM     22  H   UNL     1       1.174   1.798  21.255  0.00  0.00    +0.000 HD
ENDBRANCH   7  18
TORSDOF 2
ENDMDL
MODEL 8
REMARK VINA RESULT:      -6.3      4.942      7.047
REMARK  Name = 
REMARK  3 active torsions:
REMARK  status: ('A' for Active; 'I' for Inactive)
REMARK    1  A    between atoms: C_1  and  C_2
REMARK    2  A    between atoms: C_6  and  C_7
REMARK    3  A    between atoms: C_13  and  C_14
REMARK                            x       y       z     vdW  Elec       q    Type
REMARK                         _______ _______ _______ _____ _____    ______ ____
ROOT
ATOM      1  C   UNL     1       1.612   9.145  18.134  0.00  0.00    +0.000 C 
ATOM      2  O   UNL     1       2.190   9.409  17.078  0.00  0.00    +0.000 OA
ATOM      3  N   UNL     1       2.142   8.175  18.996  0.00  0.00    +0.000 N 
ATOM      4  C   UNL     1       1.758   7.944  20.393  0.00  0.00    +0.000 C 
ATOM      5  C   UNL     1       1.378   6.481  20.601  0.00  0.00    +0.000 C 
ATOM      6  N   UNL     1       2.360   5.600  19.988  0.00  0.00    +0.000 N 
ATOM      7  C   UNL     1       2.515   4.246  20.187  0.00  0.00    +0.000 A 
ATOM      8  C   UNL     1       3.583   3.930  19.367  0.00  0.00    +0.000 A 
ATOM      9  N   UNL     1       4.047   5.024  18.682  0.00  0.00    +0.000 NA
ATOM     10  C   UNL     1       3.271   6.023  19.047  0.00  0.00    +0.000 A 
ATOM     11  C   UNL     1       3.339   7.446  18.575  0.00  0.00    +0.000 C 
ENDROOT
BRANCH   1  17
ATOM     12  C   UNL     1       1.178  11.530  20.314  0.00  0.00    +0.000 C 
ATOM     13  C   UNL     1       0.174  10.865  19.444  0.00  0.00    +0.000 A 
ATOM     14  C   UNL     1      -1.225  11.126  19.423  0.00  0.00    +0.000 A 
ATOM     15  C   UNL     1      -1.758  10.322  18.449  0.00  0.00    +0.000 A 
ATOM     16  O   UNL     1      -0.786   9.582  17.868  0.00  0.00    +0.000 OA
ATOM     17  C   UNL     1       0.393   9.850  18.515  0.00  0.00    +0.000 A 
ENDBRANCH   1  17
BRANCH   7  18
ATOM     18  C   UNL     1       1.711   3.427  21.055  0.00  0.00    +0.000 C 
ATOM     19  N   UNL     1       0.530   2.977  20.551  0.00  0.00    +0.000 N 
ATOM     20  O   UNL     1       2.024   3.123  22.206  0.00  0.00    +0.000 OA
ATOM     21  H   UNL     1       0.189   3.203  19.629  0.00  0.00    +0.000 HD
ATOM     22  H   UNL     1      -0.050   2.416  21.159  0.00  0.00    +0.000 HD
ENDBRANCH   7  18
TORSDOF 2
ENDMDL
MODEL 9
REMARK VINA RESULT:      -6.1      2.266      3.687
REMARK  Name = 
REMARK  3 active torsions:
REMARK  status: ('A' for Active; 'I' for Inactive)
REMARK    1  A    between atoms: C_1  and  C_2
REMARK    2  A    between atoms: C_6  and  C_7
REMARK    3  A    between atoms: C_13  and  C_14
REMARK                            x       y       z     vdW  Elec       q    Type
REMARK                         _______ _______ _______ _____ _____    ______ ____
ROOT
ATOM      1  C   UNL     1       3.870   4.683  19.011  0.00  0.00    +0.000 C 
ATOM      2  O   UNL     1       4.196   5.647  19.707  0.00  0.00    +0.000 OA
ATOM      3  N   UNL     1       4.755   4.192  18.042  0.00  0.00    +0.000 N 
ATOM      4  C   UNL     1       4.658   2.908  17.339  0.00  0.00    +0.000 C 
ATOM      5  C   UNL     1       4.704   3.127  15.829  0.00  0.00    +0.000 C 
ATOM      6  N   UNL     1       5.777   4.042  15.474  0.00  0.00    +0.000 N 
ATOM      7  C   UNL     1       6.305   4.273  14.222  0.00  0.00    +0.000 A 
ATOM      8  C   UNL     1       7.284   5.219  14.465  0.00  0.00    +0.000 A 
ATOM      9  N   UNL     1       7.340   5.571  15.789  0.00  0.00    +0.000 NA
ATOM     10  C   UNL     1       6.397   4.870  16.381  0.00  0.00    +0.000 A 
ATOM     11  C   UNL     1       6.023   4.894  17.835  0.00  0.00    +0.000 C 
ENDROOT
BRANCH   1  17
ATOM     12  C   UNL     1       2.612   3.292  21.677  0.00  0.00    +0.000 C 
ATOM     13  C   UNL     1       2.020   3.418  20.321  0.00  0.00    +0.000 A 
ATOM     14  C   UNL     1       0.760   2.903  19.903  0.00  0.00    +0.000 A 
ATOM     15  C   UNL     1       0.598   3.283  18.596  0.00  0.00    +0.000 A 
ATOM     16  O   UNL     1       1.669   3.996  18.177  0.00  0.00    +0.000 OA
ATOM     17  C   UNL     1       2.581   4.026  19.200  0.00  0.00    +0.000 A 
ENDBRANCH   1  17
BRANCH   7  18
ATOM     18  C   UNL     1       5.879   3.640  13.001  0.00  0.00    +0.000 C 
ATOM     19  N   UNL     1       6.818   2.927  12.323  0.00  0.00    +0.000 N 
ATOM     20  O   UNL     1       4.738   3.712  12.545  0.00  0.00    +0.000 OA
ATOM     21  H   UNL     1       7.780   2.841  12.614  0.00  0.00    +0.000 HD
ATOM     22  H   UNL     1       6.534   2.493  11.455  0.00  0.00    +0.000 HD
ENDBRANCH   7  18
TORSDOF 2
ENDMDL
