MODEL 1
REMARK VINA RESULT:      -8.2      0.000      0.000
REMARK  Name = 
REMARK  8 active torsions:
REMARK  status: ('A' for Active; 'I' for Inactive)
REMARK    1  A    between atoms: C_2  and  C_3
REMARK    2  A    between atoms: C_3  and  N_4
REMARK    3  A    between atoms: N_4  and  S_5
REMARK    4  A    between atoms: S_5  and  N_8
REMARK    5  A    between atoms: C_11  and  O_12
REMARK    6  A    between atoms: O_12  and  C_13
REMARK    7  A    between atoms: C_16  and  N_17
REMARK    8  A    between atoms: N_26  and  O_27
REMARK                            x       y       z     vdW  Elec       q    Type
REMARK                         _______ _______ _______ _____ _____    ______ ____
ROOT
ATOM      1  N   UNL     1       5.728   4.690  17.240  0.00  0.00    +0.000 NA
ATOM      2  C   UNL     1       5.709   5.672  18.349  0.00  0.00    +0.000 C 
ATOM      3  C   UNL     1       4.644   5.290  19.373  0.00  0.00    +0.000 C 
ATOM      4  C   UNL     1       3.273   5.141  18.714  0.00  0.00    +0.000 C 
ATOM      5  C   UNL     1       3.353   4.095  17.606  0.00  0.00    +0.000 C 
ATOM      6  C   UNL     1       4.418   4.453  16.585  0.00  0.00    +0.000 C 
ENDROOT
BRANCH   1   7
ATOM      7  S   UNL     1       7.066   4.718  16.220  0.00  0.00    +0.000 S 
ATOM      8  O   UNL     1       8.166   4.073  16.892  0.00  0.00    +0.000 OA
ATOM      9  O   UNL     1       7.190   6.023  15.619  0.00  0.00    +0.000 OA
BRANCH   7  10
ATOM     10  N   UNL     1       6.516   3.667  15.019  0.00  0.00    +0.000 NA
ATOM     11  H   UNL     1       7.136   2.864  14.955  0.00  0.00    +0.000 HD
BRANCH  10  12
ATOM     12  C   UNL     1       6.435   4.335  13.686  0.00  0.00    +0.000 C 
BRANCH  12  14
ATOM     13  O   UNL     1       4.627   3.591  12.261  0.00  0.00    +0.000 OA
ATOM     14  C   UNL     1       5.784   3.443  12.648  0.00  0.00    +0.000 C 
ATOM     15  N   UNL     1       6.579   2.427  12.184  0.00  0.00    +0.000 N 
ATOM     16  H   UNL     1       7.492   2.209  12.573  0.00  0.00    +0.000 HD
BRANCH  15  17
ATOM     17  O   UNL     1       5.999   1.525  11.269  0.00  0.00    +0.000 OA
ATOM     18  H   UNL     1       6.116   1.986  10.412  0.00  0.00    +0.000 HD
ENDBRANCH  15  17
ENDBRANCH  12  14
ENDBRANCH  10  12
ENDBRANCH   7  10
ENDBRANCH   1   7
BRANCH   4  19
ATOM     19  O   UNL     1       2.856   6.387  18.127  0.00  0.00    +0.000 OA
BRANCH  19  20
ATOM     20  C   UNL     1       2.230   7.292  18.940  0.00  0.00    +0.000 A 
ATOM     21  C   UNL     1       1.941   8.536  18.373  0.00  0.00    +0.000 A 
ATOM     22  C   UNL     1       1.309   9.539  19.125  0.00  0.00    +0.000 A 
ATOM     23  C   UNL     1       0.953   9.297  20.460  0.00  0.00    +0.000 A 
ATOM     24  C   UNL     1       1.214   8.036  21.007  0.00  0.00    +0.000 A 
ATOM     25  C   UNL     1       1.837   7.043  20.249  0.00  0.00    +0.000 A 
BRANCH  23  26
ATOM     26  N   UNL     1       0.338  10.298  21.262  0.00  0.00    +0.000 N 
ATOM     27  C   UNL     1      -0.523  10.121  22.325  0.00  0.00    +0.000 A 
ATOM     28  C   UNL     1      -0.841  11.382  22.774  0.00  0.00    +0.000 A 
ATOM     29  N   UNL     1      -0.218  12.336  22.026  0.00  0.00    +0.000 NA
ATOM     30  C   UNL     1       0.475  11.667  21.132  0.00  0.00    +0.000 A 
ENDBRANCH  23  26
ENDBRANCH  19  20
ENDBRANCH   4  19
TORSDOF 8
ENDMDL
MODEL 2
REMARK VINA RESULT:      -8.0      0.706      1.296
REMARK  Name = 
REMARK  8 active torsions:
REMARK  status: ('A' for Active; 'I' for Inactive)
REMARK    1  A    between atoms: C_2  and  C_3
REMARK    2  A    between atoms: C_3  and  N_4
REMARK    3  A    between atoms: N_4  and  S_5
REMARK    4  A    between atoms: S_5  and  N_8
REMARK    5  A    between atoms: C_11  and  O_12
REMARK    6  A    between atoms: O_12  and  C_13
REMARK    7  A    between atoms: C_16  and  N_17
REMARK    8  A    between atoms: N_26  and  O_27
REMARK                            x       y       z     vdW  Elec       q    Type
REMARK                         _______ _______ _______ _____ _____    ______ ____
ROOT
ATOM      1  N   UNL     1       5.740   4.705  17.359  0.00  0.00    +0.000 NA
ATOM      2  C   UNL     1       5.644   5.791  18.362  0.00  0.00    +0.000 C 
ATOM      3  C   UNL     1       4.617   5.430  19.431  0.00  0.00    +0.000 C 
ATOM      4  C   UNL     1       3.261   5.103  18.807  0.00  0.00    +0.000 C 
ATOM      5  C   UNL     1       3.423   3.959  17.811  0.00  0.00    +0.000 C 
ATOM      6  C   UNL     1       4.452   4.296  16.746  0.00  0.00    +0.000 C 
ENDROOT
BRANCH   1   7
ATOM      7  S   UNL     1       7.068   4.738  16.326  0.00  0.00    +0.000 S 
ATOM      8  O   UNL     1       8.181   4.111  16.994  0.00  0.00    +0.000 OA
ATOM      9  O   UNL     1       7.172   6.038  15.710  0.00  0.00    +0.000 OA
BRANCH   7  10
ATOM     10  N   UNL     1       6.519   3.668  15.141  0.00  0.00    +0.000 NA
ATOM     11  H   UNL     1       7.263   3.023  14.888  0.00  0.00    +0.000 HD
BRANCH  10  12
ATOM     12  C   UNL     1       6.047   4.383  13.918  0.00  0.00    +0.000 C 
BRANCH  12  14
ATOM     13  O   UNL     1       7.236   4.157  11.823  0.00  0.00    +0.000 OA
ATOM     14  C   UNL     1       6.469   3.667  12.650  0.00  0.00    +0.000 C 
ATOM     15  N   UNL     1       5.906   2.430  12.473  0.00  0.00    +0.000 N 
ATOM     16  H   UNL     1       5.180   2.055  13.077  0.00  0.00    +0.000 HD
BRANCH  15  17
ATOM     17  O   UNL     1       6.210   1.752  11.276  0.00  0.00    +0.000 OA
ATOM     18  H   UNL     1       5.423   1.936  10.720  0.00  0.00    +0.000 HD
ENDBRANCH  15  17
ENDBRANCH  12  14
ENDBRANCH  10  12
ENDBRANCH   7  10
ENDBRANCH   1   7
BRANCH   4  19
ATOM     19  O   UNL     1       2.741   6.244  18.102  0.00  0.00    +0.000 OA
BRANCH  19  20
ATOM     20  C   UNL     1       2.169   7.241  18.843  0.00  0.00    +0.000 A 
ATOM     21  C   UNL     1       1.875   6.932  20.174  0.00  0.00    +0.000 A 
ATOM     22  C   UNL     1       1.279   7.883  21.017  0.00  0.00    +0.000 A 
ATOM     23  C   UNL     1       0.977   9.163  20.531  0.00  0.00    +0.000 A 
ATOM     24  C   UNL     1       1.308   9.474  19.207  0.00  0.00    +0.000 A 
ATOM     25  C   UNL     1       1.907   8.524  18.378  0.00  0.00    +0.000 A 
BRANCH  23  26
ATOM     26  N   UNL     1       0.346  10.143  21.347  0.00  0.00    +0.000 N 
ATOM     27  C   UNL     1       0.067  11.455  21.030  0.00  0.00    +0.000 A 
ATOM     28  C   UNL     1      -0.548  11.993  22.138  0.00  0.00    +0.000 A 
ATOM     29  N   UNL     1      -0.656  11.067  23.132  0.00  0.00    +0.000 NA
ATOM     30  C   UNL     1      -0.114   9.976  22.639  0.00  0.00    +0.000 A 
ENDBRANCH  23  26
ENDBRANCH  19  20
ENDBRANCH   4  19
TORSDOF 8
ENDMDL
MODEL 3
REMARK VINA RESULT:      -7.9      1.888      2.457
REMARK  Name = 
REMARK  8 active torsions:
REMARK  status: ('A' for Active; 'I' for Inactive)
REMARK    1  A    between atoms: C_2  and  C_3
REMARK    2  A    between atoms: C_3  and  N_4
REMARK    3  A    between atoms: N_4  and  S_5
REMARK    4  A    between atoms: S_5  and  N_8
REMARK    5  A    between atoms: C_11  and  O_12
REMARK    6  A    between atoms: O_12  and  C_13
REMARK    7  A    between atoms: C_16  and  N_17
REMARK    8  A    between atoms: N_26  and  O_27
REMARK                            x       y       z     vdW  Elec       q    Type
REMARK                         _______ _______ _______ _____ _____    ______ ____
ROOT
ATOM      1  N   UNL     1       5.733   5.228  17.990  0.00  0.00    +0.000 NA
ATOM      2  C   UNL     1       5.242   4.611  19.244  0.00  0.00    +0.000 C 
ATOM      3  C   UNL     1       3.762   4.262  19.114  0.00  0.00    +0.000 C 
ATOM      4  C   UNL     1       2.938   5.486  18.716  0.00  0.00    +0.000 C 
ATOM      5  C   UNL     1       3.473   6.052  17.404  0.00  0.00    +0.000 C 
ATOM      6  C   UNL     1       4.949   6.393  17.511  0.00  0.00    +0.000 C 
ENDROOT
BRANCH   1   7
ATOM      7  S   UNL     1       7.401   5.334  17.796  0.00  0.00    +0.000 S 
ATOM      8  O   UNL     1       8.032   4.882  19.011  0.00  0.00    +0.000 OA
ATOM      9  O   UNL     1       7.738   6.591  17.175  0.00  0.00    +0.000 OA
BRANCH   7  10
ATOM     10  N   UNL     1       7.617   4.130  16.632  0.00  0.00    +0.000 NA
ATOM     11  H   UNL     1       8.468   4.311  16.105  0.00  0.00    +0.000 HD
BRANCH  10  12
ATOM     12  C   UNL     1       6.461   4.049  15.691  0.00  0.00    +0.000 C 
BRANCH  12  14
ATOM     13  O   UNL     1       6.456   3.811  13.283  0.00  0.00    +0.000 OA
ATOM     14  C   UNL     1       6.860   4.414  14.275  0.00  0.00    +0.000 C 
ATOM     15  N   UNL     1       7.739   5.462  14.178  0.00  0.00    +0.000 N 
ATOM     16  H   UNL     1       8.181   5.897  14.983  0.00  0.00    +0.000 HD
BRANCH  15  17
ATOM     17  O   UNL     1       8.198   5.797  12.888  0.00  0.00    +0.000 OA
ATOM     18  H   UNL     1       9.061   6.223  13.073  0.00  0.00    +0.000 HD
ENDBRANCH  15  17
ENDBRANCH  12  14
ENDBRANCH  10  12
ENDBRANCH   7  10
ENDBRANCH   1   7
BRANCH   4  19
ATOM     19  O   UNL     1       3.036   6.510  19.721  0.00  0.00    +0.000 OA
BRANCH  19  20
ATOM     20  C   UNL     1       2.233   7.609  19.586  0.00  0.00    +0.000 A 
ATOM     21  C   UNL     1       1.470   7.959  20.703  0.00  0.00    +0.000 A 
ATOM     22  C   UNL     1       0.607   9.066  20.665  0.00  0.00    +0.000 A 
ATOM     23  C   UNL     1       0.507   9.840  19.501  0.00  0.00    +0.000 A 
ATOM     24  C   UNL     1       1.302   9.503  18.400  0.00  0.00    +0.000 A 
ATOM     25  C   UNL     1       2.162   8.405  18.449  0.00  0.00    +0.000 A 
BRANCH  23  26
ATOM     26  N   UNL     1      -0.378  10.950  19.415  0.00  0.00    +0.000 N 
ATOM     27  C   UNL     1      -0.104  12.275  19.682  0.00  0.00    +0.000 A 
ATOM     28  C   UNL     1      -1.274  12.961  19.452  0.00  0.00    +0.000 A 
ATOM     29  N   UNL     1      -2.267  12.114  19.061  0.00  0.00    +0.000 NA
ATOM     30  C   UNL     1      -1.710  10.924  19.048  0.00  0.00    +0.000 A 
ENDBRANCH  23  26
ENDBRANCH  19  20
ENDBRANCH   4  19
TORSDOF 8
ENDMDL
MODEL 4
REMARK VINA RESULT:      -7.8      1.890      2.395
REMARK  Name = 
REMARK  8 active torsions:
REMARK  status: ('A' for Active; 'I' for Inactive)
REMARK    1  A    between atoms: C_2  and  C_3
REMARK    2  A    between atoms: C_3  and  N_4
REMARK    3  A    between atoms: N_4  and  S_5
REMARK    4  A    between atoms: S_5  and  N_8
REMARK    5  A    between atoms: C_11  and  O_12
REMARK    6  A    between atoms: O_12  and  C_13
REMARK    7  A    between atoms: C_16  and  N_17
REMARK    8  A    between atoms: N_26  and  O_27
REMARK                            x       y       z     vdW  Elec       q    Type
REMARK                         _______ _______ _______ _____ _____    ______ ____
ROOT
ATOM      1  N   UNL     1       5.680   5.671  18.021  0.00  0.00    +0.000 NA
ATOM      2  C   UNL     1       4.957   4.969  19.106  0.00  0.00    +0.000 C 
ATOM      3  C   UNL     1       3.477   4.844  18.756  0.00  0.00    +0.000 C 
ATOM      4  C   UNL     1       2.864   6.209  18.448  0.00  0.00    +0.000 C 
ATOM      5  C   UNL     1       3.632   6.863  17.304  0.00  0.00    +0.000 C 
ATOM      6  C   UNL     1       5.110   6.984  17.629  0.00  0.00    +0.000 C 
ENDROOT
BRANCH   1   7
ATOM      7  S   UNL     1       7.361   5.574  18.038  0.00  0.00    +0.000 S 
ATOM      8  O   UNL     1       7.777   5.097  19.333  0.00  0.00    +0.000 OA
ATOM      9  O   UNL     1       7.920   6.760  17.437  0.00  0.00    +0.000 OA
BRANCH   7  10
ATOM     10  N   UNL     1       7.572   4.312  16.938  0.00  0.00    +0.000 NA
ATOM     11  H   UNL     1       8.445   4.439  16.432  0.00  0.00    +0.000 HD
BRANCH  10  12
ATOM     12  C   UNL     1       6.445   4.225  15.963  0.00  0.00    +0.000 C 
BRANCH  12  14
ATOM     13  O   UNL     1       6.470   3.952  13.559  0.00  0.00    +0.000 OA
ATOM     14  C   UNL     1       6.896   4.540  14.551  0.00  0.00    +0.000 C 
ATOM     15  N   UNL     1       7.847   5.523  14.457  0.00  0.00    +0.000 N 
ATOM     16  H   UNL     1       8.302   5.939  15.265  0.00  0.00    +0.000 HD
BRANCH  15  17
ATOM     17  O   UNL     1       8.352   5.807  13.173  0.00  0.00    +0.000 OA
ATOM     18  H   UNL     1       8.389   6.787  13.169  0.00  0.00    +0.000 HD
ENDBRANCH  15  17
ENDBRANCH  12  14
ENDBRANCH  10  12
ENDBRANCH   7  10
ENDBRANCH   1   7
BRANCH   4  19
ATOM     19  O   UNL     1       2.947   7.072  19.597  0.00  0.00    +0.000 OA
BRANCH  19  20
ATOM     20  C   UNL     1       1.957   8.000  19.765  0.00  0.00    +0.000 A 
ATOM     21  C   UNL     1       1.708   8.843  18.679  0.00  0.00    +0.000 A 
ATOM     22  C   UNL     1       0.718   9.835  18.753  0.00  0.00    +0.000 A 
ATOM     23  C   UNL     1      -0.040   9.987  19.923  0.00  0.00    +0.000 A 
ATOM     24  C   UNL     1       0.193   9.115  20.992  0.00  0.00    +0.000 A 
ATOM     25  C   UNL     1       1.174   8.126  20.907  0.00  0.00    +0.000 A 
BRANCH  23  26
ATOM     26  N   UNL     1      -1.031  11.001  20.045  0.00  0.00    +0.000 N 
ATOM     27  C   UNL     1      -1.917  11.439  19.084  0.00  0.00    +0.000 A 
ATOM     28  C   UNL     1      -2.670  12.425  19.680  0.00  0.00    +0.000 A 
ATOM     29  N   UNL     1      -2.281  12.621  20.972  0.00  0.00    +0.000 NA
ATOM     30  C   UNL     1      -1.303  11.765  21.164  0.00  0.00    +0.000 A 
ENDBRANCH  23  26
ENDBRANCH  19  20
ENDBRANCH   4  19
TORSDOF 8
ENDMDL
MODEL 5
REMARK VINA RESULT:      -7.8      1.736      2.634
REMARK  Name = 
REMARK  8 active torsions:
REMARK  status: ('A' for Active; 'I' for Inactive)
REMARK    1  A    between atoms: C_2  and  C_3
REMARK    2  A    between atoms: C_3  and  N_4
REMARK    3  A    between atoms: N_4  and  S_5
REMARK    4  A    between atoms: S_5  and  N_8
REMARK    5  A    between atoms: C_11  and  O_12
REMARK    6  A    between atoms: O_12  and  C_13
REMARK    7  A    between atoms: C_16  and  N_17
REMARK    8  A    between atoms: N_26  and  O_27
REMARK                            x       y       z     vdW  Elec       q    Type
REMARK                         _______ _______ _______ _____ _____    ______ ____
ROOT
ATOM      1  N   UNL     1       4.746   5.660  17.911  0.00  0.00    +0.000 NA
ATOM      2  C   UNL     1       3.825   5.038  18.891  0.00  0.00    +0.000 C 
ATOM      3  C   UNL     1       2.379   5.374  18.540  0.00  0.00    +0.000 C 
ATOM      4  C   UNL     1       2.172   6.884  18.437  0.00  0.00    +0.000 C 
ATOM      5  C   UNL     1       3.124   7.457  17.391  0.00  0.00    +0.000 C 
ATOM      6  C   UNL     1       4.568   7.121  17.717  0.00  0.00    +0.000 C 
ENDROOT
BRANCH   1   7
ATOM      7  S   UNL     1       6.335   5.104  17.898  0.00  0.00    +0.000 S 
ATOM      8  O   UNL     1       6.607   4.473  19.165  0.00  0.00    +0.000 OA
ATOM      9  O   UNL     1       7.198   6.116  17.341  0.00  0.00    +0.000 OA
BRANCH   7  10
ATOM     10  N   UNL     1       6.188   3.883  16.742  0.00  0.00    +0.000 NA
ATOM     11  H   UNL     1       7.109   3.530  16.496  0.00  0.00    +0.000 HD
BRANCH  10  12
ATOM     12  C   UNL     1       5.496   4.362  15.508  0.00  0.00    +0.000 C 
BRANCH  12  14
ATOM     13  O   UNL     1       6.440   3.740  13.370  0.00  0.00    +0.000 OA
ATOM     14  C   UNL     1       6.454   4.493  14.341  0.00  0.00    +0.000 C 
ATOM     15  N   UNL     1       7.369   5.507  14.459  0.00  0.00    +0.000 N 
ATOM     16  H   UNL     1       7.480   6.064  15.301  0.00  0.00    +0.000 HD
BRANCH  15  17
ATOM     17  O   UNL     1       8.328   5.628  13.433  0.00  0.00    +0.000 OA
ATOM     18  H   UNL     1       7.776   5.626  12.623  0.00  0.00    +0.000 HD
ENDBRANCH  15  17
ENDBRANCH  12  14
ENDBRANCH  10  12
ENDBRANCH   7  10
ENDBRANCH   1   7
BRANCH   4  19
ATOM     19  O   UNL     1       2.452   7.521  19.697  0.00  0.00    +0.000 OA
BRANCH  19  20
ATOM     20  C   UNL     1       1.566   8.463  20.141  0.00  0.00    +0.000 A 
ATOM     21  C   UNL     1       1.178   8.364  21.480  0.00  0.00    +0.000 A 
ATOM     22  C   UNL     1       0.265   9.277  22.033  0.00  0.00    +0.000 A 
ATOM     23  C   UNL     1      -0.263  10.308  21.243  0.00  0.00    +0.000 A 
ATOM     24  C   UNL     1       0.160  10.420  19.913  0.00  0.00    +0.000 A 
ATOM     25  C   UNL     1       1.072   9.512  19.375  0.00  0.00    +0.000 A 
BRANCH  23  26
ATOM     26  N   UNL     1      -1.212  11.234  21.759  0.00  0.00    +0.000 N 
ATOM     27  C   UNL     1      -1.935  12.181  21.065  0.00  0.00    +0.000 A 
ATOM     28  C   UNL     1      -2.715  12.825  21.997  0.00  0.00    +0.000 A 
ATOM     29  N   UNL     1      -2.501  12.319  23.244  0.00  0.00    +0.000 NA
ATOM     30  C   UNL     1      -1.601  11.376  23.077  0.00  0.00    +0.000 A 
ENDBRANCH  23  26
ENDBRANCH  19  20
ENDBRANCH   4  19
TORSDOF 8
ENDMDL
MODEL 6
REMARK VINA RESULT:      -7.5      1.286      1.714
REMARK  Name = 
REMARK  8 active torsions:
REMARK  status: ('A' for Active; 'I' for Inactive)
REMARK    1  A    between atoms: C_2  and  C_3
REMARK    2  A    between atoms: C_3  and  N_4
REMARK    3  A    between atoms: N_4  and  S_5
REMARK    4  A    between atoms: S_5  and  N_8
REMARK    5  A    between atoms: C_11  and  O_12
REMARK    6  A    between atoms: O_12  and  C_13
REMARK    7  A    between atoms: C_16  and  N_17
REMARK    8  A    between atoms: N_26  and  O_27
REMARK                            x       y       z     vdW  Elec       q    Type
REMARK                         _______ _______ _______ _____ _____    ______ ____
ROOT
ATOM      1  N   UNL     1       5.483   4.657  17.181  0.00  0.00    +0.000 NA
ATOM      2  C   UNL     1       5.694   4.485  18.637  0.00  0.00    +0.000 C 
ATOM      3  C   UNL     1       4.389   4.071  19.312  0.00  0.00    +0.000 C 
ATOM      4  C   UNL     1       3.269   5.066  19.007  0.00  0.00    +0.000 C 
ATOM      5  C   UNL     1       3.082   5.171  17.497  0.00  0.00    +0.000 C 
ATOM      6  C   UNL     1       4.374   5.570  16.807  0.00  0.00    +0.000 C 
ENDROOT
BRANCH   1   7
ATOM      7  S   UNL     1       6.860   4.739  16.216  0.00  0.00    +0.000 S 
ATOM      8  O   UNL     1       7.962   4.162  16.945  0.00  0.00    +0.000 OA
ATOM      9  O   UNL     1       6.941   6.039  15.597  0.00  0.00    +0.000 OA
BRANCH   7  10
ATOM     10  N   UNL     1       6.416   3.641  15.014  0.00  0.00    +0.000 NA
ATOM     11  H   UNL     1       7.016   2.821  15.057  0.00  0.00    +0.000 HD
BRANCH  10  12
ATOM     12  C   UNL     1       6.499   4.242  13.649  0.00  0.00    +0.000 C 
BRANCH  12  14
ATOM     13  O   UNL     1       4.669   3.461  12.274  0.00  0.00    +0.000 OA
ATOM     14  C   UNL     1       5.849   3.359  12.603  0.00  0.00    +0.000 C 
ATOM     15  N   UNL     1       6.672   2.405  12.063  0.00  0.00    +0.000 N 
ATOM     16  H   UNL     1       7.612   2.221  12.403  0.00  0.00    +0.000 HD
BRANCH  15  17
ATOM     17  O   UNL     1       6.098   1.511  11.137  0.00  0.00    +0.000 OA
ATOM     18  H   UNL     1       6.119   0.659  11.622  0.00  0.00    +0.000 HD
ENDBRANCH  15  17
ENDBRANCH  12  14
ENDBRANCH  10  12
ENDBRANCH   7  10
ENDBRANCH   1   7
BRANCH   4  19
ATOM     19  O   UNL     1       3.601   6.371  19.512  0.00  0.00    +0.000 OA
BRANCH  19  20
ATOM     20  C   UNL     1       2.646   7.346  19.424  0.00  0.00    +0.000 A 
ATOM     21  C   UNL     1       1.870   7.558  20.566  0.00  0.00    +0.000 A 
ATOM     22  C   UNL     1       0.856   8.530  20.576  0.00  0.00    +0.000 A 
ATOM     23  C   UNL     1       0.617   9.307  19.434  0.00  0.00    +0.000 A 
ATOM     24  C   UNL     1       1.423   9.112  18.307  0.00  0.00    +0.000 A 
ATOM     25  C   UNL     1       2.433   8.149  18.309  0.00  0.00    +0.000 A 
BRANCH  23  26
ATOM     26  N   UNL     1      -0.421  10.280  19.397  0.00  0.00    +0.000 N 
ATOM     27  C   UNL     1      -1.328  10.511  18.385  0.00  0.00    +0.000 A 
ATOM     28  C   UNL     1      -2.126  11.546  18.816  0.00  0.00    +0.000 A 
ATOM     29  N   UNL     1      -1.744  11.972  20.053  0.00  0.00    +0.000 NA
ATOM     30  C   UNL     1      -0.727  11.205  20.376  0.00  0.00    +0.000 A 
ENDBRANCH  23  26
ENDBRANCH  19  20
ENDBRANCH   4  19
TORSDOF 8
ENDMDL
MODEL 7
REMARK VINA RESULT:      -7.5      1.751      2.227
REMARK  Name = 
REMARK  8 active torsions:
REMARK  status: ('A' for Active; 'I' for Inactive)
REMARK    1  A    between atoms: C_2  and  C_3
REMARK    2  A    between atoms: C_3  and  N_4
REMARK    3  A    between atoms: N_4  and  S_5
REMARK    4  A    between atoms: S_5  and  N_8
REMARK    5  A    between atoms: C_11  and  O_12
REMARK    6  A    between atoms: O_12  and  C_13
REMARK    7  A    between atoms: C_16  and  N_17
REMARK    8  A    between atoms: N_26  and  O_27
REMARK                            x       y       z     vdW  Elec       q    Type
REMARK                         _______ _______ _______ _____ _____    ______ ____
ROOT
ATOM      1  N   UNL     1       4.708   5.138  18.148  0.00  0.00    +0.000 NA
ATOM      2  C   UNL     1       4.515   4.928  19.602  0.00  0.00    +0.000 C 
ATOM      3  C   UNL     1       3.033   4.750  19.916  0.00  0.00    +0.000 C 
ATOM      4  C   UNL     1       2.211   5.927  19.391  0.00  0.00    +0.000 C 
ATOM      5  C   UNL     1       2.428   6.067  17.888  0.00  0.00    +0.000 C 
ATOM      6  C   UNL     1       3.900   6.233  17.555  0.00  0.00    +0.000 C 
ENDROOT
BRANCH   1   7
ATOM      7  S   UNL     1       6.275   4.976  17.556  0.00  0.00    +0.000 S 
ATOM      8  O   UNL     1       7.092   4.380  18.583  0.00  0.00    +0.000 OA
ATOM      9  O   UNL     1       6.660   6.185  16.870  0.00  0.00    +0.000 OA
BRANCH   7  10
ATOM     10  N   UNL     1       6.001   3.800  16.376  0.00  0.00    +0.000 NA
ATOM     11  H   UNL     1       6.867   3.306  16.176  0.00  0.00    +0.000 HD
BRANCH  10  12
ATOM     12  C   UNL     1       5.466   4.389  15.113  0.00  0.00    +0.000 C 
BRANCH  12  14
ATOM     13  O   UNL     1       6.595   3.679  13.095  0.00  0.00    +0.000 OA
ATOM     14  C   UNL     1       6.528   4.469  14.034  0.00  0.00    +0.000 C 
ATOM     15  N   UNL     1       7.437   5.481  14.198  0.00  0.00    +0.000 N 
ATOM     16  H   UNL     1       7.477   6.069  15.025  0.00  0.00    +0.000 HD
BRANCH  15  17
ATOM     17  O   UNL     1       8.488   5.557  13.261  0.00  0.00    +0.000 OA
ATOM     18  H   UNL     1       8.717   6.510  13.273  0.00  0.00    +0.000 HD
ENDBRANCH  15  17
ENDBRANCH  12  14
ENDBRANCH  10  12
ENDBRANCH   7  10
ENDBRANCH   1   7
BRANCH   4  19
ATOM     19  O   UNL     1       2.624   7.152  20.022  0.00  0.00    +0.000 OA
BRANCH  19  20
ATOM     20  C   UNL     1       1.676   8.120  20.207  0.00  0.00    +0.000 A 
ATOM     21  C   UNL     1       1.445   8.975  19.125  0.00  0.00    +0.000 A 
ATOM     22  C   UNL     1       0.498  10.008  19.215  0.00  0.00    +0.000 A 
ATOM     23  C   UNL     1      -0.234  10.189  20.397  0.00  0.00    +0.000 A 
ATOM     24  C   UNL     1      -0.022   9.306  21.461  0.00  0.00    +0.000 A 
ATOM     25  C   UNL     1       0.917   8.278  21.360  0.00  0.00    +0.000 A 
BRANCH  23  26
ATOM     26  N   UNL     1      -1.180  11.243  20.536  0.00  0.00    +0.000 N 
ATOM     27  C   UNL     1      -1.646  11.814  21.701  0.00  0.00    +0.000 A 
ATOM     28  C   UNL     1      -2.539  12.788  21.319  0.00  0.00    +0.000 A 
ATOM     29  N   UNL     1      -2.652  12.840  19.962  0.00  0.00    +0.000 NA
ATOM     30  C   UNL     1      -1.836  11.909  19.519  0.00  0.00    +0.000 A 
ENDBRANCH  23  26
ENDBRANCH  19  20
ENDBRANCH   4  19
TORSDOF 8
ENDMDL
MODEL 8
REMARK VINA RESULT:      -7.4      1.691      2.022
REMARK  Name = 
REMARK  8 active torsions:
REMARK  status: ('A' for Active; 'I' for Inactive)
REMARK    1  A    between atoms: C_2  and  C_3
REMARK    2  A    between atoms: C_3  and  N_4
REMARK    3  A    between atoms: N_4  and  S_5
REMARK    4  A    between atoms: S_5  and  N_8
REMARK    5  A    between atoms: C_11  and  O_12
REMARK    6  A    between atoms: O_12  and  C_13
REMARK    7  A    between atoms: C_16  and  N_17
REMARK    8  A    between atoms: N_26  and  O_27
REMARK                            x       y       z     vdW  Elec       q    Type
REMARK                         _______ _______ _______ _____ _____    ______ ____
ROOT
ATOM      1  N   UNL     1       5.072   4.927  17.796  0.00  0.00    +0.000 NA
ATOM      2  C   UNL     1       5.102   4.801  19.272  0.00  0.00    +0.000 C 
ATOM      3  C   UNL     1       3.707   4.482  19.801  0.00  0.00    +0.000 C 
ATOM      4  C   UNL     1       2.687   5.519  19.334  0.00  0.00    +0.000 C 
ATOM      5  C   UNL     1       2.683   5.575  17.809  0.00  0.00    +0.000 C 
ATOM      6  C   UNL     1       4.066   5.880  17.264  0.00  0.00    +0.000 C 
ENDROOT
BRANCH   1   7
ATOM      7  S   UNL     1       6.554   4.899  16.998  0.00  0.00    +0.000 S 
ATOM      8  O   UNL     1       7.539   4.334  17.886  0.00  0.00    +0.000 OA
ATOM      9  O   UNL     1       6.760   6.154  16.317  0.00  0.00    +0.000 OA
BRANCH   7  10
ATOM     10  N   UNL     1       6.207   3.743  15.819  0.00  0.00    +0.000 NA
ATOM     11  H   UNL     1       7.044   3.204  15.610  0.00  0.00    +0.000 HD
BRANCH  10  12
ATOM     12  C   UNL     1       5.693   4.363  14.561  0.00  0.00    +0.000 C 
BRANCH  12  14
ATOM     13  O   UNL     1       7.461   4.719  12.949  0.00  0.00    +0.000 OA
ATOM     14  C   UNL     1       6.551   4.004  13.365  0.00  0.00    +0.000 C 
ATOM     15  N   UNL     1       6.220   2.824  12.752  0.00  0.00    +0.000 N 
ATOM     16  H   UNL     1       5.400   2.277  13.000  0.00  0.00    +0.000 HD
BRANCH  15  17
ATOM     17  O   UNL     1       6.941   2.478  11.592  0.00  0.00    +0.000 OA
ATOM     18  H   UNL     1       7.101   1.518  11.718  0.00  0.00    +0.000 HD
ENDBRANCH  15  17
ENDBRANCH  12  14
ENDBRANCH  10  12
ENDBRANCH   7  10
ENDBRANCH   1   7
BRANCH   4  19
ATOM     19  O   UNL     1       3.030   6.825  19.832  0.00  0.00    +0.000 OA
BRANCH  19  20
ATOM     20  C   UNL     1       2.092   7.814  19.716  0.00  0.00    +0.000 A 
ATOM     21  C   UNL     1       1.327   8.077  20.855  0.00  0.00    +0.000 A 
ATOM     22  C   UNL     1       0.332   9.067  20.839  0.00  0.00    +0.000 A 
ATOM     23  C   UNL     1       0.098   9.810  19.673  0.00  0.00    +0.000 A 
ATOM     24  C   UNL     1       0.893   9.563  18.549  0.00  0.00    +0.000 A 
ATOM     25  C   UNL     1       1.885   8.582  18.576  0.00  0.00    +0.000 A 
BRANCH  23  26
ATOM     26  N   UNL     1      -0.922  10.799  19.610  0.00  0.00    +0.000 N 
ATOM     27  C   UNL     1      -1.181  11.808  20.513  0.00  0.00    +0.000 A 
ATOM     28  C   UNL     1      -2.258  12.502  20.013  0.00  0.00    +0.000 A 
ATOM     29  N   UNL     1      -2.684  11.959  18.838  0.00  0.00    +0.000 NA
ATOM     30  C   UNL     1      -1.876  10.946  18.620  0.00  0.00    +0.000 A 
ENDBRANCH  23  26
ENDBRANCH  19  20
ENDBRANCH   4  19
TORSDOF 8
ENDMDL
MODEL 9
REMARK VINA RESULT:      -7.4      1.797      2.342
REMARK  Name = 
REMARK  8 active torsions:
REMARK  status: ('A' for Active; 'I' for Inactive)
REMARK    1  A    between atoms: C_2  and  C_3
REMARK    2  A    between atoms: C_3  and  N_4
REMARK    3  A    between atoms: N_4  and  S_5
REMARK    4  A    between atoms: S_5  and  N_8
REMARK    5  A    between atoms: C_11  and  O_12
REMARK    6  A    between atoms: O_12  and  C_13
REMARK    7  A    between atoms: C_16  and  N_17
REMARK    8  A    between atoms: N_26  and  O_27
REMARK                            x       y       z     vdW  Elec       q    Type
REMARK                         _______ _______ _______ _____ _____    ______ ____
ROOT
ATOM      1  N   UNL     1       5.576   5.830  17.985  0.00  0.00    +0.000 NA
ATOM      2  C   UNL     1       4.947   5.144  19.137  0.00  0.00    +0.000 C 
ATOM      3  C   UNL     1       3.459   4.933  18.874  0.00  0.00    +0.000 C 
ATOM      4  C   UNL     1       2.764   6.253  18.542  0.00  0.00    +0.000 C 
ATOM      5  C   UNL     1       3.437   6.891  17.331  0.00  0.00    +0.000 C 
ATOM      6  C   UNL     1       4.922   7.096  17.570  0.00  0.00    +0.000 C 
ENDROOT
BRANCH   1   7
ATOM      7  S   UNL     1       7.258   5.814  17.914  0.00  0.00    +0.000 S 
ATOM      8  O   UNL     1       7.725   4.559  18.447  0.00  0.00    +0.000 OA
ATOM      9  O   UNL     1       7.774   7.082  18.367  0.00  0.00    +0.000 OA
BRANCH   7  10
ATOM     10  N   UNL     1       7.461   5.763  16.240  0.00  0.00    +0.000 NA
ATOM     11  H   UNL     1       6.938   6.521  15.807  0.00  0.00    +0.000 HD
BRANCH  10  12
ATOM     12  C   UNL     1       7.011   4.462  15.661  0.00  0.00    +0.000 C 
BRANCH  12  14
ATOM     13  O   UNL     1       7.469   5.406  13.481  0.00  0.00    +0.000 OA
ATOM     14  C   UNL     1       6.961   4.505  14.147  0.00  0.00    +0.000 C 
ATOM     15  N   UNL     1       6.276   3.471  13.564  0.00  0.00    +0.000 N 
ATOM     16  H   UNL     1       5.747   2.783  14.093  0.00  0.00    +0.000 HD
BRANCH  15  17
ATOM     17  O   UNL     1       6.139   3.501  12.162  0.00  0.00    +0.000 OA
ATOM     18  H   UNL     1       5.736   4.381  12.006  0.00  0.00    +0.000 HD
ENDBRANCH  15  17
ENDBRANCH  12  14
ENDBRANCH  10  12
ENDBRANCH   7  10
ENDBRANCH   1   7
BRANCH   4  19
ATOM     19  O   UNL     1       2.864   7.169  19.647  0.00  0.00    +0.000 OA
BRANCH  19  20
ATOM     20  C   UNL     1       1.927   8.161  19.735  0.00  0.00    +0.000 A 
ATOM     21  C   UNL     1       1.365   8.372  20.997  0.00  0.00    +0.000 A 
ATOM     22  C   UNL     1       0.387   9.361  21.192  0.00  0.00    +0.000 A 
ATOM     23  C   UNL     1      -0.032  10.156  20.116  0.00  0.00    +0.000 A 
ATOM     24  C   UNL     1       0.562   9.962  18.865  0.00  0.00    +0.000 A 
ATOM     25  C   UNL     1       1.538   8.981  18.682  0.00  0.00    +0.000 A 
BRANCH  23  26
ATOM     26  N   UNL     1      -1.042  11.147  20.268  0.00  0.00    +0.000 N 
ATOM     27  C   UNL     1      -1.819  11.722  19.285  0.00  0.00    +0.000 A 
ATOM     28  C   UNL     1      -2.645  12.617  19.925  0.00  0.00    +0.000 A 
ATOM     29  N   UNL     1      -2.406  12.626  21.267  0.00  0.00    +0.000 NA
ATOM     30  C   UNL     1      -1.447  11.746  21.446  0.00  0.00    +0.000 A 
ENDBRANCH  23  26
ENDBRANCH  19  20
ENDBRANCH   4  19
TORSDOF 8
ENDMDL
