MODEL 1
REMARK VINA RESULT:      -7.6      0.000      0.000
REMARK  Name = 
REMARK  11 active torsions:
REMARK  status: ('A' for Active; 'I' for Inactive)
REMARK    1  A    between atoms: C_1  and  C_2
REMARK    2  A    between atoms: C_2  and  C_3
REMARK    3  A    between atoms: C_3  and  C_4
REMARK    4  A    between atoms: C_4  and  C_5
REMARK    5  A    between atoms: C_5  and  N_6
REMARK    6  A    between atoms: N_8  and  C_9
REMARK    7  A    between atoms: N_18  and  C_19
REMARK    8  A    between atoms: C_19  and  C_20
REMARK    9  A    between atoms: C_20  and  C_21
REMARK   10  A    between atoms: C_21  and  C_22
REMARK   11  A    between atoms: C_22  and  C_24
REMARK                            x       y       z     vdW  Elec       q    Type
REMARK                         _______ _______ _______ _____ _____    ______ ____
ROOT
ATOM      1  N   UNL     1       5.678   4.214  14.324  0.00  0.00    +0.000 N 
ATOM      2  C   UNL     1       4.464   4.186  15.081  0.00  0.00    +0.000 C 
ATOM      3  N   UNL     1       4.839   4.685  16.399  0.00  0.00    +0.000 N 
ATOM      4  C   UNL     1       6.186   5.364  16.312  0.00  0.00    +0.000 C 
ATOM      5  C   UNL     1       7.280   4.840  17.242  0.00  0.00    +0.000 C 
ATOM      6  C   UNL     1       7.238   5.459  18.628  0.00  0.00    +0.000 C 
ATOM      7  N   UNL     1       7.114   6.922  18.641  0.00  0.00    +0.000 NA
ATOM      8  C   UNL     1       6.071   7.443  17.751  0.00  0.00    +0.000 C 
ATOM      9  C   UNL     1       6.077   6.887  16.343  0.00  0.00    +0.000 C 
ATOM     10  C   UNL     1       6.653   4.997  14.891  0.00  0.00    +0.000 C 
ATOM     11  O   UNL     1       7.714   5.308  14.367  0.00  0.00    +0.000 OA
ENDROOT
BRANCH   3  12
ATOM     12  C   UNL     1       4.338   4.063  17.535  0.00  0.00    +0.000 A 
ATOM     13  C   UNL     1       3.853   4.762  18.650  0.00  0.00    +0.000 A 
ATOM     14  C   UNL     1       3.326   4.105  19.777  0.00  0.00    +0.000 A 
ATOM     15  C   UNL     1       3.240   2.714  19.808  0.00  0.00    +0.000 A 
ATOM     16  C   UNL     1       3.734   1.995  18.740  0.00  0.00    +0.000 A 
ATOM     17  C   UNL     1       4.310   2.667  17.654  0.00  0.00    +0.000 A 
ENDBRANCH   3  12
BRANCH   1  18
ATOM     18  C   UNL     1       5.828   3.520  13.063  0.00  0.00    +0.000 C 
BRANCH  18  19
ATOM     19  C   UNL     1       4.481   3.297  12.363  0.00  0.00    +0.000 C 
BRANCH  19  20
ATOM     20  C   UNL     1       4.595   3.250  10.835  0.00  0.00    +0.000 C 
BRANCH  20  22
ATOM     21  C   UNL     1       2.831   4.493   9.525  0.00  0.00    +0.000 C 
ATOM     22  C   UNL     1       3.212   3.179  10.187  0.00  0.00    +0.000 C 
ENDBRANCH  20  22
ENDBRANCH  19  20
ENDBRANCH  18  19
ENDBRANCH   1  18
BRANCH   7  23
ATOM     23  C   UNL     1       8.416   7.576  18.464  0.00  0.00    +0.000 C 
BRANCH  23  24
ATOM     24  C   UNL     1       8.279   9.038  18.026  0.00  0.00    +0.000 C 
BRANCH  24  25
ATOM     25  C   UNL     1       9.089   9.974  18.927  0.00  0.00    +0.000 C 
BRANCH  25  26
ATOM     26  C   UNL     1       9.643  11.151  18.156  0.00  0.00    +0.000 C 
ATOM     27  O   UNL     1      10.712  11.112  17.554  0.00  0.00    +0.000 OA
BRANCH  26  28
ATOM     28  C   UNL     1       8.865  12.417  18.177  0.00  0.00    +0.000 A 
ATOM     29  C   UNL     1       9.276  13.414  19.072  0.00  0.00    +0.000 A 
ATOM     30  C   UNL     1       8.565  14.611  19.151  0.00  0.00    +0.000 A 
ATOM     31  C   UNL     1       7.467  14.814  18.326  0.00  0.00    +0.000 A 
ATOM     32  F   UNL     1       6.783  15.966  18.406  0.00  0.00    +0.000 F 
ATOM     33  C   UNL     1       7.061  13.840  17.421  0.00  0.00    +0.000 A 
ATOM     34  C   UNL     1       7.756  12.633  17.344  0.00  0.00    +0.000 A 
ENDBRANCH  26  28
ENDBRANCH  25  26
ENDBRANCH  24  25
ENDBRANCH  23  24
ENDBRANCH   7  23
TORSDOF 10
ENDMDL
MODEL 2
REMARK VINA RESULT:      -7.5      1.701      2.301
REMARK  Name = 
REMARK  11 active torsions:
REMARK  status: ('A' for Active; 'I' for Inactive)
REMARK    1  A    between atoms: C_1  and  C_2
REMARK    2  A    between atoms: C_2  and  C_3
REMARK    3  A    between atoms: C_3  and  C_4
REMARK    4  A    between atoms: C_4  and  C_5
REMARK    5  A    between atoms: C_5  and  N_6
REMARK    6  A    between atoms: N_8  and  C_9
REMARK    7  A    between atoms: N_18  and  C_19
REMARK    8  A    between atoms: C_19  and  C_20
REMARK    9  A    between atoms: C_20  and  C_21
REMARK   10  A    between atoms: C_21  and  C_22
REMARK   11  A    between atoms: C_22  and  C_24
REMARK                            x       y       z     vdW  Elec       q    Type
REMARK                         _______ _______ _______ _____ _____    ______ ____
ROOT
ATOM      1  N   UNL     1       6.025   4.127  14.019  0.00  0.00    +0.000 N 
ATOM      2  C   UNL     1       4.733   4.143  14.634  0.00  0.00    +0.000 C 
ATOM      3  N   UNL     1       4.970   4.661  15.977  0.00  0.00    +0.000 N 
ATOM      4  C   UNL     1       6.335   5.307  16.030  0.00  0.00    +0.000 C 
ATOM      5  C   UNL     1       7.304   4.777  17.087  0.00  0.00    +0.000 C 
ATOM      6  C   UNL     1       7.122   5.425  18.447  0.00  0.00    +0.000 C 
ATOM      7  N   UNL     1       7.035   6.891  18.419  0.00  0.00    +0.000 NA
ATOM      8  C   UNL     1       6.112   7.418  17.407  0.00  0.00    +0.000 C 
ATOM      9  C   UNL     1       6.263   6.832  16.020  0.00  0.00    +0.000 C 
ATOM     10  C   UNL     1       6.950   4.898  14.678  0.00  0.00    +0.000 C 
ATOM     11  O   UNL     1       8.071   5.173  14.271  0.00  0.00    +0.000 OA
ENDROOT
BRANCH   3  12
ATOM     12  C   UNL     1       4.328   4.075  17.059  0.00  0.00    +0.000 A 
ATOM     13  C   UNL     1       4.304   2.691  17.288  0.00  0.00    +0.000 A 
ATOM     14  C   UNL     1       3.667   2.127  18.409  0.00  0.00    +0.000 A 
ATOM     15  C   UNL     1       3.054   2.943  19.358  0.00  0.00    +0.000 A 
ATOM     16  C   UNL     1       3.035   4.306  19.149  0.00  0.00    +0.000 A 
ATOM     17  C   UNL     1       3.622   4.842  17.996  0.00  0.00    +0.000 A 
ENDBRANCH   3  12
BRANCH   1  18
ATOM     18  C   UNL     1       6.298   3.403  12.795  0.00  0.00    +0.000 C 
BRANCH  18  19
ATOM     19  C   UNL     1       5.016   2.879  12.136  0.00  0.00    +0.000 C 
BRANCH  19  20
ATOM     20  C   UNL     1       5.282   2.018  10.897  0.00  0.00    +0.000 C 
BRANCH  20  22
ATOM     21  C   UNL     1       6.141  -0.322  11.297  0.00  0.00    +0.000 C 
ATOM     22  C   UNL     1       6.516   1.137  11.099  0.00  0.00    +0.000 C 
ENDBRANCH  20  22
ENDBRANCH  19  20
ENDBRANCH  18  19
ENDBRANCH   1  18
BRANCH   7  23
ATOM     23  C   UNL     1       8.365   7.511  18.379  0.00  0.00    +0.000 C 
BRANCH  23  24
ATOM     24  C   UNL     1       8.293   9.035  18.244  0.00  0.00    +0.000 C 
BRANCH  24  25
ATOM     25  C   UNL     1       9.102   9.737  19.338  0.00  0.00    +0.000 C 
BRANCH  25  26
ATOM     26  C   UNL     1       9.739  11.012  18.834  0.00  0.00    +0.000 C 
ATOM     27  O   UNL     1      10.205  11.124  17.704  0.00  0.00    +0.000 OA
BRANCH  26  28
ATOM     28  C   UNL     1       9.833  12.156  19.777  0.00  0.00    +0.000 A 
ATOM     29  C   UNL     1       9.413  11.942  21.097  0.00  0.00    +0.000 A 
ATOM     30  C   UNL     1       9.455  12.989  22.017  0.00  0.00    +0.000 A 
ATOM     31  C   UNL     1       9.934  14.231  21.623  0.00  0.00    +0.000 A 
ATOM     32  F   UNL     1       9.971  15.238  22.509  0.00  0.00    +0.000 F 
ATOM     33  C   UNL     1      10.371  14.451  20.321  0.00  0.00    +0.000 A 
ATOM     34  C   UNL     1      10.319  13.414  19.389  0.00  0.00    +0.000 A 
ENDBRANCH  26  28
ENDBRANCH  25  26
ENDBRANCH  24  25
ENDBRANCH  23  24
ENDBRANCH   7  23
TORSDOF 10
ENDMDL
MODEL 3
REMARK VINA RESULT:      -7.4      1.336      1.459
REMARK  Name = 
REMARK  11 active torsions:
REMARK  status: ('A' for Active; 'I' for Inactive)
REMARK    1  A    between atoms: C_1  and  C_2
REMARK    2  A    between atoms: C_2  and  C_3
REMARK    3  A    between atoms: C_3  and  C_4
REMARK    4  A    between atoms: C_4  and  C_5
REMARK    5  A    between atoms: C_5  and  N_6
REMARK    6  A    between atoms: N_8  and  C_9
REMARK    7  A    between atoms: N_18  and  C_19
REMARK    8  A    between atoms: C_19  and  C_20
REMARK    9  A    between atoms: C_20  and  C_21
REMARK   10  A    between atoms: C_21  and  C_22
REMARK   11  A    between atoms: C_22  and  C_24
REMARK                            x       y       z     vdW  Elec       q    Type
REMARK                         _______ _______ _______ _____ _____    ______ ____
ROOT
ATOM      1  N   UNL     1       6.145   4.189  13.789  0.00  0.00    +0.000 N 
ATOM      2  C   UNL     1       4.836   4.122  14.362  0.00  0.00    +0.000 C 
ATOM      3  N   UNL     1       5.010   4.583  15.735  0.00  0.00    +0.000 N 
ATOM      4  C   UNL     1       6.344   5.280  15.863  0.00  0.00    +0.000 C 
ATOM      5  C   UNL     1       7.302   4.738  16.924  0.00  0.00    +0.000 C 
ATOM      6  C   UNL     1       7.052   5.311  18.308  0.00  0.00    +0.000 C 
ATOM      7  N   UNL     1       6.903   6.771  18.347  0.00  0.00    +0.000 NA
ATOM      8  C   UNL     1       5.991   7.309  17.333  0.00  0.00    +0.000 C 
ATOM      9  C   UNL     1       6.208   6.800  15.924  0.00  0.00    +0.000 C 
ATOM     10  C   UNL     1       7.017   4.964  14.514  0.00  0.00    +0.000 C 
ATOM     11  O   UNL     1       8.137   5.304  14.158  0.00  0.00    +0.000 OA
ENDROOT
BRANCH   3  12
ATOM     12  C   UNL     1       4.361   3.918  16.767  0.00  0.00    +0.000 A 
ATOM     13  C   UNL     1       3.539   4.561  17.704  0.00  0.00    +0.000 A 
ATOM     14  C   UNL     1       2.871   3.858  18.724  0.00  0.00    +0.000 A 
ATOM     15  C   UNL     1       2.986   2.472  18.818  0.00  0.00    +0.000 A 
ATOM     16  C   UNL     1       3.808   1.813  17.930  0.00  0.00    +0.000 A 
ATOM     17  C   UNL     1       4.511   2.539  16.960  0.00  0.00    +0.000 A 
ENDBRANCH   3  12
BRANCH   1  18
ATOM     18  C   UNL     1       6.486   3.538  12.541  0.00  0.00    +0.000 C 
BRANCH  18  19
ATOM     19  C   UNL     1       5.539   2.375  12.220  0.00  0.00    +0.000 C 
BRANCH  19  20
ATOM     20  C   UNL     1       4.776   2.563  10.904  0.00  0.00    +0.000 C 
BRANCH  20  22
ATOM     21  C   UNL     1       3.115   4.076   9.753  0.00  0.00    +0.000 C 
ATOM     22  C   UNL     1       3.607   3.531  11.084  0.00  0.00    +0.000 C 
ENDBRANCH  20  22
ENDBRANCH  19  20
ENDBRANCH  18  19
ENDBRANCH   1  18
BRANCH   7  23
ATOM     23  C   UNL     1       8.207   7.446  18.380  0.00  0.00    +0.000 C 
BRANCH  23  24
ATOM     24  C   UNL     1       8.083   8.962  18.198  0.00  0.00    +0.000 C 
BRANCH  24  25
ATOM     25  C   UNL     1       9.441   9.658  18.324  0.00  0.00    +0.000 C 
BRANCH  25  26
ATOM     26  C   UNL     1       9.385  10.825  19.283  0.00  0.00    +0.000 C 
ATOM     27  O   UNL     1       9.060  10.707  20.461  0.00  0.00    +0.000 OA
BRANCH  26  28
ATOM     28  C   UNL     1       9.699  12.174  18.745  0.00  0.00    +0.000 A 
ATOM     29  C   UNL     1       9.118  13.277  19.387  0.00  0.00    +0.000 A 
ATOM     30  C   UNL     1       9.358  14.564  18.907  0.00  0.00    +0.000 A 
ATOM     31  C   UNL     1      10.188  14.745  17.809  0.00  0.00    +0.000 A 
ATOM     32  F   UNL     1      10.414  15.984  17.347  0.00  0.00    +0.000 F 
ATOM     33  C   UNL     1      10.784  13.660  17.175  0.00  0.00    +0.000 A 
ATOM     34  C   UNL     1      10.540  12.367  17.638  0.00  0.00    +0.000 A 
ENDBRANCH  26  28
ENDBRANCH  25  26
ENDBRANCH  24  25
ENDBRANCH  23  24
ENDBRANCH   7  23
TORSDOF 10
ENDMDL
MODEL 4
REMARK VINA RESULT:      -7.3      2.204      5.077
REMARK  Name = 
REMARK  11 active torsions:
REMARK  status: ('A' for Active; 'I' for Inactive)
REMARK    1  A    between atoms: C_1  and  C_2
REMARK    2  A    between atoms: C_2  and  C_3
REMARK    3  A    between atoms: C_3  and  C_4
REMARK    4  A    between atoms: C_4  and  C_5
REMARK    5  A    between atoms: C_5  and  N_6
REMARK    6  A    between atoms: N_8  and  C_9
REMARK    7  A    between atoms: N_18  and  C_19
REMARK    8  A    between atoms: C_19  and  C_20
REMARK    9  A    between atoms: C_20  and  C_21
REMARK   10  A    between atoms: C_21  and  C_22
REMARK   11  A    between atoms: C_22  and  C_24
REMARK                            x       y       z     vdW  Elec       q    Type
REMARK                         _______ _______ _______ _____ _____    ______ ____
ROOT
ATOM      1  N   UNL     1       3.135   4.230  17.445  0.00  0.00    +0.000 N 
ATOM      2  C   UNL     1       4.027   3.397  16.699  0.00  0.00    +0.000 C 
ATOM      3  N   UNL     1       5.149   4.266  16.362  0.00  0.00    +0.000 N 
ATOM      4  C   UNL     1       5.100   5.504  17.227  0.00  0.00    +0.000 C 
ATOM      5  C   UNL     1       5.065   6.848  16.500  0.00  0.00    +0.000 C 
ATOM      6  C   UNL     1       6.442   7.363  16.122  0.00  0.00    +0.000 C 
ATOM      7  N   UNL     1       7.433   7.311  17.205  0.00  0.00    +0.000 NA
ATOM      8  C   UNL     1       7.477   6.029  17.917  0.00  0.00    +0.000 C 
ATOM      9  C   UNL     1       6.136   5.476  18.349  0.00  0.00    +0.000 C 
ATOM     10  C   UNL     1       3.725   5.379  17.911  0.00  0.00    +0.000 C 
ATOM     11  O   UNL     1       3.225   6.171  18.697  0.00  0.00    +0.000 OA
ENDROOT
BRANCH   3  12
ATOM     12  C   UNL     1       5.698   4.211  15.088  0.00  0.00    +0.000 A 
ATOM     13  C   UNL     1       4.994   3.762  13.961  0.00  0.00    +0.000 A 
ATOM     14  C   UNL     1       5.568   3.742  12.676  0.00  0.00    +0.000 A 
ATOM     15  C   UNL     1       6.869   4.202  12.476  0.00  0.00    +0.000 A 
ATOM     16  C   UNL     1       7.598   4.624  13.568  0.00  0.00    +0.000 A 
ATOM     17  C   UNL     1       7.029   4.579  14.846  0.00  0.00    +0.000 A 
ENDBRANCH   3  12
BRANCH   1  18
ATOM     18  C   UNL     1       1.761   3.860  17.712  0.00  0.00    +0.000 C 
BRANCH  18  19
ATOM     19  C   UNL     1       1.652   2.468  18.348  0.00  0.00    +0.000 C 
BRANCH  19  20
ATOM     20  C   UNL     1       2.323   2.378  19.722  0.00  0.00    +0.000 C 
BRANCH  20  22
ATOM     21  C   UNL     1       1.417   2.608  22.067  0.00  0.00    +0.000 C 
ATOM     22  C   UNL     1       1.631   3.297  20.730  0.00  0.00    +0.000 C 
ENDBRANCH  20  22
ENDBRANCH  19  20
ENDBRANCH  18  19
ENDBRANCH   1  18
BRANCH   7  23
ATOM     23  C   UNL     1       7.319   8.473  18.096  0.00  0.00    +0.000 C 
BRANCH  23  24
ATOM     24  C   UNL     1       8.687   9.043  18.486  0.00  0.00    +0.000 C 
BRANCH  24  25
ATOM     25  C   UNL     1       8.927  10.416  17.852  0.00  0.00    +0.000 C 
BRANCH  25  26
ATOM     26  C   UNL     1       9.769  11.303  18.740  0.00  0.00    +0.000 C 
ATOM     27  O   UNL     1      10.048  11.015  19.901  0.00  0.00    +0.000 OA
BRANCH  26  28
ATOM     28  C   UNL     1      10.233  12.599  18.180  0.00  0.00    +0.000 A 
ATOM     29  C   UNL     1      11.401  12.587  17.405  0.00  0.00    +0.000 A 
ATOM     30  C   UNL     1      11.894  13.779  16.877  0.00  0.00    +0.000 A 
ATOM     31  C   UNL     1      11.213  14.967  17.105  0.00  0.00    +0.000 A 
ATOM     32  F   UNL     1      11.693  16.113  16.600  0.00  0.00    +0.000 F 
ATOM     33  C   UNL     1      10.044  14.989  17.858  0.00  0.00    +0.000 A 
ATOM     34  C   UNL     1       9.549  13.804  18.403  0.00  0.00    +0.000 A 
ENDBRANCH  26  28
ENDBRANCH  25  26
ENDBRANCH  24  25
ENDBRANCH  23  24
ENDBRANCH   7  23
TORSDOF 10
ENDMDL
MODEL 5
REMARK VINA RESULT:      -7.3      2.195      5.014
REMARK  Name = 
REMARK  11 active torsions:
REMARK  status: ('A' for Active; 'I' for Inactive)
REMARK    1  A    between atoms: C_1  and  C_2
REMARK    2  A    between atoms: C_2  and  C_3
REMARK    3  A    between atoms: C_3  and  C_4
REMARK    4  A    between atoms: C_4  and  C_5
REMARK    5  A    between atoms: C_5  and  N_6
REMARK    6  A    between atoms: N_8  and  C_9
REMARK    7  A    between atoms: N_18  and  C_19
REMARK    8  A    between atoms: C_19  and  C_20
REMARK    9  A    between atoms: C_20  and  C_21
REMARK   10  A    between atoms: C_21  and  C_22
REMARK   11  A    between atoms: C_22  and  C_24
REMARK                            x       y       z     vdW  Elec       q    Type
REMARK                         _______ _______ _______ _____ _____    ______ ____
ROOT
ATOM      1  N   UNL     1       3.097   4.549  17.548  0.00  0.00    +0.000 N 
ATOM      2  C   UNL     1       3.840   3.644  16.727  0.00  0.00    +0.000 C 
ATOM      3  N   UNL     1       5.112   4.318  16.491  0.00  0.00    +0.000 N 
ATOM      4  C   UNL     1       5.269   5.448  17.481  0.00  0.00    +0.000 C 
ATOM      5  C   UNL     1       5.504   6.842  16.900  0.00  0.00    +0.000 C 
ATOM      6  C   UNL     1       6.962   7.126  16.589  0.00  0.00    +0.000 C 
ATOM      7  N   UNL     1       7.896   6.780  17.669  0.00  0.00    +0.000 NA
ATOM      8  C   UNL     1       7.683   5.447  18.242  0.00  0.00    +0.000 C 
ATOM      9  C   UNL     1       6.251   5.113  18.603  0.00  0.00    +0.000 C 
ATOM     10  C   UNL     1       3.877   5.513  18.137  0.00  0.00    +0.000 C 
ATOM     11  O   UNL     1       3.511   6.301  18.999  0.00  0.00    +0.000 OA
ENDROOT
BRANCH   3  12
ATOM     12  C   UNL     1       5.676   4.291  15.223  0.00  0.00    +0.000 A 
ATOM     13  C   UNL     1       4.978   3.892  14.074  0.00  0.00    +0.000 A 
ATOM     14  C   UNL     1       5.568   3.901  12.797  0.00  0.00    +0.000 A 
ATOM     15  C   UNL     1       6.880   4.340  12.627  0.00  0.00    +0.000 A 
ATOM     16  C   UNL     1       7.604   4.712  13.740  0.00  0.00    +0.000 A 
ATOM     17  C   UNL     1       7.017   4.639  15.009  0.00  0.00    +0.000 A 
ENDBRANCH   3  12
BRANCH   1  18
ATOM     18  C   UNL     1       1.671   4.417  17.765  0.00  0.00    +0.000 C 
BRANCH  18  19
ATOM     19  C   UNL     1       1.295   3.029  18.298  0.00  0.00    +0.000 C 
BRANCH  19  20
ATOM     20  C   UNL     1       2.105   2.616  19.532  0.00  0.00    +0.000 C 
BRANCH  20  22
ATOM     21  C   UNL     1       2.118   3.093  22.011  0.00  0.00    +0.000 C 
ATOM     22  C   UNL     1       1.265   2.742  20.804  0.00  0.00    +0.000 C 
ENDBRANCH  20  22
ENDBRANCH  19  20
ENDBRANCH  18  19
ENDBRANCH   1  18
BRANCH   7  23
ATOM     23  C   UNL     1       7.975   7.846  18.676  0.00  0.00    +0.000 C 
BRANCH  23  24
ATOM     24  C   UNL     1       8.294   9.210  18.056  0.00  0.00    +0.000 C 
BRANCH  24  25
ATOM     25  C   UNL     1       9.608   9.782  18.596  0.00  0.00    +0.000 C 
BRANCH  25  26
ATOM     26  C   UNL     1       9.410  11.140  19.229  0.00  0.00    +0.000 C 
ATOM     27  O   UNL     1       8.814  11.302  20.290  0.00  0.00    +0.000 OA
BRANCH  26  28
ATOM     28  C   UNL     1       9.928  12.324  18.497  0.00  0.00    +0.000 A 
ATOM     29  C   UNL     1       9.359  13.570  18.795  0.00  0.00    +0.000 A 
ATOM     30  C   UNL     1       9.790  14.710  18.118  0.00  0.00    +0.000 A 
ATOM     31  C   UNL     1      10.797  14.606  17.168  0.00  0.00    +0.000 A 
ATOM     32  F   UNL     1      11.208  15.703  16.516  0.00  0.00    +0.000 F 
ATOM     33  C   UNL     1      11.383  13.378  16.877  0.00  0.00    +0.000 A 
ATOM     34  C   UNL     1      10.949  12.229  17.538  0.00  0.00    +0.000 A 
ENDBRANCH  26  28
ENDBRANCH  25  26
ENDBRANCH  24  25
ENDBRANCH  23  24
ENDBRANCH   7  23
TORSDOF 10
ENDMDL
MODEL 6
REMARK VINA RESULT:      -7.3      5.147      8.487
REMARK  Name = 
REMARK  11 active torsions:
REMARK  status: ('A' for Active; 'I' for Inactive)
REMARK    1  A    between atoms: C_1  and  C_2
REMARK    2  A    between atoms: C_2  and  C_3
REMARK    3  A    between atoms: C_3  and  C_4
REMARK    4  A    between atoms: C_4  and  C_5
REMARK    5  A    between atoms: C_5  and  N_6
REMARK    6  A    between atoms: N_8  and  C_9
REMARK    7  A    between atoms: N_18  and  C_19
REMARK    8  A    between atoms: C_19  and  C_20
REMARK    9  A    between atoms: C_20  and  C_21
REMARK   10  A    between atoms: C_21  and  C_22
REMARK   11  A    between atoms: C_22  and  C_24
REMARK                            x       y       z     vdW  Elec       q    Type
REMARK                         _______ _______ _______ _____ _____    ______ ____
ROOT
ATOM      1  N   UNL     1       2.361   7.981  18.320  0.00  0.00    +0.000 N 
ATOM      2  C   UNL     1       2.153   7.345  19.584  0.00  0.00    +0.000 C 
ATOM      3  N   UNL     1       2.909   6.100  19.499  0.00  0.00    +0.000 N 
ATOM      4  C   UNL     1       3.867   6.175  18.334  0.00  0.00    +0.000 C 
ATOM      5  C   UNL     1       3.754   5.075  17.279  0.00  0.00    +0.000 C 
ATOM      6  C   UNL     1       4.535   3.822  17.632  0.00  0.00    +0.000 C 
ATOM      7  N   UNL     1       5.913   4.065  18.075  0.00  0.00    +0.000 NA
ATOM      8  C   UNL     1       6.042   5.121  19.085  0.00  0.00    +0.000 C 
ATOM      9  C   UNL     1       5.311   6.410  18.777  0.00  0.00    +0.000 C 
ATOM     10  C   UNL     1       3.424   7.466  17.620  0.00  0.00    +0.000 C 
ATOM     11  O   UNL     1       3.899   7.935  16.595  0.00  0.00    +0.000 OA
ENDROOT
BRANCH   3  12
ATOM     12  C   UNL     1       2.352   4.927  19.993  0.00  0.00    +0.000 A 
ATOM     13  C   UNL     1       1.212   4.321  19.445  0.00  0.00    +0.000 A 
ATOM     14  C   UNL     1       0.686   3.118  19.950  0.00  0.00    +0.000 A 
ATOM     15  C   UNL     1       1.309   2.465  21.012  0.00  0.00    +0.000 A 
ATOM     16  C   UNL     1       2.416   3.048  21.591  0.00  0.00    +0.000 A 
ATOM     17  C   UNL     1       2.888   4.276  21.112  0.00  0.00    +0.000 A 
ENDBRANCH   3  12
BRANCH   1  18
ATOM     18  C   UNL     1       1.550   9.090  17.861  0.00  0.00    +0.000 C 
BRANCH  18  19
ATOM     19  C   UNL     1       0.588   9.588  18.947  0.00  0.00    +0.000 C 
BRANCH  19  20
ATOM     20  C   UNL     1      -0.593  10.388  18.386  0.00  0.00    +0.000 C 
BRANCH  20  22
ATOM     21  C   UNL     1      -0.031  11.771  20.421  0.00  0.00    +0.000 C 
ATOM     22  C   UNL     1      -0.687  11.762  19.050  0.00  0.00    +0.000 C 
ENDBRANCH  20  22
ENDBRANCH  19  20
ENDBRANCH  18  19
ENDBRANCH   1  18
BRANCH   7  23
ATOM     23  C   UNL     1       6.825   4.228  16.936  0.00  0.00    +0.000 C 
BRANCH  23  24
ATOM     24  C   UNL     1       6.124   4.011  15.592  0.00  0.00    +0.000 C 
BRANCH  24  25
ATOM     25  C   UNL     1       6.222   5.250  14.698  0.00  0.00    +0.000 C 
BRANCH  25  26
ATOM     26  C   UNL     1       7.041   4.981  13.456  0.00  0.00    +0.000 C 
ATOM     27  O   UNL     1       7.959   5.709  13.090  0.00  0.00    +0.000 OA
BRANCH  26  28
ATOM     28  C   UNL     1       6.674   3.801  12.630  0.00  0.00    +0.000 A 
ATOM     29  C   UNL     1       7.719   3.058  12.063  0.00  0.00    +0.000 A 
ATOM     30  C   UNL     1       7.430   1.957  11.258  0.00  0.00    +0.000 A 
ATOM     31  C   UNL     1       6.108   1.592  11.041  0.00  0.00    +0.000 A 
ATOM     32  F   UNL     1       5.833   0.534  10.263  0.00  0.00    +0.000 F 
ATOM     33  C   UNL     1       5.064   2.310  11.613  0.00  0.00    +0.000 A 
ATOM     34  C   UNL     1       5.341   3.422  12.409  0.00  0.00    +0.000 A 
ENDBRANCH  26  28
ENDBRANCH  25  26
ENDBRANCH  24  25
ENDBRANCH  23  24
ENDBRANCH   7  23
TORSDOF 10
ENDMDL
MODEL 7
REMARK VINA RESULT:      -7.2      2.378      5.138
REMARK  Name = 
REMARK  11 active torsions:
REMARK  status: ('A' for Active; 'I' for Inactive)
REMARK    1  A    between atoms: C_1  and  C_2
REMARK    2  A    between atoms: C_2  and  C_3
REMARK    3  A    between atoms: C_3  and  C_4
REMARK    4  A    between atoms: C_4  and  C_5
REMARK    5  A    between atoms: C_5  and  N_6
REMARK    6  A    between atoms: N_8  and  C_9
REMARK    7  A    between atoms: N_18  and  C_19
REMARK    8  A    between atoms: C_19  and  C_20
REMARK    9  A    between atoms: C_20  and  C_21
REMARK   10  A    between atoms: C_21  and  C_22
REMARK   11  A    between atoms: C_22  and  C_24
REMARK                            x       y       z     vdW  Elec       q    Type
REMARK                         _______ _______ _______ _____ _____    ______ ____
ROOT
ATOM      1  N   UNL     1       3.096   4.058  17.288  0.00  0.00    +0.000 N 
ATOM      2  C   UNL     1       3.977   3.246  16.506  0.00  0.00    +0.000 C 
ATOM      3  N   UNL     1       5.119   4.108  16.222  0.00  0.00    +0.000 N 
ATOM      4  C   UNL     1       5.089   5.300  17.150  0.00  0.00    +0.000 C 
ATOM      5  C   UNL     1       5.087   6.680  16.493  0.00  0.00    +0.000 C 
ATOM      6  C   UNL     1       6.477   7.185  16.152  0.00  0.00    +0.000 C 
ATOM      7  N   UNL     1       7.457   7.057  17.238  0.00  0.00    +0.000 NA
ATOM      8  C   UNL     1       7.471   5.740  17.883  0.00  0.00    +0.000 C 
ATOM      9  C   UNL     1       6.115   5.193  18.276  0.00  0.00    +0.000 C 
ATOM     10  C   UNL     1       3.706   5.168  17.817  0.00  0.00    +0.000 C 
ATOM     11  O   UNL     1       3.216   5.929  18.640  0.00  0.00    +0.000 OA
ENDROOT
BRANCH   3  12
ATOM     12  C   UNL     1       5.677   4.107  14.951  0.00  0.00    +0.000 A 
ATOM     13  C   UNL     1       6.998   4.497  14.686  0.00  0.00    +0.000 A 
ATOM     14  C   UNL     1       7.546   4.461  13.390  0.00  0.00    +0.000 A 
ATOM     15  C   UNL     1       6.787   4.001  12.315  0.00  0.00    +0.000 A 
ATOM     16  C   UNL     1       5.476   3.637  12.536  0.00  0.00    +0.000 A 
ATOM     17  C   UNL     1       4.932   3.738  13.823  0.00  0.00    +0.000 A 
ENDBRANCH   3  12
BRANCH   1  18
ATOM     18  C   UNL     1       1.713   3.702  17.526  0.00  0.00    +0.000 C 
BRANCH  18  19
ATOM     19  C   UNL     1       1.573   2.614  18.598  0.00  0.00    +0.000 C 
BRANCH  19  20
ATOM     20  C   UNL     1       0.790   3.077  19.831  0.00  0.00    +0.000 C 
BRANCH  20  22
ATOM     21  C   UNL     1       1.683   2.678  22.158  0.00  0.00    +0.000 C 
ATOM     22  C   UNL     1       1.737   3.568  20.927  0.00  0.00    +0.000 C 
ENDBRANCH  20  22
ENDBRANCH  19  20
ENDBRANCH  18  19
ENDBRANCH   1  18
BRANCH   7  23
ATOM     23  C   UNL     1       7.361   8.173  18.187  0.00  0.00    +0.000 C 
BRANCH  23  24
ATOM     24  C   UNL     1       8.721   8.821  18.465  0.00  0.00    +0.000 C 
BRANCH  24  25
ATOM     25  C   UNL     1       8.717  10.313  18.119  0.00  0.00    +0.000 C 
BRANCH  25  26
ATOM     26  C   UNL     1       9.494  11.124  19.130  0.00  0.00    +0.000 C 
ATOM     27  O   UNL     1       9.484  10.880  20.333  0.00  0.00    +0.000 OA
BRANCH  26  28
ATOM     28  C   UNL     1      10.265  12.293  18.630  0.00  0.00    +0.000 A 
ATOM     29  C   UNL     1      10.469  13.359  19.517  0.00  0.00    +0.000 A 
ATOM     30  C   UNL     1      11.163  14.491  19.091  0.00  0.00    +0.000 A 
ATOM     31  C   UNL     1      11.665  14.544  17.798  0.00  0.00    +0.000 A 
ATOM     32  F   UNL     1      12.328  15.637  17.390  0.00  0.00    +0.000 F 
ATOM     33  C   UNL     1      11.484  13.485  16.915  0.00  0.00    +0.000 A 
ATOM     34  C   UNL     1      10.779  12.354  17.326  0.00  0.00    +0.000 A 
ENDBRANCH  26  28
ENDBRANCH  25  26
ENDBRANCH  24  25
ENDBRANCH  23  24
ENDBRANCH   7  23
TORSDOF 10
ENDMDL
MODEL 8
REMARK VINA RESULT:      -7.2      2.119      4.996
REMARK  Name = 
REMARK  11 active torsions:
REMARK  status: ('A' for Active; 'I' for Inactive)
REMARK    1  A    between atoms: C_1  and  C_2
REMARK    2  A    between atoms: C_2  and  C_3
REMARK    3  A    between atoms: C_3  and  C_4
REMARK    4  A    between atoms: C_4  and  C_5
REMARK    5  A    between atoms: C_5  and  N_6
REMARK    6  A    between atoms: N_8  and  C_9
REMARK    7  A    between atoms: N_18  and  C_19
REMARK    8  A    between atoms: C_19  and  C_20
REMARK    9  A    between atoms: C_20  and  C_21
REMARK   10  A    between atoms: C_21  and  C_22
REMARK   11  A    between atoms: C_22  and  C_24
REMARK                            x       y       z     vdW  Elec       q    Type
REMARK                         _______ _______ _______ _____ _____    ______ ____
ROOT
ATOM      1  N   UNL     1       3.018   4.293  17.555  0.00  0.00    +0.000 N 
ATOM      2  C   UNL     1       3.877   3.423  16.813  0.00  0.00    +0.000 C 
ATOM      3  N   UNL     1       5.012   4.259  16.436  0.00  0.00    +0.000 N 
ATOM      4  C   UNL     1       5.007   5.516  17.273  0.00  0.00    +0.000 C 
ATOM      5  C   UNL     1       4.989   6.844  16.517  0.00  0.00    +0.000 C 
ATOM      6  C   UNL     1       6.370   7.318  16.103  0.00  0.00    +0.000 C 
ATOM      7  N   UNL     1       7.379   7.269  17.169  0.00  0.00    +0.000 NA
ATOM      8  C   UNL     1       7.408   6.002  17.910  0.00  0.00    +0.000 C 
ATOM      9  C   UNL     1       6.062   5.490  18.377  0.00  0.00    +0.000 C 
ATOM     10  C   UNL     1       3.642   5.438  17.984  0.00  0.00    +0.000 C 
ATOM     11  O   UNL     1       3.174   6.259  18.761  0.00  0.00    +0.000 OA
ENDROOT
BRANCH   3  12
ATOM     12  C   UNL     1       5.537   4.162  15.154  0.00  0.00    +0.000 A 
ATOM     13  C   UNL     1       6.878   4.431  14.845  0.00  0.00    +0.000 A 
ATOM     14  C   UNL     1       7.389   4.299  13.541  0.00  0.00    +0.000 A 
ATOM     15  C   UNL     1       6.569   3.862  12.502  0.00  0.00    +0.000 A 
ATOM     16  C   UNL     1       5.238   3.616  12.766  0.00  0.00    +0.000 A 
ATOM     17  C   UNL     1       4.736   3.812  14.059  0.00  0.00    +0.000 A 
ENDBRANCH   3  12
BRANCH   1  18
ATOM     18  C   UNL     1       1.641   3.960  17.856  0.00  0.00    +0.000 C 
BRANCH  18  19
ATOM     19  C   UNL     1       1.527   2.975  19.025  0.00  0.00    +0.000 C 
BRANCH  19  20
ATOM     20  C   UNL     1       0.982   3.617  20.306  0.00  0.00    +0.000 C 
BRANCH  20  22
ATOM     21  C   UNL     1       3.108   2.555  21.157  0.00  0.00    +0.000 C 
ATOM     22  C   UNL     1       1.750   3.125  21.533  0.00  0.00    +0.000 C 
ENDBRANCH  20  22
ENDBRANCH  19  20
ENDBRANCH  18  19
ENDBRANCH   1  18
BRANCH   7  23
ATOM     23  C   UNL     1       7.308   8.452  18.035  0.00  0.00    +0.000 C 
BRANCH  23  24
ATOM     24  C   UNL     1       8.683   8.866  18.569  0.00  0.00    +0.000 C 
BRANCH  24  25
ATOM     25  C   UNL     1       9.055  10.285  18.130  0.00  0.00    +0.000 C 
BRANCH  25  26
ATOM     26  C   UNL     1       9.358  11.176  19.314  0.00  0.00    +0.000 C 
ATOM     27  O   UNL     1       9.466  10.750  20.460  0.00  0.00    +0.000 OA
BRANCH  26  28
ATOM     28  C   UNL     1       9.484  12.635  19.064  0.00  0.00    +0.000 A 
ATOM     29  C   UNL     1      10.338  13.044  18.031  0.00  0.00    +0.000 A 
ATOM     30  C   UNL     1      10.513  14.402  17.772  0.00  0.00    +0.000 A 
ATOM     31  C   UNL     1       9.822  15.341  18.526  0.00  0.00    +0.000 A 
ATOM     32  F   UNL     1       9.996  16.648  18.277  0.00  0.00    +0.000 F 
ATOM     33  C   UNL     1       8.958  14.947  19.541  0.00  0.00    +0.000 A 
ATOM     34  C   UNL     1       8.786  13.591  19.819  0.00  0.00    +0.000 A 
ENDBRANCH  26  28
ENDBRANCH  25  26
ENDBRANCH  24  25
ENDBRANCH  23  24
ENDBRANCH   7  23
TORSDOF 10
ENDMDL
MODEL 9
REMARK VINA RESULT:      -7.2      5.414      6.761
REMARK  Name = 
REMARK  11 active torsions:
REMARK  status: ('A' for Active; 'I' for Inactive)
REMARK    1  A    between atoms: C_1  and  C_2
REMARK    2  A    between atoms: C_2  and  C_3
REMARK    3  A    between atoms: C_3  and  C_4
REMARK    4  A    between atoms: C_4  and  C_5
REMARK    5  A    between atoms: C_5  and  N_6
REMARK    6  A    between atoms: N_8  and  C_9
REMARK    7  A    between atoms: N_18  and  C_19
REMARK    8  A    between atoms: C_19  and  C_20
REMARK    9  A    between atoms: C_20  and  C_21
REMARK   10  A    between atoms: C_21  and  C_22
REMARK   11  A    between atoms: C_22  and  C_24
REMARK                            x       y       z     vdW  Elec       q    Type
REMARK                         _______ _______ _______ _____ _____    ______ ____
ROOT
ATOM      1  N   UNL     1       5.610   5.340  16.474  0.00  0.00    +0.000 N 
ATOM      2  C   UNL     1       4.531   4.440  16.207  0.00  0.00    +0.000 C 
ATOM      3  N   UNL     1       3.512   4.782  17.194  0.00  0.00    +0.000 N 
ATOM      4  C   UNL     1       3.833   6.130  17.797  0.00  0.00    +0.000 C 
ATOM      5  C   UNL     1       3.975   6.184  19.318  0.00  0.00    +0.000 C 
ATOM      6  C   UNL     1       2.651   6.357  20.039  0.00  0.00    +0.000 C 
ATOM      7  N   UNL     1       1.792   7.417  19.496  0.00  0.00    +0.000 NA
ATOM      8  C   UNL     1       1.647   7.382  18.036  0.00  0.00    +0.000 C 
ATOM      9  C   UNL     1       2.936   7.242  17.256  0.00  0.00    +0.000 C 
ATOM     10  C   UNL     1       5.244   6.413  17.249  0.00  0.00    +0.000 C 
ATOM     11  O   UNL     1       5.937   7.394  17.484  0.00  0.00    +0.000 OA
ENDROOT
BRANCH   3  12
ATOM     12  C   UNL     1       2.820   3.768  17.843  0.00  0.00    +0.000 A 
ATOM     13  C   UNL     1       3.442   2.639  18.396  0.00  0.00    +0.000 A 
ATOM     14  C   UNL     1       2.718   1.639  19.072  0.00  0.00    +0.000 A 
ATOM     15  C   UNL     1       1.340   1.756  19.240  0.00  0.00    +0.000 A 
ATOM     16  C   UNL     1       0.693   2.840  18.684  0.00  0.00    +0.000 A 
ATOM     17  C   UNL     1       1.425   3.793  17.963  0.00  0.00    +0.000 A 
ENDBRANCH   3  12
BRANCH   1  18
ATOM     18  C   UNL     1       6.939   5.147  15.933  0.00  0.00    +0.000 C 
BRANCH  18  19
ATOM     19  C   UNL     1       6.926   5.019  14.405  0.00  0.00    +0.000 C 
BRANCH  19  20
ATOM     20  C   UNL     1       6.385   3.671  13.916  0.00  0.00    +0.000 C 
BRANCH  20  22
ATOM     21  C   UNL     1       4.979   3.294  11.853  0.00  0.00    +0.000 C 
ATOM     22  C   UNL     1       6.366   3.611  12.388  0.00  0.00    +0.000 C 
ENDBRANCH  20  22
ENDBRANCH  19  20
ENDBRANCH  18  19
ENDBRANCH   1  18
BRANCH   7  23
ATOM     23  C   UNL     1       2.167   8.737  20.016  0.00  0.00    +0.000 C 
BRANCH  23  24
ATOM     24  C   UNL     1       1.212   9.226  21.110  0.00  0.00    +0.000 C 
BRANCH  24  25
ATOM     25  C   UNL     1      -0.219   9.373  20.584  0.00  0.00    +0.000 C 
BRANCH  25  26
ATOM     26  C   UNL     1      -0.407  10.669  19.829  0.00  0.00    +0.000 C 
ATOM     27  O   UNL     1       0.202  11.699  20.107  0.00  0.00    +0.000 OA
BRANCH  26  28
ATOM     28  C   UNL     1      -1.411  10.691  18.735  0.00  0.00    +0.000 A 
ATOM     29  C   UNL     1      -2.499  11.564  18.871  0.00  0.00    +0.000 A 
ATOM     30  C   UNL     1      -3.484  11.605  17.885  0.00  0.00    +0.000 A 
ATOM     31  C   UNL     1      -3.369  10.794  16.764  0.00  0.00    +0.000 A 
ATOM     32  F   UNL     1      -4.320  10.832  15.819  0.00  0.00    +0.000 F 
ATOM     33  C   UNL     1      -2.285   9.936  16.609  0.00  0.00    +0.000 A 
ATOM     34  C   UNL     1      -1.301   9.877  17.596  0.00  0.00    +0.000 A 
ENDBRANCH  26  28
ENDBRANCH  25  26
ENDBRANCH  24  25
ENDBRANCH  23  24
ENDBRANCH   7  23
TORSDOF 10
ENDMDL
