MODEL 1
REMARK VINA RESULT:      -8.8      0.000      0.000
REMARK  Name = 
REMARK  3 active torsions:
REMARK  status: ('A' for Active; 'I' for Inactive)
REMARK    1  A    between atoms: C_2  and  C_3
REMARK    2  A    between atoms: N_20  and  C_21
REMARK    3  A    between atoms: C_21  and  C_22
REMARK                            x       y       z     vdW  Elec       q    Type
REMARK                         _______ _______ _______ _____ _____    ______ ____
ROOT
ATOM      1  O   UNL     1       1.962   9.256  17.122  0.00  0.00    +0.000 OA
ATOM      2  C   UNL     1       1.595   9.088  18.290  0.00  0.00    +0.000 C 
ATOM      3  N   UNL     1       1.957   7.964  19.013  0.00  0.00    +0.000 N 
ATOM      4  C   UNL     1       1.422   7.507  20.279  0.00  0.00    +0.000 C 
ATOM      5  C   UNL     1       1.766   6.033  20.376  0.00  0.00    +0.000 C 
ATOM      6  C   UNL     1       2.934   5.853  19.416  0.00  0.00    +0.000 C 
ATOM      7  C   UNL     1       3.123   7.185  18.670  0.00  0.00    +0.000 C 
ATOM      8  N   UNL     1       4.140   5.363  20.037  0.00  0.00    +0.000 N 
ATOM      9  C   UNL     1       4.785   4.458  19.220  0.00  0.00    +0.000 C 
ATOM     10  O   UNL     1       5.886   3.999  19.457  0.00  0.00    +0.000 OA
ATOM     11  N   UNL     1       3.961   4.167  18.174  0.00  0.00    +0.000 N 
ATOM     12  C   UNL     1       2.748   4.776  18.349  0.00  0.00    +0.000 C 
ATOM     13  O   UNL     1       1.726   4.567  17.710  0.00  0.00    +0.000 OA
ATOM     14  H   UNL     1       4.611   5.756  20.842  0.00  0.00    +0.000 HD
ENDROOT
BRANCH   2  15
ATOM     15  C   UNL     1       0.784  10.076  18.973  0.00  0.00    +0.000 A 
ATOM     16  C   UNL     1      -0.534  10.437  18.743  0.00  0.00    +0.000 A 
ATOM     17  C   UNL     1      -0.918  11.422  19.664  0.00  0.00    +0.000 A 
ATOM     18  C   UNL     1      -2.118  12.125  19.845  0.00  0.00    +0.000 A 
ATOM     19  C   UNL     1      -2.200  13.052  20.879  0.00  0.00    +0.000 A 
ATOM     20  C   UNL     1      -1.104  13.269  21.719  0.00  0.00    +0.000 A 
ATOM     21  C   UNL     1       0.098  12.562  21.556  0.00  0.00    +0.000 A 
ATOM     22  C   UNL     1       0.164  11.635  20.509  0.00  0.00    +0.000 A 
ATOM     23  N   UNL     1       1.173  10.783  20.099  0.00  0.00    +0.000 N 
ATOM     24  H   UNL     1       2.075  10.685  20.546  0.00  0.00    +0.000 HD
ENDBRANCH   2  15
BRANCH  11  25
ATOM     25  C   UNL     1       4.283   3.257  17.103  0.00  0.00    +0.000 C 
BRANCH  25  26
ATOM     26  C   UNL     1       5.234   3.892  16.108  0.00  0.00    +0.000 A 
ATOM     27  C   UNL     1       5.105   3.618  14.736  0.00  0.00    +0.000 A 
ATOM     28  C   UNL     1       6.000   4.167  13.814  0.00  0.00    +0.000 A 
ATOM     29  C   UNL     1       7.037   4.984  14.256  0.00  0.00    +0.000 A 
ATOM     30 CL   UNL     1       8.160   5.629  13.122  0.00  0.00    +0.000 Cl
ATOM     31  C   UNL     1       7.178   5.269  15.612  0.00  0.00    +0.000 A 
ATOM     32  C   UNL     1       6.280   4.723  16.538  0.00  0.00    +0.000 A 
ENDBRANCH  25  26
ENDBRANCH  11  25
TORSDOF 3
ENDMDL
MODEL 2
REMARK VINA RESULT:      -8.7      0.501      1.067
REMARK  Name = 
REMARK  3 active torsions:
REMARK  status: ('A' for Active; 'I' for Inactive)
REMARK    1  A    between atoms: C_2  and  C_3
REMARK    2  A    between atoms: N_20  and  C_21
REMARK    3  A    between atoms: C_21  and  C_22
REMARK                            x       y       z     vdW  Elec       q    Type
REMARK                         _______ _______ _______ _____ _____    ______ ____
ROOT
ATOM      1  O   UNL     1       1.924   9.240  17.100  0.00  0.00    +0.000 OA
ATOM      2  C   UNL     1       1.593   9.073  18.279  0.00  0.00    +0.000 C 
ATOM      3  N   UNL     1       1.987   7.957  18.996  0.00  0.00    +0.000 N 
ATOM      4  C   UNL     1       1.494   7.501  20.279  0.00  0.00    +0.000 C 
ATOM      5  C   UNL     1       1.856   6.031  20.372  0.00  0.00    +0.000 C 
ATOM      6  C   UNL     1       2.999   5.858  19.379  0.00  0.00    +0.000 C 
ATOM      7  C   UNL     1       3.152   7.189  18.623  0.00  0.00    +0.000 C 
ATOM      8  N   UNL     1       4.227   5.384  19.968  0.00  0.00    +0.000 N 
ATOM      9  C   UNL     1       4.857   4.482  19.137  0.00  0.00    +0.000 C 
ATOM     10  O   UNL     1       5.970   4.036  19.344  0.00  0.00    +0.000 OA
ATOM     11  N   UNL     1       4.007   4.178  18.117  0.00  0.00    +0.000 N 
ATOM     12  C   UNL     1       2.794   4.775  18.323  0.00  0.00    +0.000 C 
ATOM     13  O   UNL     1       1.756   4.551  17.714  0.00  0.00    +0.000 OA
ATOM     14  H   UNL     1       4.716   5.786  20.757  0.00  0.00    +0.000 HD
ENDROOT
BRANCH   2  15
ATOM     15  C   UNL     1       0.791  10.056  18.981  0.00  0.00    +0.000 A 
ATOM     16  C   UNL     1       1.123  10.834  20.079  0.00  0.00    +0.000 A 
ATOM     17  C   UNL     1       0.046  11.667  20.406  0.00  0.00    +0.000 A 
ATOM     18  C   UNL     1      -0.138  12.614  21.426  0.00  0.00    +0.000 A 
ATOM     19  C   UNL     1      -1.341  13.308  21.485  0.00  0.00    +0.000 A 
ATOM     20  C   UNL     1      -2.341  13.066  20.540  0.00  0.00    +0.000 A 
ATOM     21  C   UNL     1      -2.165  12.131  19.507  0.00  0.00    +0.000 A 
ATOM     22  C   UNL     1      -0.949  11.439  19.464  0.00  0.00    +0.000 A 
ATOM     23  N   UNL     1      -0.465  10.487  18.586  0.00  0.00    +0.000 N 
ATOM     24  H   UNL     1      -0.951  10.141  17.769  0.00  0.00    +0.000 HD
ENDBRANCH   2  15
BRANCH  11  25
ATOM     25  C   UNL     1       4.309   3.266  17.041  0.00  0.00    +0.000 C 
BRANCH  25  26
ATOM     26  C   UNL     1       5.251   3.895  16.034  0.00  0.00    +0.000 A 
ATOM     27  C   UNL     1       5.195   3.516  14.682  0.00  0.00    +0.000 A 
ATOM     28  C   UNL     1       6.084   4.060  13.752  0.00  0.00    +0.000 A 
ATOM     29  C   UNL     1       7.046   4.978  14.167  0.00  0.00    +0.000 A 
ATOM     30 CL   UNL     1       8.164   5.619  13.027  0.00  0.00    +0.000 Cl
ATOM     31  C   UNL     1       7.114   5.368  15.503  0.00  0.00    +0.000 A 
ATOM     32  C   UNL     1       6.221   4.826  16.436  0.00  0.00    +0.000 A 
ENDBRANCH  25  26
ENDBRANCH  11  25
TORSDOF 3
ENDMDL
MODEL 3
REMARK VINA RESULT:      -8.5      7.982      9.573
REMARK  Name = 
REMARK  3 active torsions:
REMARK  status: ('A' for Active; 'I' for Inactive)
REMARK    1  A    between atoms: C_2  and  C_3
REMARK    2  A    between atoms: N_20  and  C_21
REMARK    3  A    between atoms: C_21  and  C_22
REMARK                            x       y       z     vdW  Elec       q    Type
REMARK                         _______ _______ _______ _____ _____    ______ ____
ROOT
ATOM      1  O   UNL     1       4.874  14.117  17.835  0.00  0.00    +0.000 OA
ATOM      2  C   UNL     1       4.768  15.310  18.138  0.00  0.00    +0.000 C 
ATOM      3  N   UNL     1       5.848  16.044  18.600  0.00  0.00    +0.000 N 
ATOM      4  C   UNL     1       5.838  17.354  19.216  0.00  0.00    +0.000 C 
ATOM      5  C   UNL     1       7.146  17.475  19.973  0.00  0.00    +0.000 C 
ATOM      6  C   UNL     1       8.061  16.450  19.315  0.00  0.00    +0.000 C 
ATOM      7  C   UNL     1       7.208  15.653  18.313  0.00  0.00    +0.000 C 
ATOM      8  N   UNL     1       9.257  17.010  18.737  0.00  0.00    +0.000 N 
ATOM      9  C   UNL     1      10.341  16.183  18.946  0.00  0.00    +0.000 C 
ATOM     10  O   UNL     1      11.436  16.365  18.449  0.00  0.00    +0.000 OA
ATOM     11  N   UNL     1       9.965  15.200  19.812  0.00  0.00    +0.000 N 
ATOM     12  C   UNL     1       8.693  15.431  20.260  0.00  0.00    +0.000 C 
ATOM     13  O   UNL     1       8.130  14.863  21.186  0.00  0.00    +0.000 OA
ATOM     14  H   UNL     1       9.312  17.771  18.073  0.00  0.00    +0.000 HD
ENDROOT
BRANCH   2  15
ATOM     15  C   UNL     1       3.507  16.012  18.001  0.00  0.00    +0.000 A 
ATOM     16  C   UNL     1       3.143  16.988  17.087  0.00  0.00    +0.000 A 
ATOM     17  C   UNL     1       1.812  17.366  17.309  0.00  0.00    +0.000 A 
ATOM     18  C   UNL     1       0.984  18.310  16.684  0.00  0.00    +0.000 A 
ATOM     19  C   UNL     1      -0.326  18.450  17.130  0.00  0.00    +0.000 A 
ATOM     20  C   UNL     1      -0.801  17.656  18.177  0.00  0.00    +0.000 A 
ATOM     21  C   UNL     1       0.013  16.698  18.801  0.00  0.00    +0.000 A 
ATOM     22  C   UNL     1       1.329  16.573  18.343  0.00  0.00    +0.000 A 
ATOM     23  N   UNL     1       2.359  15.732  18.724  0.00  0.00    +0.000 N 
ATOM     24  H   UNL     1       2.297  15.014  19.433  0.00  0.00    +0.000 HD
ENDBRANCH   2  15
BRANCH  11  25
ATOM     25  C   UNL     1      10.826  14.140  20.275  0.00  0.00    +0.000 C 
BRANCH  25  26
ATOM     26  C   UNL     1      10.308  12.782  19.844  0.00  0.00    +0.000 A 
ATOM     27  C   UNL     1      10.254  12.448  18.480  0.00  0.00    +0.000 A 
ATOM     28  C   UNL     1       9.742  11.214  18.069  0.00  0.00    +0.000 A 
ATOM     29  C   UNL     1       9.268  10.310  19.016  0.00  0.00    +0.000 A 
ATOM     30 CL   UNL     1       8.604   8.807  18.505  0.00  0.00    +0.000 Cl
ATOM     31  C   UNL     1       9.316  10.624  20.372  0.00  0.00    +0.000 A 
ATOM     32  C   UNL     1       9.832  11.858  20.787  0.00  0.00    +0.000 A 
ENDBRANCH  25  26
ENDBRANCH  11  25
TORSDOF 3
ENDMDL
MODEL 4
REMARK VINA RESULT:      -8.2      4.439      9.899
REMARK  Name = 
REMARK  3 active torsions:
REMARK  status: ('A' for Active; 'I' for Inactive)
REMARK    1  A    between atoms: C_2  and  C_3
REMARK    2  A    between atoms: N_20  and  C_21
REMARK    3  A    between atoms: C_21  and  C_22
REMARK                            x       y       z     vdW  Elec       q    Type
REMARK                         _______ _______ _______ _____ _____    ______ ____
ROOT
ATOM      1  O   UNL     1       0.382   7.862  21.739  0.00  0.00    +0.000 OA
ATOM      2  C   UNL     1       1.118   7.734  20.754  0.00  0.00    +0.000 C 
ATOM      3  N   UNL     1       1.329   8.771  19.862  0.00  0.00    +0.000 N 
ATOM      4  C   UNL     1       1.951   8.711  18.556  0.00  0.00    +0.000 C 
ATOM      5  C   UNL     1       1.490   9.949  17.811  0.00  0.00    +0.000 C 
ATOM      6  C   UNL     1       1.061  10.914  18.908  0.00  0.00    +0.000 C 
ATOM      7  C   UNL     1       1.130  10.150  20.242  0.00  0.00    +0.000 C 
ATOM      8  N   UNL     1       1.790  12.159  18.919  0.00  0.00    +0.000 N 
ATOM      9  C   UNL     1       0.956  13.217  19.212  0.00  0.00    +0.000 C 
ATOM     10  O   UNL     1       1.348  14.353  19.407  0.00  0.00    +0.000 OA
ATOM     11  N   UNL     1      -0.329  12.763  19.195  0.00  0.00    +0.000 N 
ATOM     12  C   UNL     1      -0.360  11.458  18.788  0.00  0.00    +0.000 C 
ATOM     13  O   UNL     1      -1.352  10.815  18.473  0.00  0.00    +0.000 OA
ATOM     14  H   UNL     1       2.795  12.274  18.942  0.00  0.00    +0.000 HD
ENDROOT
BRANCH   2  15
ATOM     15  C   UNL     1       1.820   6.492  20.497  0.00  0.00    +0.000 A 
ATOM     16  C   UNL     1       1.385   5.188  20.674  0.00  0.00    +0.000 A 
ATOM     17  C   UNL     1       2.390   4.299  20.269  0.00  0.00    +0.000 A 
ATOM     18  C   UNL     1       2.462   2.898  20.262  0.00  0.00    +0.000 A 
ATOM     19  C   UNL     1       3.614   2.291  19.776  0.00  0.00    +0.000 A 
ATOM     20  C   UNL     1       4.673   3.068  19.300  0.00  0.00    +0.000 A 
ATOM     21  C   UNL     1       4.608   4.471  19.290  0.00  0.00    +0.000 A 
ATOM     22  C   UNL     1       3.442   5.066  19.785  0.00  0.00    +0.000 A 
ATOM     23  N   UNL     1       3.063   6.391  19.896  0.00  0.00    +0.000 N 
ATOM     24  H   UNL     1       3.610   7.185  19.590  0.00  0.00    +0.000 HD
ENDBRANCH   2  15
BRANCH  11  25
ATOM     25  C   UNL     1      -1.491  13.577  19.457  0.00  0.00    +0.000 C 
BRANCH  25  26
ATOM     26  C   UNL     1      -2.157  13.183  20.760  0.00  0.00    +0.000 A 
ATOM     27  C   UNL     1      -3.557  13.107  20.841  0.00  0.00    +0.000 A 
ATOM     28  C   UNL     1      -4.184  12.783  22.047  0.00  0.00    +0.000 A 
ATOM     29  C   UNL     1      -3.417  12.546  23.185  0.00  0.00    +0.000 A 
ATOM     30 CL   UNL     1      -4.193  12.183  24.678  0.00  0.00    +0.000 Cl
ATOM     31  C   UNL     1      -2.027  12.614  23.122  0.00  0.00    +0.000 A 
ATOM     32  C   UNL     1      -1.397  12.935  21.913  0.00  0.00    +0.000 A 
ENDBRANCH  25  26
ENDBRANCH  11  25
TORSDOF 3
ENDMDL
MODEL 5
REMARK VINA RESULT:      -7.8      3.386      8.761
REMARK  Name = 
REMARK  3 active torsions:
REMARK  status: ('A' for Active; 'I' for Inactive)
REMARK    1  A    between atoms: C_2  and  C_3
REMARK    2  A    between atoms: N_20  and  C_21
REMARK    3  A    between atoms: C_21  and  C_22
REMARK                            x       y       z     vdW  Elec       q    Type
REMARK                         _______ _______ _______ _____ _____    ______ ____
ROOT
ATOM      1  O   UNL     1       3.059   8.649  17.838  0.00  0.00    +0.000 OA
ATOM      2  C   UNL     1       2.421   7.936  18.620  0.00  0.00    +0.000 C 
ATOM      3  N   UNL     1       1.437   8.455  19.445  0.00  0.00    +0.000 N 
ATOM      4  C   UNL     1       0.783   7.814  20.566  0.00  0.00    +0.000 C 
ATOM      5  C   UNL     1       0.197   8.931  21.409  0.00  0.00    +0.000 C 
ATOM      6  C   UNL     1       0.087  10.111  20.451  0.00  0.00    +0.000 C 
ATOM      7  C   UNL     1       0.764   9.694  19.134  0.00  0.00    +0.000 C 
ATOM      8  N   UNL     1      -1.255  10.609  20.278  0.00  0.00    +0.000 N 
ATOM      9  C   UNL     1      -1.265  11.985  20.198  0.00  0.00    +0.000 C 
ATOM     10  O   UNL     1      -2.253  12.639  19.924  0.00  0.00    +0.000 OA
ATOM     11  N   UNL     1      -0.019  12.438  20.515  0.00  0.00    +0.000 N 
ATOM     12  C   UNL     1       0.773  11.396  20.909  0.00  0.00    +0.000 C 
ATOM     13  O   UNL     1       1.870  11.473  21.445  0.00  0.00    +0.000 OA
ATOM     14  H   UNL     1      -2.073  10.072  20.018  0.00  0.00    +0.000 HD
ENDROOT
BRANCH   2  15
ATOM     15  C   UNL     1       2.654   6.507  18.695  0.00  0.00    +0.000 A 
ATOM     16  C   UNL     1       2.096   5.489  17.938  0.00  0.00    +0.000 A 
ATOM     17  C   UNL     1       2.633   4.258  18.339  0.00  0.00    +0.000 A 
ATOM     18  C   UNL     1       2.396   2.943  17.913  0.00  0.00    +0.000 A 
ATOM     19  C   UNL     1       3.111   1.908  18.507  0.00  0.00    +0.000 A 
ATOM     20  C   UNL     1       4.051   2.184  19.503  0.00  0.00    +0.000 A 
ATOM     21  C   UNL     1       4.308   3.497  19.928  0.00  0.00    +0.000 A 
ATOM     22  C   UNL     1       3.577   4.526  19.323  0.00  0.00    +0.000 A 
ATOM     23  N   UNL     1       3.602   5.896  19.498  0.00  0.00    +0.000 N 
ATOM     24  H   UNL     1       4.219   6.396  20.125  0.00  0.00    +0.000 HD
ENDBRANCH   2  15
BRANCH  11  25
ATOM     25  C   UNL     1       0.366  13.828  20.543  0.00  0.00    +0.000 C 
BRANCH  25  26
ATOM     26  C   UNL     1       1.691  14.045  19.839  0.00  0.00    +0.000 A 
ATOM     27  C   UNL     1       2.761  14.650  20.520  0.00  0.00    +0.000 A 
ATOM     28  C   UNL     1       3.974  14.891  19.870  0.00  0.00    +0.000 A 
ATOM     29  C   UNL     1       4.124  14.542  18.531  0.00  0.00    +0.000 A 
ATOM     30 CL   UNL     1       5.607  14.873  17.721  0.00  0.00    +0.000 Cl
ATOM     31  C   UNL     1       3.075  13.938  17.840  0.00  0.00    +0.000 A 
ATOM     32  C   UNL     1       1.860  13.692  18.491  0.00  0.00    +0.000 A 
ENDBRANCH  25  26
ENDBRANCH  11  25
TORSDOF 3
ENDMDL
MODEL 6
REMARK VINA RESULT:      -7.8      1.312      1.370
REMARK  Name = 
REMARK  3 active torsions:
REMARK  status: ('A' for Active; 'I' for Inactive)
REMARK    1  A    between atoms: C_2  and  C_3
REMARK    2  A    between atoms: N_20  and  C_21
REMARK    3  A    between atoms: C_21  and  C_22
REMARK                            x       y       z     vdW  Elec       q    Type
REMARK                         _______ _______ _______ _____ _____    ______ ____
ROOT
ATOM      1  O   UNL     1       2.651   8.584  18.315  0.00  0.00    +0.000 OA
ATOM      2  C   UNL     1       1.956   8.212  19.266  0.00  0.00    +0.000 C 
ATOM      3  N   UNL     1       1.974   6.902  19.714  0.00  0.00    +0.000 N 
ATOM      4  C   UNL     1       1.060   6.262  20.637  0.00  0.00    +0.000 C 
ATOM      5  C   UNL     1       1.197   4.770  20.401  0.00  0.00    +0.000 C 
ATOM      6  C   UNL     1       2.560   4.615  19.739  0.00  0.00    +0.000 C 
ATOM      7  C   UNL     1       3.097   6.030  19.460  0.00  0.00    +0.000 C 
ATOM      8  N   UNL     1       3.482   3.783  20.471  0.00  0.00    +0.000 N 
ATOM      9  C   UNL     1       4.225   2.997  19.615  0.00  0.00    +0.000 C 
ATOM     10  O   UNL     1       5.159   2.303  19.973  0.00  0.00    +0.000 OA
ATOM     11  N   UNL     1       3.700   3.116  18.364  0.00  0.00    +0.000 N 
ATOM     12  C   UNL     1       2.562   3.875  18.403  0.00  0.00    +0.000 C 
ATOM     13  O   UNL     1       1.743   4.011  17.505  0.00  0.00    +0.000 OA
ATOM     14  H   UNL     1       3.750   3.881  21.442  0.00  0.00    +0.000 HD
ENDROOT
BRANCH   2  15
ATOM     15  C   UNL     1       1.101   9.139  19.981  0.00  0.00    +0.000 A 
ATOM     16  C   UNL     1       0.298  10.152  19.481  0.00  0.00    +0.000 A 
ATOM     17  C   UNL     1      -0.375  10.781  20.537  0.00  0.00    +0.000 A 
ATOM     18  C   UNL     1      -1.275  11.857  20.573  0.00  0.00    +0.000 A 
ATOM     19  C   UNL     1      -1.797  12.251  21.800  0.00  0.00    +0.000 A 
ATOM     20  C   UNL     1      -1.430  11.580  22.969  0.00  0.00    +0.000 A 
ATOM     21  C   UNL     1      -0.541  10.494  22.945  0.00  0.00    +0.000 A 
ATOM     22  C   UNL     1      -0.023  10.112  21.702  0.00  0.00    +0.000 A 
ATOM     23  N   UNL     1       0.842   9.096  21.341  0.00  0.00    +0.000 N 
ATOM     24  H   UNL     1       1.242   8.414  21.972  0.00  0.00    +0.000 HD
ENDBRANCH   2  15
BRANCH  11  25
ATOM     25  C   UNL     1       4.206   2.444  17.193  0.00  0.00    +0.000 C 
BRANCH  25  26
ATOM     26  C   UNL     1       5.141   3.340  16.405  0.00  0.00    +0.000 A 
ATOM     27  C   UNL     1       5.031   3.419  15.007  0.00  0.00    +0.000 A 
ATOM     28  C   UNL     1       5.913   4.211  14.266  0.00  0.00    +0.000 A 
ATOM     29  C   UNL     1       6.920   4.920  14.916  0.00  0.00    +0.000 A 
ATOM     30 CL   UNL     1       8.028   5.865  13.999  0.00  0.00    +0.000 Cl
ATOM     31  C   UNL     1       7.043   4.856  16.302  0.00  0.00    +0.000 A 
ATOM     32  C   UNL     1       6.157   4.065  17.046  0.00  0.00    +0.000 A 
ENDBRANCH  25  26
ENDBRANCH  11  25
TORSDOF 3
ENDMDL
MODEL 7
REMARK VINA RESULT:      -7.7      0.916      1.149
REMARK  Name = 
REMARK  3 active torsions:
REMARK  status: ('A' for Active; 'I' for Inactive)
REMARK    1  A    between atoms: C_2  and  C_3
REMARK    2  A    between atoms: N_20  and  C_21
REMARK    3  A    between atoms: C_21  and  C_22
REMARK                            x       y       z     vdW  Elec       q    Type
REMARK                         _______ _______ _______ _____ _____    ______ ____
ROOT
ATOM      1  O   UNL     1       2.224   9.165  17.992  0.00  0.00    +0.000 OA
ATOM      2  C   UNL     1       1.794   8.823  19.100  0.00  0.00    +0.000 C 
ATOM      3  N   UNL     1       2.011   7.554  19.607  0.00  0.00    +0.000 N 
ATOM      4  C   UNL     1       1.382   6.931  20.752  0.00  0.00    +0.000 C 
ATOM      5  C   UNL     1       1.572   5.436  20.578  0.00  0.00    +0.000 C 
ATOM      6  C   UNL     1       2.756   5.313  19.627  0.00  0.00    +0.000 C 
ATOM      7  C   UNL     1       3.108   6.732  19.149  0.00  0.00    +0.000 C 
ATOM      8  N   UNL     1       3.880   4.592  20.172  0.00  0.00    +0.000 N 
ATOM      9  C   UNL     1       4.464   3.790  19.214  0.00  0.00    +0.000 C 
ATOM     10  O   UNL     1       5.503   3.181  19.385  0.00  0.00    +0.000 OA
ATOM     11  N   UNL     1       3.659   3.786  18.115  0.00  0.00    +0.000 N 
ATOM     12  C   UNL     1       2.508   4.477  18.373  0.00  0.00    +0.000 C 
ATOM     13  O   UNL     1       1.497   4.499  17.684  0.00  0.00    +0.000 OA
ATOM     14  H   UNL     1       4.353   4.778  21.047  0.00  0.00    +0.000 HD
ENDROOT
BRANCH   2  15
ATOM     15  C   UNL     1       1.058   9.749  19.938  0.00  0.00    +0.000 A 
ATOM     16  C   UNL     1       0.438   9.523  21.156  0.00  0.00    +0.000 A 
ATOM     17  C   UNL     1      -0.132  10.716  21.621  0.00  0.00    +0.000 A 
ATOM     18  C   UNL     1      -0.875  11.020  22.772  0.00  0.00    +0.000 A 
ATOM     19  C   UNL     1      -1.301  12.329  22.966  0.00  0.00    +0.000 A 
ATOM     20  C   UNL     1      -0.986  13.318  22.031  0.00  0.00    +0.000 A 
ATOM     21  C   UNL     1      -0.232  13.030  20.882  0.00  0.00    +0.000 A 
ATOM     22  C   UNL     1       0.186  11.706  20.700  0.00  0.00    +0.000 A 
ATOM     23  N   UNL     1       0.940  11.110  19.707  0.00  0.00    +0.000 N 
ATOM     24  H   UNL     1       1.348  11.587  18.915  0.00  0.00    +0.000 HD
ENDBRANCH   2  15
BRANCH  11  25
ATOM     25  C   UNL     1       3.933   3.060  16.899  0.00  0.00    +0.000 C 
BRANCH  25  26
ATOM     26  C   UNL     1       4.971   3.772  16.055  0.00  0.00    +0.000 A 
ATOM     27  C   UNL     1       5.204   3.365  14.730  0.00  0.00    +0.000 A 
ATOM     28  C   UNL     1       6.185   3.988  13.955  0.00  0.00    +0.000 A 
ATOM     29  C   UNL     1       6.952   5.014  14.502  0.00  0.00    +0.000 A 
ATOM     30 CL   UNL     1       8.185   5.755  13.557  0.00  0.00    +0.000 Cl
ATOM     31  C   UNL     1       6.733   5.433  15.812  0.00  0.00    +0.000 A 
ATOM     32  C   UNL     1       5.747   4.812  16.589  0.00  0.00    +0.000 A 
ENDBRANCH  25  26
ENDBRANCH  11  25
TORSDOF 3
ENDMDL
MODEL 8
REMARK VINA RESULT:      -7.6      3.445      8.811
REMARK  Name = 
REMARK  3 active torsions:
REMARK  status: ('A' for Active; 'I' for Inactive)
REMARK    1  A    between atoms: C_2  and  C_3
REMARK    2  A    between atoms: N_20  and  C_21
REMARK    3  A    between atoms: C_21  and  C_22
REMARK                            x       y       z     vdW  Elec       q    Type
REMARK                         _______ _______ _______ _____ _____    ______ ____
ROOT
ATOM      1  O   UNL     1       2.690   8.936  17.562  0.00  0.00    +0.000 OA
ATOM      2  C   UNL     1       2.259   8.210  18.465  0.00  0.00    +0.000 C 
ATOM      3  N   UNL     1       1.426   8.698  19.458  0.00  0.00    +0.000 N 
ATOM      4  C   UNL     1       1.041   8.053  20.695  0.00  0.00    +0.000 C 
ATOM      5  C   UNL     1       0.565   9.159  21.618  0.00  0.00    +0.000 C 
ATOM      6  C   UNL     1       0.202  10.304  20.681  0.00  0.00    +0.000 C 
ATOM      7  C   UNL     1       0.633   9.889  19.264  0.00  0.00    +0.000 C 
ATOM      8  N   UNL     1      -1.175  10.723  20.766  0.00  0.00    +0.000 N 
ATOM      9  C   UNL     1      -1.282  12.094  20.667  0.00  0.00    +0.000 C 
ATOM     10  O   UNL     1      -2.342  12.685  20.581  0.00  0.00    +0.000 OA
ATOM     11  N   UNL     1      -0.028  12.623  20.727  0.00  0.00    +0.000 N 
ATOM     12  C   UNL     1       0.886  11.637  20.975  0.00  0.00    +0.000 C 
ATOM     13  O   UNL     1       2.060  11.789  21.285  0.00  0.00    +0.000 OA
ATOM     14  H   UNL     1      -1.995  10.135  20.679  0.00  0.00    +0.000 HD
ENDROOT
BRANCH   2  15
ATOM     15  C   UNL     1       2.586   6.799  18.516  0.00  0.00    +0.000 A 
ATOM     16  C   UNL     1       3.599   6.160  19.213  0.00  0.00    +0.000 A 
ATOM     17  C   UNL     1       3.524   4.779  18.989  0.00  0.00    +0.000 A 
ATOM     18  C   UNL     1       4.310   3.707  19.437  0.00  0.00    +0.000 A 
ATOM     19  C   UNL     1       3.968   2.417  19.045  0.00  0.00    +0.000 A 
ATOM     20  C   UNL     1       2.858   2.201  18.225  0.00  0.00    +0.000 A 
ATOM     21  C   UNL     1       2.056   3.264  17.780  0.00  0.00    +0.000 A 
ATOM     22  C   UNL     1       2.415   4.556  18.182  0.00  0.00    +0.000 A 
ATOM     23  N   UNL     1       1.838   5.788  17.937  0.00  0.00    +0.000 N 
ATOM     24  H   UNL     1       0.991   5.943  17.406  0.00  0.00    +0.000 HD
ENDBRANCH   2  15
BRANCH  11  25
ATOM     25  C   UNL     1       0.273  14.032  20.656  0.00  0.00    +0.000 C 
BRANCH  25  26
ATOM     26  C   UNL     1       1.570  14.281  19.912  0.00  0.00    +0.000 A 
ATOM     27  C   UNL     1       1.708  13.867  18.576  0.00  0.00    +0.000 A 
ATOM     28  C   UNL     1       2.912  14.056  17.893  0.00  0.00    +0.000 A 
ATOM     29  C   UNL     1       3.992  14.648  18.542  0.00  0.00    +0.000 A 
ATOM     30 CL   UNL     1       5.486  14.847  17.710  0.00  0.00    +0.000 Cl
ATOM     31  C   UNL     1       3.873  15.067  19.866  0.00  0.00    +0.000 A 
ATOM     32  C   UNL     1       2.666  14.882  20.551  0.00  0.00    +0.000 A 
ENDBRANCH  25  26
ENDBRANCH  11  25
TORSDOF 3
ENDMDL
MODEL 9
REMARK VINA RESULT:      -7.6      4.400     10.220
REMARK  Name = 
REMARK  3 active torsions:
REMARK  status: ('A' for Active; 'I' for Inactive)
REMARK    1  A    between atoms: C_2  and  C_3
REMARK    2  A    between atoms: N_20  and  C_21
REMARK    3  A    between atoms: C_21  and  C_22
REMARK                            x       y       z     vdW  Elec       q    Type
REMARK                         _______ _______ _______ _____ _____    ______ ____
ROOT
ATOM      1  O   UNL     1       1.939  11.283  18.423  0.00  0.00    +0.000 OA
ATOM      2  C   UNL     1       1.349  10.479  19.155  0.00  0.00    +0.000 C 
ATOM      3  N   UNL     1       0.349  10.882  20.023  0.00  0.00    +0.000 N 
ATOM      4  C   UNL     1      -0.257  10.125  21.098  0.00  0.00    +0.000 C 
ATOM      5  C   UNL     1      -0.892  11.143  22.026  0.00  0.00    +0.000 C 
ATOM      6  C   UNL     1      -1.076  12.382  21.160  0.00  0.00    +0.000 C 
ATOM      7  C   UNL     1      -0.394  12.102  19.810  0.00  0.00    +0.000 C 
ATOM      8  N   UNL     1      -2.445  12.818  21.035  0.00  0.00    +0.000 N 
ATOM      9  C   UNL     1      -2.530  14.194  21.058  0.00  0.00    +0.000 C 
ATOM     10  O   UNL     1      -3.556  14.812  20.841  0.00  0.00    +0.000 OA
ATOM     11  N   UNL     1      -1.307  14.690  21.399  0.00  0.00    +0.000 N 
ATOM     12  C   UNL     1      -0.455  13.665  21.708  0.00  0.00    +0.000 C 
ATOM     13  O   UNL     1       0.642  13.763  22.239  0.00  0.00    +0.000 OA
ATOM     14  H   UNL     1      -3.236  12.258  20.742  0.00  0.00    +0.000 HD
ENDROOT
BRANCH   2  15
ATOM     15  C   UNL     1       1.660   9.064  19.121  0.00  0.00    +0.000 A 
ATOM     16  C   UNL     1       2.153   8.301  18.075  0.00  0.00    +0.000 A 
ATOM     17  C   UNL     1       2.327   6.977  18.500  0.00  0.00    +0.000 A 
ATOM     18  C   UNL     1       2.773   5.825  17.836  0.00  0.00    +0.000 A 
ATOM     19  C   UNL     1       2.851   4.632  18.547  0.00  0.00    +0.000 A 
ATOM     20  C   UNL     1       2.496   4.592  19.898  0.00  0.00    +0.000 A 
ATOM     21  C   UNL     1       2.061   5.741  20.577  0.00  0.00    +0.000 A 
ATOM     22  C   UNL     1       1.985   6.933  19.846  0.00  0.00    +0.000 A 
ATOM     23  N   UNL     1       1.619   8.214  20.214  0.00  0.00    +0.000 N 
ATOM     24  H   UNL     1       1.353   8.503  21.146  0.00  0.00    +0.000 HD
ENDBRANCH   2  15
BRANCH  11  25
ATOM     25  C   UNL     1      -0.997  16.092  21.527  0.00  0.00    +0.000 C 
BRANCH  25  26
ATOM     26  C   UNL     1      -0.604  16.693  20.192  0.00  0.00    +0.000 A 
ATOM     27  C   UNL     1      -1.545  17.415  19.439  0.00  0.00    +0.000 A 
ATOM     28  C   UNL     1      -1.206  17.940  18.189  0.00  0.00    +0.000 A 
ATOM     29  C   UNL     1       0.072  17.737  17.676  0.00  0.00    +0.000 A 
ATOM     30 CL   UNL     1       0.476  18.353  16.120  0.00  0.00    +0.000 Cl
ATOM     31  C   UNL     1       1.019  17.026  18.410  0.00  0.00    +0.000 A 
ATOM     32  C   UNL     1       0.682  16.503  19.664  0.00  0.00    +0.000 A 
ENDBRANCH  25  26
ENDBRANCH  11  25
TORSDOF 3
ENDMDL
