MODEL 1
REMARK VINA RESULT:      -6.9      0.000      0.000
REMARK  Name = 
REMARK  4 active torsions:
REMARK  status: ('A' for Active; 'I' for Inactive)
REMARK    1  A    between atoms: N_9  and  C_10
REMARK    2  A    between atoms: C_10  and  C_11
REMARK    3  A    between atoms: N_18  and  C_19
REMARK    4  A    between atoms: C_19  and  C_20
REMARK                            x       y       z     vdW  Elec       q    Type
REMARK                         _______ _______ _______ _____ _____    ______ ____
ROOT
ATOM      1  O   UNL     1       4.534   2.334  17.046  0.00  0.00    +0.000 OA
ATOM      2  C   UNL     1       4.818   3.521  16.905  0.00  0.00    +0.000 C 
ATOM      3  C   UNL     1       6.250   4.012  16.571  0.00  0.00    +0.000 C 
ATOM      4  S   UNL     1       6.998   4.695  18.099  0.00  0.00    +0.000 S 
ATOM      5  S   UNL     1       5.579   6.136  18.565  0.00  0.00    +0.000 S 
ATOM      6  C   UNL     1       4.441   5.939  17.137  0.00  0.00    +0.000 C 
ATOM      7  C   UNL     1       5.269   6.146  15.838  0.00  0.00    +0.000 C 
ATOM      8  O   UNL     1       5.208   7.164  15.163  0.00  0.00    +0.000 OA
ATOM      9  N   UNL     1       6.133   5.078  15.567  0.00  0.00    +0.000 N 
ATOM     10  N   UNL     1       3.908   4.572  17.080  0.00  0.00    +0.000 N 
ENDROOT
BRANCH   9  11
ATOM     11  C   UNL     1       6.944   5.044  14.365  0.00  0.00    +0.000 C 
BRANCH  11  12
ATOM     12  C   UNL     1       6.305   4.185  13.298  0.00  0.00    +0.000 A 
ATOM     13  C   UNL     1       4.911   4.190  13.131  0.00  0.00    +0.000 A 
ATOM     14  C   UNL     1       4.299   3.339  12.209  0.00  0.00    +0.000 A 
ATOM     15  C   UNL     1       5.074   2.473  11.440  0.00  0.00    +0.000 A 
ATOM     16  C   UNL     1       6.458   2.478  11.581  0.00  0.00    +0.000 A 
ATOM     17 CL   UNL     1       7.419   1.421  10.621  0.00  0.00    +0.000 Cl
ATOM     18  C   UNL     1       7.077   3.327  12.502  0.00  0.00    +0.000 A 
ENDBRANCH  11  12
ENDBRANCH   9  11
BRANCH  10  19
ATOM     19  C   UNL     1       2.485   4.330  17.243  0.00  0.00    +0.000 C 
BRANCH  19  20
ATOM     20  C   UNL     1       2.092   4.015  18.664  0.00  0.00    +0.000 A 
ATOM     21  C   UNL     1       2.223   4.969  19.683  0.00  0.00    +0.000 A 
ATOM     22  C   UNL     1       1.928   4.632  21.006  0.00  0.00    +0.000 A 
ATOM     23  C   UNL     1       1.483   3.349  21.321  0.00  0.00    +0.000 A 
ATOM     24  C   UNL     1       1.307   2.407  20.311  0.00  0.00    +0.000 A 
ATOM     25  C   UNL     1       1.611   2.739  18.991  0.00  0.00    +0.000 A 
ENDBRANCH  19  20
ENDBRANCH  10  19
TORSDOF 4
ENDMDL
MODEL 2
REMARK VINA RESULT:      -6.8      1.040      1.408
REMARK  Name = 
REMARK  4 active torsions:
REMARK  status: ('A' for Active; 'I' for Inactive)
REMARK    1  A    between atoms: N_9  and  C_10
REMARK    2  A    between atoms: C_10  and  C_11
REMARK    3  A    between atoms: N_18  and  C_19
REMARK    4  A    between atoms: C_19  and  C_20
REMARK                            x       y       z     vdW  Elec       q    Type
REMARK                         _______ _______ _______ _____ _____    ______ ____
ROOT
ATOM      1  O   UNL     1       4.714   2.241  16.745  0.00  0.00    +0.000 OA
ATOM      2  C   UNL     1       4.955   3.438  16.621  0.00  0.00    +0.000 C 
ATOM      3  C   UNL     1       6.345   3.980  16.198  0.00  0.00    +0.000 C 
ATOM      4  S   UNL     1       7.186   4.639  17.687  0.00  0.00    +0.000 S 
ATOM      5  S   UNL     1       5.769   6.025  18.301  0.00  0.00    +0.000 S 
ATOM      6  C   UNL     1       4.533   5.837  16.955  0.00  0.00    +0.000 C 
ATOM      7  C   UNL     1       5.256   6.105  15.606  0.00  0.00    +0.000 C 
ATOM      8  O   UNL     1       5.118   7.140  14.969  0.00  0.00    +0.000 OA
ATOM      9  N   UNL     1       6.126   5.071  15.238  0.00  0.00    +0.000 N 
ATOM     10  N   UNL     1       4.034   4.457  16.895  0.00  0.00    +0.000 N 
ENDROOT
BRANCH   9  11
ATOM     11  C   UNL     1       6.845   5.095  13.979  0.00  0.00    +0.000 C 
BRANCH  11  12
ATOM     12  C   UNL     1       6.342   4.022  13.041  0.00  0.00    +0.000 A 
ATOM     13  C   UNL     1       7.222   3.041  12.555  0.00  0.00    +0.000 A 
ATOM     14  C   UNL     1       6.792   2.096  11.621  0.00  0.00    +0.000 A 
ATOM     15  C   UNL     1       5.476   2.118  11.162  0.00  0.00    +0.000 A 
ATOM     16  C   UNL     1       4.591   3.072  11.657  0.00  0.00    +0.000 A 
ATOM     17 CL   UNL     1       2.961   3.092  11.104  0.00  0.00    +0.000 Cl
ATOM     18  C   UNL     1       5.014   4.021  12.591  0.00  0.00    +0.000 A 
ENDBRANCH  11  12
ENDBRANCH   9  11
BRANCH  10  19
ATOM     19  C   UNL     1       2.634   4.170  17.155  0.00  0.00    +0.000 C 
BRANCH  19  20
ATOM     20  C   UNL     1       2.322   3.997  18.620  0.00  0.00    +0.000 A 
ATOM     21  C   UNL     1       2.200   5.102  19.473  0.00  0.00    +0.000 A 
ATOM     22  C   UNL     1       1.990   4.916  20.842  0.00  0.00    +0.000 A 
ATOM     23  C   UNL     1       1.880   3.629  21.367  0.00  0.00    +0.000 A 
ATOM     24  C   UNL     1       1.956   2.525  20.522  0.00  0.00    +0.000 A 
ATOM     25  C   UNL     1       2.177   2.709  19.157  0.00  0.00    +0.000 A 
ENDBRANCH  19  20
ENDBRANCH  10  19
TORSDOF 4
ENDMDL
MODEL 3
REMARK VINA RESULT:      -6.7      2.750      7.268
REMARK  Name = 
REMARK  4 active torsions:
REMARK  status: ('A' for Active; 'I' for Inactive)
REMARK    1  A    between atoms: N_9  and  C_10
REMARK    2  A    between atoms: C_10  and  C_11
REMARK    3  A    between atoms: N_18  and  C_19
REMARK    4  A    between atoms: C_19  and  C_20
REMARK                            x       y       z     vdW  Elec       q    Type
REMARK                         _______ _______ _______ _____ _____    ______ ____
ROOT
ATOM      1  O   UNL     1       5.167   7.064  14.835  0.00  0.00    +0.000 OA
ATOM      2  C   UNL     1       5.361   6.031  15.470  0.00  0.00    +0.000 C 
ATOM      3  C   UNL     1       4.642   5.713  16.806  0.00  0.00    +0.000 C 
ATOM      4  S   UNL     1       5.822   5.998  18.180  0.00  0.00    +0.000 S 
ATOM      5  S   UNL     1       7.351   4.724  17.593  0.00  0.00    +0.000 S 
ATOM      6  C   UNL     1       6.600   3.999  16.082  0.00  0.00    +0.000 C 
ATOM      7  C   UNL     1       5.248   3.351  16.487  0.00  0.00    +0.000 C 
ATOM      8  O   UNL     1       5.092   2.142  16.594  0.00  0.00    +0.000 OA
ATOM      9  N   UNL     1       4.257   4.296  16.780  0.00  0.00    +0.000 N 
ATOM     10  N   UNL     1       6.286   5.045  15.102  0.00  0.00    +0.000 N 
ENDROOT
BRANCH   9  11
ATOM     11  C   UNL     1       2.902   3.898  17.113  0.00  0.00    +0.000 C 
BRANCH  11  12
ATOM     12  C   UNL     1       2.643   4.027  18.596  0.00  0.00    +0.000 A 
ATOM     13  C   UNL     1       2.821   2.920  19.442  0.00  0.00    +0.000 A 
ATOM     14  C   UNL     1       2.504   3.000  20.799  0.00  0.00    +0.000 A 
ATOM     15  C   UNL     1       2.007   4.189  21.329  0.00  0.00    +0.000 A 
ATOM     16  C   UNL     1       1.851   5.299  20.504  0.00  0.00    +0.000 A 
ATOM     17 CL   UNL     1       1.252   6.773  21.160  0.00  0.00    +0.000 Cl
ATOM     18  C   UNL     1       2.166   5.226  19.145  0.00  0.00    +0.000 A 
ENDBRANCH  11  12
ENDBRANCH   9  11
BRANCH  10  19
ATOM     19  C   UNL     1       6.952   5.069  13.811  0.00  0.00    +0.000 C 
BRANCH  19  20
ATOM     20  C   UNL     1       6.426   4.037  12.847  0.00  0.00    +0.000 A 
ATOM     21  C   UNL     1       5.050   3.857  12.654  0.00  0.00    +0.000 A 
ATOM     22  C   UNL     1       4.583   2.840  11.817  0.00  0.00    +0.000 A 
ATOM     23  C   UNL     1       5.483   2.009  11.152  0.00  0.00    +0.000 A 
ATOM     24  C   UNL     1       6.852   2.207  11.302  0.00  0.00    +0.000 A 
ATOM     25  C   UNL     1       7.321   3.214  12.146  0.00  0.00    +0.000 A 
ENDBRANCH  19  20
ENDBRANCH  10  19
TORSDOF 4
ENDMDL
MODEL 4
REMARK VINA RESULT:      -6.5      2.601      7.191
REMARK  Name = 
REMARK  4 active torsions:
REMARK  status: ('A' for Active; 'I' for Inactive)
REMARK    1  A    between atoms: N_9  and  C_10
REMARK    2  A    between atoms: C_10  and  C_11
REMARK    3  A    between atoms: N_18  and  C_19
REMARK    4  A    between atoms: C_19  and  C_20
REMARK                            x       y       z     vdW  Elec       q    Type
REMARK                         _______ _______ _______ _____ _____    ______ ____
ROOT
ATOM      1  O   UNL     1       5.165   7.124  14.880  0.00  0.00    +0.000 OA
ATOM      2  C   UNL     1       5.315   6.086  15.518  0.00  0.00    +0.000 C 
ATOM      3  C   UNL     1       4.542   5.781  16.827  0.00  0.00    +0.000 C 
ATOM      4  S   UNL     1       5.680   6.036  18.242  0.00  0.00    +0.000 S 
ATOM      5  S   UNL     1       7.200   4.730  17.705  0.00  0.00    +0.000 S 
ATOM      6  C   UNL     1       6.487   4.025  16.166  0.00  0.00    +0.000 C 
ATOM      7  C   UNL     1       5.107   3.406  16.522  0.00  0.00    +0.000 C 
ATOM      8  O   UNL     1       4.920   2.201  16.619  0.00  0.00    +0.000 OA
ATOM      9  N   UNL     1       4.127   4.372  16.783  0.00  0.00    +0.000 N 
ATOM     10  N   UNL     1       6.230   5.081  15.179  0.00  0.00    +0.000 N 
ENDROOT
BRANCH   9  11
ATOM     11  C   UNL     1       2.753   4.004  17.067  0.00  0.00    +0.000 C 
BRANCH  11  12
ATOM     12  C   UNL     1       2.389   4.317  18.500  0.00  0.00    +0.000 A 
ATOM     13  C   UNL     1       2.247   5.652  18.915  0.00  0.00    +0.000 A 
ATOM     14  C   UNL     1       1.995   5.960  20.253  0.00  0.00    +0.000 A 
ATOM     15  C   UNL     1       1.879   4.938  21.194  0.00  0.00    +0.000 A 
ATOM     16  C   UNL     1       1.994   3.612  20.787  0.00  0.00    +0.000 A 
ATOM     17 CL   UNL     1       1.836   2.347  21.944  0.00  0.00    +0.000 Cl
ATOM     18  C   UNL     1       2.246   3.296  19.450  0.00  0.00    +0.000 A 
ENDBRANCH  11  12
ENDBRANCH   9  11
BRANCH  10  19
ATOM     19  C   UNL     1       6.941   5.093  13.912  0.00  0.00    +0.000 C 
BRANCH  19  20
ATOM     20  C   UNL     1       6.426   4.075  12.927  0.00  0.00    +0.000 A 
ATOM     21  C   UNL     1       5.052   3.899  12.716  0.00  0.00    +0.000 A 
ATOM     22  C   UNL     1       4.594   2.895  11.858  0.00  0.00    +0.000 A 
ATOM     23  C   UNL     1       5.501   2.074  11.191  0.00  0.00    +0.000 A 
ATOM     24  C   UNL     1       6.869   2.269  11.359  0.00  0.00    +0.000 A 
ATOM     25  C   UNL     1       7.328   3.263  12.224  0.00  0.00    +0.000 A 
ENDBRANCH  19  20
ENDBRANCH  10  19
TORSDOF 4
ENDMDL
MODEL 5
REMARK VINA RESULT:      -6.5      3.018      7.122
REMARK  Name = 
REMARK  4 active torsions:
REMARK  status: ('A' for Active; 'I' for Inactive)
REMARK    1  A    between atoms: N_9  and  C_10
REMARK    2  A    between atoms: C_10  and  C_11
REMARK    3  A    between atoms: N_18  and  C_19
REMARK    4  A    between atoms: C_19  and  C_20
REMARK                            x       y       z     vdW  Elec       q    Type
REMARK                         _______ _______ _______ _____ _____    ______ ____
ROOT
ATOM      1  O   UNL     1       4.700   5.990  14.993  0.00  0.00    +0.000 OA
ATOM      2  C   UNL     1       5.149   5.752  16.112  0.00  0.00    +0.000 C 
ATOM      3  C   UNL     1       4.915   6.683  17.330  0.00  0.00    +0.000 C 
ATOM      4  S   UNL     1       6.454   7.632  17.636  0.00  0.00    +0.000 S 
ATOM      5  S   UNL     1       7.787   6.061  17.877  0.00  0.00    +0.000 S 
ATOM      6  C   UNL     1       6.638   4.638  17.718  0.00  0.00    +0.000 C 
ATOM      7  C   UNL     1       5.528   4.802  18.792  0.00  0.00    +0.000 C 
ATOM      8  O   UNL     1       5.486   4.136  19.817  0.00  0.00    +0.000 OA
ATOM      9  N   UNL     1       4.628   5.832  18.492  0.00  0.00    +0.000 N 
ATOM     10  N   UNL     1       5.964   4.654  16.414  0.00  0.00    +0.000 N 
ENDROOT
BRANCH   9  11
ATOM     11  C   UNL     1       3.477   6.105  19.333  0.00  0.00    +0.000 C 
BRANCH  11  12
ATOM     12  C   UNL     1       2.559   4.907  19.409  0.00  0.00    +0.000 A 
ATOM     13  C   UNL     1       1.890   4.458  18.258  0.00  0.00    +0.000 A 
ATOM     14  C   UNL     1       0.973   3.407  18.330  0.00  0.00    +0.000 A 
ATOM     15  C   UNL     1       0.715   2.790  19.553  0.00  0.00    +0.000 A 
ATOM     16  C   UNL     1       1.393   3.212  20.693  0.00  0.00    +0.000 A 
ATOM     17 CL   UNL     1       1.088   2.440  22.201  0.00  0.00    +0.000 Cl
ATOM     18  C   UNL     1       2.311   4.262  20.629  0.00  0.00    +0.000 A 
ENDBRANCH  11  12
ENDBRANCH   9  11
BRANCH  10  19
ATOM     19  C   UNL     1       6.180   3.580  15.460  0.00  0.00    +0.000 C 
BRANCH  19  20
ATOM     20  C   UNL     1       6.708   4.057  14.131  0.00  0.00    +0.000 A 
ATOM     21  C   UNL     1       7.687   5.057  14.054  0.00  0.00    +0.000 A 
ATOM     22  C   UNL     1       8.104   5.540  12.811  0.00  0.00    +0.000 A 
ATOM     23  C   UNL     1       7.563   5.019  11.637  0.00  0.00    +0.000 A 
ATOM     24  C   UNL     1       6.622   3.995  11.701  0.00  0.00    +0.000 A 
ATOM     25  C   UNL     1       6.196   3.519  12.941  0.00  0.00    +0.000 A 
ENDBRANCH  19  20
ENDBRANCH  10  19
TORSDOF 4
ENDMDL
MODEL 6
REMARK VINA RESULT:      -6.2      1.838      2.304
REMARK  Name = 
REMARK  4 active torsions:
REMARK  status: ('A' for Active; 'I' for Inactive)
REMARK    1  A    between atoms: N_9  and  C_10
REMARK    2  A    between atoms: C_10  and  C_11
REMARK    3  A    between atoms: N_18  and  C_19
REMARK    4  A    between atoms: C_19  and  C_20
REMARK                            x       y       z     vdW  Elec       q    Type
REMARK                         _______ _______ _______ _____ _____    ______ ____
ROOT
ATOM      1  O   UNL     1       5.517   4.185  20.035  0.00  0.00    +0.000 OA
ATOM      2  C   UNL     1       5.511   4.775  18.958  0.00  0.00    +0.000 C 
ATOM      3  C   UNL     1       6.534   4.485  17.830  0.00  0.00    +0.000 C 
ATOM      4  S   UNL     1       7.774   5.835  17.812  0.00  0.00    +0.000 S 
ATOM      5  S   UNL     1       6.511   7.462  17.560  0.00  0.00    +0.000 S 
ATOM      6  C   UNL     1       4.897   6.596  17.426  0.00  0.00    +0.000 C 
ATOM      7  C   UNL     1       4.998   5.582  16.253  0.00  0.00    +0.000 C 
ATOM      8  O   UNL     1       4.473   5.767  15.163  0.00  0.00    +0.000 OA
ATOM      9  N   UNL     1       5.803   4.477  16.555  0.00  0.00    +0.000 N 
ATOM     10  N   UNL     1       4.624   5.811  18.636  0.00  0.00    +0.000 N 
ENDROOT
BRANCH   9  11
ATOM     11  C   UNL     1       5.972   3.382  15.620  0.00  0.00    +0.000 C 
BRANCH  11  12
ATOM     12  C   UNL     1       6.409   3.883  14.263  0.00  0.00    +0.000 A 
ATOM     13  C   UNL     1       5.804   3.382  13.099  0.00  0.00    +0.000 A 
ATOM     14  C   UNL     1       6.255   3.771  11.836  0.00  0.00    +0.000 A 
ATOM     15  C   UNL     1       7.317   4.668  11.721  0.00  0.00    +0.000 A 
ATOM     16  C   UNL     1       7.906   5.188  12.870  0.00  0.00    +0.000 A 
ATOM     17 CL   UNL     1       9.206   6.307  12.731  0.00  0.00    +0.000 Cl
ATOM     18  C   UNL     1       7.459   4.803  14.137  0.00  0.00    +0.000 A 
ENDBRANCH  11  12
ENDBRANCH   9  11
BRANCH  10  19
ATOM     19  C   UNL     1       3.491   6.137  19.485  0.00  0.00    +0.000 C 
BRANCH  19  20
ATOM     20  C   UNL     1       2.466   5.035  19.561  0.00  0.00    +0.000 A 
ATOM     21  C   UNL     1       2.020   4.541  20.795  0.00  0.00    +0.000 A 
ATOM     22  C   UNL     1       1.129   3.466  20.843  0.00  0.00    +0.000 A 
ATOM     23  C   UNL     1       0.661   2.888  19.664  0.00  0.00    +0.000 A 
ATOM     24  C   UNL     1       1.062   3.399  18.433  0.00  0.00    +0.000 A 
ATOM     25  C   UNL     1       1.961   4.465  18.383  0.00  0.00    +0.000 A 
ENDBRANCH  19  20
ENDBRANCH  10  19
TORSDOF 4
ENDMDL
MODEL 7
REMARK VINA RESULT:      -6.2      3.529      5.029
REMARK  Name = 
REMARK  4 active torsions:
REMARK  status: ('A' for Active; 'I' for Inactive)
REMARK    1  A    between atoms: N_9  and  C_10
REMARK    2  A    between atoms: C_10  and  C_11
REMARK    3  A    between atoms: N_18  and  C_19
REMARK    4  A    between atoms: C_19  and  C_20
REMARK                            x       y       z     vdW  Elec       q    Type
REMARK                         _______ _______ _______ _____ _____    ______ ____
ROOT
ATOM      1  O   UNL     1       1.801   6.663  17.492  0.00  0.00    +0.000 OA
ATOM      2  C   UNL     1       2.214   5.751  18.203  0.00  0.00    +0.000 C 
ATOM      3  C   UNL     1       2.202   4.265  17.761  0.00  0.00    +0.000 C 
ATOM      4  S   UNL     1       0.818   3.419  18.617  0.00  0.00    +0.000 S 
ATOM      5  S   UNL     1       1.329   3.825  20.586  0.00  0.00    +0.000 S 
ATOM      6  C   UNL     1       2.907   4.729  20.328  0.00  0.00    +0.000 C 
ATOM      7  C   UNL     1       3.858   3.803  19.521  0.00  0.00    +0.000 C 
ATOM      8  O   UNL     1       4.805   3.216  20.025  0.00  0.00    +0.000 OA
ATOM      9  N   UNL     1       3.475   3.664  18.181  0.00  0.00    +0.000 N 
ATOM     10  N   UNL     1       2.693   5.927  19.507  0.00  0.00    +0.000 N 
ENDROOT
BRANCH   9  11
ATOM     11  C   UNL     1       4.268   2.896  17.240  0.00  0.00    +0.000 C 
BRANCH  11  12
ATOM     12  C   UNL     1       5.234   3.782  16.489  0.00  0.00    +0.000 A 
ATOM     13  C   UNL     1       5.581   3.480  15.161  0.00  0.00    +0.000 A 
ATOM     14  C   UNL     1       6.537   4.239  14.483  0.00  0.00    +0.000 A 
ATOM     15  C   UNL     1       7.157   5.311  15.122  0.00  0.00    +0.000 A 
ATOM     16  C   UNL     1       6.802   5.633  16.429  0.00  0.00    +0.000 A 
ATOM     17 CL   UNL     1       7.554   6.966  17.215  0.00  0.00    +0.000 Cl
ATOM     18  C   UNL     1       5.846   4.878  17.114  0.00  0.00    +0.000 A 
ENDBRANCH  11  12
ENDBRANCH   9  11
BRANCH  10  19
ATOM     19  C   UNL     1       2.934   7.250  20.058  0.00  0.00    +0.000 C 
BRANCH  19  20
ATOM     20  C   UNL     1       1.670   8.033  20.306  0.00  0.00    +0.000 A 
ATOM     21  C   UNL     1       1.316   9.119  19.494  0.00  0.00    +0.000 A 
ATOM     22  C   UNL     1       0.183   9.880  19.789  0.00  0.00    +0.000 A 
ATOM     23  C   UNL     1      -0.617   9.554  20.884  0.00  0.00    +0.000 A 
ATOM     24  C   UNL     1      -0.299   8.451  21.672  0.00  0.00    +0.000 A 
ATOM     25  C   UNL     1       0.839   7.697  21.385  0.00  0.00    +0.000 A 
ENDBRANCH  19  20
ENDBRANCH  10  19
TORSDOF 4
ENDMDL
MODEL 8
REMARK VINA RESULT:      -6.2      2.347      7.023
REMARK  Name = 
REMARK  4 active torsions:
REMARK  status: ('A' for Active; 'I' for Inactive)
REMARK    1  A    between atoms: N_9  and  C_10
REMARK    2  A    between atoms: C_10  and  C_11
REMARK    3  A    between atoms: N_18  and  C_19
REMARK    4  A    between atoms: C_19  and  C_20
REMARK                            x       y       z     vdW  Elec       q    Type
REMARK                         _______ _______ _______ _____ _____    ______ ____
ROOT
ATOM      1  O   UNL     1       5.150   7.211  15.135  0.00  0.00    +0.000 OA
ATOM      2  C   UNL     1       5.275   6.135  15.714  0.00  0.00    +0.000 C 
ATOM      3  C   UNL     1       4.529   5.793  17.029  0.00  0.00    +0.000 C 
ATOM      4  S   UNL     1       5.717   5.928  18.420  0.00  0.00    +0.000 S 
ATOM      5  S   UNL     1       7.165   4.592  17.768  0.00  0.00    +0.000 S 
ATOM      6  C   UNL     1       6.379   3.998  16.218  0.00  0.00    +0.000 C 
ATOM      7  C   UNL     1       4.985   3.417  16.585  0.00  0.00    +0.000 C 
ATOM      8  O   UNL     1       4.752   2.217  16.626  0.00  0.00    +0.000 OA
ATOM      9  N   UNL     1       4.055   4.407  16.926  0.00  0.00    +0.000 N 
ATOM     10  N   UNL     1       6.137   5.114  15.295  0.00  0.00    +0.000 N 
ENDROOT
BRANCH   9  11
ATOM     11  C   UNL     1       2.676   4.079  17.234  0.00  0.00    +0.000 C 
BRANCH  11  12
ATOM     12  C   UNL     1       2.525   3.646  18.674  0.00  0.00    +0.000 A 
ATOM     13  C   UNL     1       1.411   4.061  19.422  0.00  0.00    +0.000 A 
ATOM     14  C   UNL     1       1.301   3.741  20.776  0.00  0.00    +0.000 A 
ATOM     15  C   UNL     1       2.303   2.999  21.400  0.00  0.00    +0.000 A 
ATOM     16  C   UNL     1       3.398   2.562  20.660  0.00  0.00    +0.000 A 
ATOM     17 CL   UNL     1       4.628   1.632  21.425  0.00  0.00    +0.000 Cl
ATOM     18  C   UNL     1       3.515   2.879  19.305  0.00  0.00    +0.000 A 
ENDBRANCH  11  12
ENDBRANCH   9  11
BRANCH  10  19
ATOM     19  C   UNL     1       6.811   5.165  14.009  0.00  0.00    +0.000 C 
BRANCH  19  20
ATOM     20  C   UNL     1       6.345   4.102  13.048  0.00  0.00    +0.000 A 
ATOM     21  C   UNL     1       7.259   3.292  12.359  0.00  0.00    +0.000 A 
ATOM     22  C   UNL     1       6.808   2.368  11.413  0.00  0.00    +0.000 A 
ATOM     23  C   UNL     1       5.444   2.229  11.161  0.00  0.00    +0.000 A 
ATOM     24  C   UNL     1       4.525   2.996  11.871  0.00  0.00    +0.000 A 
ATOM     25  C   UNL     1       4.974   3.928  12.808  0.00  0.00    +0.000 A 
ENDBRANCH  19  20
ENDBRANCH  10  19
TORSDOF 4
ENDMDL
MODEL 9
REMARK VINA RESULT:      -6.1     10.995     13.137
REMARK  Name = 
REMARK  4 active torsions:
REMARK  status: ('A' for Active; 'I' for Inactive)
REMARK    1  A    between atoms: N_9  and  C_10
REMARK    2  A    between atoms: C_10  and  C_11
REMARK    3  A    between atoms: N_18  and  C_19
REMARK    4  A    between atoms: C_19  and  C_20
REMARK                            x       y       z     vdW  Elec       q    Type
REMARK                         _______ _______ _______ _____ _____    ______ ____
ROOT
ATOM      1  O   UNL     1      -3.559  11.894  23.920  0.00  0.00    +0.000 OA
ATOM      2  C   UNL     1      -3.308  12.974  23.392  0.00  0.00    +0.000 C 
ATOM      3  C   UNL     1      -1.874  13.557  23.304  0.00  0.00    +0.000 C 
ATOM      4  S   UNL     1      -1.711  14.882  24.561  0.00  0.00    +0.000 S 
ATOM      5  S   UNL     1      -3.278  16.109  23.975  0.00  0.00    +0.000 S 
ATOM      6  C   UNL     1      -3.867  15.193  22.496  0.00  0.00    +0.000 C 
ATOM      7  C   UNL     1      -2.669  15.050  21.518  0.00  0.00    +0.000 C 
ATOM      8  O   UNL     1      -2.557  15.716  20.498  0.00  0.00    +0.000 OA
ATOM      9  N   UNL     1      -1.708  14.134  21.963  0.00  0.00    +0.000 N 
ATOM     10  N   UNL     1      -4.278  13.831  22.857  0.00  0.00    +0.000 N 
ENDROOT
BRANCH   9  11
ATOM     11  C   UNL     1      -0.545  13.804  21.162  0.00  0.00    +0.000 C 
BRANCH  11  12
ATOM     12  C   UNL     1      -0.761  12.528  20.383  0.00  0.00    +0.000 A 
ATOM     13  C   UNL     1      -0.213  11.319  20.843  0.00  0.00    +0.000 A 
ATOM     14  C   UNL     1      -0.331  10.149  20.091  0.00  0.00    +0.000 A 
ATOM     15  C   UNL     1      -1.001  10.171  18.869  0.00  0.00    +0.000 A 
ATOM     16  C   UNL     1      -1.568  11.359  18.416  0.00  0.00    +0.000 A 
ATOM     17 CL   UNL     1      -2.410  11.386  16.915  0.00  0.00    +0.000 Cl
ATOM     18  C   UNL     1      -1.454  12.534  19.164  0.00  0.00    +0.000 A 
ENDBRANCH  11  12
ENDBRANCH   9  11
BRANCH  10  19
ATOM     19  C   UNL     1      -5.660  13.412  22.697  0.00  0.00    +0.000 C 
BRANCH  19  20
ATOM     20  C   UNL     1      -5.909  12.645  21.424  0.00  0.00    +0.000 A 
ATOM     21  C   UNL     1      -4.955  12.608  20.398  0.00  0.00    +0.000 A 
ATOM     22  C   UNL     1      -5.238  11.958  19.195  0.00  0.00    +0.000 A 
ATOM     23  C   UNL     1      -6.466  11.323  19.011  0.00  0.00    +0.000 A 
ATOM     24  C   UNL     1      -7.404  11.315  20.040  0.00  0.00    +0.000 A 
ATOM     25  C   UNL     1      -7.127  11.974  21.238  0.00  0.00    +0.000 A 
ENDBRANCH  19  20
ENDBRANCH  10  19
TORSDOF 4
ENDMDL
