MODEL 1
REMARK VINA RESULT:      -6.5      0.000      0.000
REMARK  Name = 
REMARK  1 active torsions:
REMARK  status: ('A' for Active; 'I' for Inactive)
REMARK    1  A    between atoms: C_8  and  C_9
REMARK                            x       y       z     vdW  Elec       q    Type
REMARK                         _______ _______ _______ _____ _____    ______ ____
ROOT
ATOM      1  O   UNL     1       7.914   4.753  18.731  0.00  0.00    +0.000 OA
ATOM      2  C   UNL     1       7.115   4.614  17.821  0.00  0.00    +0.000 C 
ATOM      3  N   UNL     1       7.433   4.626  16.492  0.00  0.00    +0.000 N 
ATOM      4  C   UNL     1       6.430   4.453  15.589  0.00  0.00    +0.000 C 
ATOM      5  S   UNL     1       6.660   4.432  13.950  0.00  0.00    +0.000 S 
ATOM      6  S   UNL     1       4.908   4.256  16.427  0.00  0.00    +0.000 S 
ATOM      7  C   UNL     1       5.654   4.385  17.980  0.00  0.00    +0.000 C 
ATOM      8  C   UNL     1       5.092   4.266  19.189  0.00  0.00    +0.000 C 
ATOM      9  H   UNL     1       8.392   4.749  16.201  0.00  0.00    +0.000 HD
ENDROOT
BRANCH   8  10
ATOM     10  C   UNL     1       3.713   3.968  19.372  0.00  0.00    +0.000 A 
ATOM     11  S   UNL     1       2.666   5.196  19.979  0.00  0.00    +0.000 S 
ATOM     12  C   UNL     1       1.300   4.174  19.900  0.00  0.00    +0.000 A 
ATOM     13  C   UNL     1       1.618   2.928  19.411  0.00  0.00    +0.000 A 
ATOM     14  C   UNL     1       3.007   2.806  19.115  0.00  0.00    +0.000 A 
ATOM     15 CL   UNL     1       3.671   1.350  18.502  0.00  0.00    +0.000 Cl
ENDBRANCH   8  10
TORSDOF 1
ENDMDL
MODEL 2
REMARK VINA RESULT:      -6.5      1.694      1.813
REMARK  Name = 
REMARK  1 active torsions:
REMARK  status: ('A' for Active; 'I' for Inactive)
REMARK    1  A    between atoms: C_8  and  C_9
REMARK                            x       y       z     vdW  Elec       q    Type
REMARK                         _______ _______ _______ _____ _____    ______ ____
ROOT
ATOM      1  O   UNL     1       7.893   4.980  18.747  0.00  0.00    +0.000 OA
ATOM      2  C   UNL     1       7.112   4.757  17.838  0.00  0.00    +0.000 C 
ATOM      3  N   UNL     1       7.443   4.730  16.511  0.00  0.00    +0.000 N 
ATOM      4  C   UNL     1       6.461   4.460  15.609  0.00  0.00    +0.000 C 
ATOM      5  S   UNL     1       6.709   4.382  13.975  0.00  0.00    +0.000 S 
ATOM      6  S   UNL     1       4.944   4.214  16.443  0.00  0.00    +0.000 S 
ATOM      7  C   UNL     1       5.665   4.453  17.994  0.00  0.00    +0.000 C 
ATOM      8  C   UNL     1       5.097   4.354  19.203  0.00  0.00    +0.000 C 
ATOM      9  H   UNL     1       8.396   4.894  16.223  0.00  0.00    +0.000 HD
ENDROOT
BRANCH   8  10
ATOM     10  C   UNL     1       3.735   3.986  19.387  0.00  0.00    +0.000 A 
ATOM     11  S   UNL     1       3.319   2.313  19.418  0.00  0.00    +0.000 S 
ATOM     12  C   UNL     1       1.666   2.654  19.679  0.00  0.00    +0.000 A 
ATOM     13  C   UNL     1       1.426   4.006  19.758  0.00  0.00    +0.000 A 
ATOM     14  C   UNL     1       2.615   4.773  19.581  0.00  0.00    +0.000 A 
ATOM     15 CL   UNL     1       2.594   6.486  19.622  0.00  0.00    +0.000 Cl
ENDBRANCH   8  10
TORSDOF 1
ENDMDL
MODEL 3
REMARK VINA RESULT:      -6.1      2.497      2.717
REMARK  Name = 
REMARK  1 active torsions:
REMARK  status: ('A' for Active; 'I' for Inactive)
REMARK    1  A    between atoms: C_8  and  C_9
REMARK                            x       y       z     vdW  Elec       q    Type
REMARK                         _______ _______ _______ _____ _____    ______ ____
ROOT
ATOM      1  O   UNL     1       6.248   3.926  15.022  0.00  0.00    +0.000 OA
ATOM      2  C   UNL     1       6.257   4.639  16.010  0.00  0.00    +0.000 C 
ATOM      3  N   UNL     1       7.023   5.763  16.155  0.00  0.00    +0.000 N 
ATOM      4  C   UNL     1       6.922   6.464  17.318  0.00  0.00    +0.000 C 
ATOM      5  S   UNL     1       7.773   7.846  17.636  0.00  0.00    +0.000 S 
ATOM      6  S   UNL     1       5.774   5.683  18.381  0.00  0.00    +0.000 S 
ATOM      7  C   UNL     1       5.430   4.441  17.229  0.00  0.00    +0.000 C 
ATOM      8  C   UNL     1       4.542   3.443  17.318  0.00  0.00    +0.000 C 
ATOM      9  H   UNL     1       7.632   6.062  15.409  0.00  0.00    +0.000 HD
ENDROOT
BRANCH   8  10
ATOM     10  C   UNL     1       3.681   3.275  18.438  0.00  0.00    +0.000 A 
ATOM     11  S   UNL     1       4.269   2.436  19.825  0.00  0.00    +0.000 S 
ATOM     12  C   UNL     1       2.799   2.650  20.668  0.00  0.00    +0.000 A 
ATOM     13  C   UNL     1       1.879   3.353  19.927  0.00  0.00    +0.000 A 
ATOM     14  C   UNL     1       2.382   3.705  18.641  0.00  0.00    +0.000 A 
ATOM     15 CL   UNL     1       1.433   4.578  17.512  0.00  0.00    +0.000 Cl
ENDBRANCH   8  10
TORSDOF 1
ENDMDL
MODEL 4
REMARK VINA RESULT:      -6.0      2.197      2.404
REMARK  Name = 
REMARK  1 active torsions:
REMARK  status: ('A' for Active; 'I' for Inactive)
REMARK    1  A    between atoms: C_8  and  C_9
REMARK                            x       y       z     vdW  Elec       q    Type
REMARK                         _______ _______ _______ _____ _____    ______ ____
ROOT
ATOM      1  O   UNL     1       6.310   3.810  15.014  0.00  0.00    +0.000 OA
ATOM      2  C   UNL     1       6.238   4.579  15.957  0.00  0.00    +0.000 C 
ATOM      3  N   UNL     1       7.041   5.671  16.137  0.00  0.00    +0.000 N 
ATOM      4  C   UNL     1       6.837   6.443  17.240  0.00  0.00    +0.000 C 
ATOM      5  S   UNL     1       7.718   7.799  17.589  0.00  0.00    +0.000 S 
ATOM      6  S   UNL     1       5.526   5.782  18.190  0.00  0.00    +0.000 S 
ATOM      7  C   UNL     1       5.258   4.493  17.072  0.00  0.00    +0.000 C 
ATOM      8  C   UNL     1       4.312   3.546  17.100  0.00  0.00    +0.000 C 
ATOM      9  H   UNL     1       7.752   5.895  15.459  0.00  0.00    +0.000 HD
ENDROOT
BRANCH   8  10
ATOM     10  C   UNL     1       3.312   3.486  18.111  0.00  0.00    +0.000 A 
ATOM     11  S   UNL     1       1.794   4.255  17.831  0.00  0.00    +0.000 S 
ATOM     12  C   UNL     1       1.182   3.763  19.347  0.00  0.00    +0.000 A 
ATOM     13  C   UNL     1       2.097   3.018  20.054  0.00  0.00    +0.000 A 
ATOM     14  C   UNL     1       3.325   2.866  19.347  0.00  0.00    +0.000 A 
ATOM     15 CL   UNL     1       4.640   1.988  20.009  0.00  0.00    +0.000 Cl
ENDBRANCH   8  10
TORSDOF 1
ENDMDL
MODEL 5
REMARK VINA RESULT:      -5.8      3.311      5.647
REMARK  Name = 
REMARK  1 active torsions:
REMARK  status: ('A' for Active; 'I' for Inactive)
REMARK    1  A    between atoms: C_8  and  C_9
REMARK                            x       y       z     vdW  Elec       q    Type
REMARK                         _______ _______ _______ _____ _____    ______ ____
ROOT
ATOM      1  O   UNL     1       2.254   7.372  19.690  0.00  0.00    +0.000 OA
ATOM      2  C   UNL     1       2.528   6.190  19.805  0.00  0.00    +0.000 C 
ATOM      3  N   UNL     1       1.823   5.295  20.561  0.00  0.00    +0.000 N 
ATOM      4  C   UNL     1       2.247   4.002  20.589  0.00  0.00    +0.000 C 
ATOM      5  S   UNL     1       1.495   2.804  21.446  0.00  0.00    +0.000 S 
ATOM      6  S   UNL     1       3.674   3.827  19.593  0.00  0.00    +0.000 S 
ATOM      7  C   UNL     1       3.658   5.493  19.136  0.00  0.00    +0.000 C 
ATOM      8  C   UNL     1       4.469   6.133  18.284  0.00  0.00    +0.000 C 
ATOM      9  H   UNL     1       1.005   5.594  21.070  0.00  0.00    +0.000 HD
ENDROOT
BRANCH   8  10
ATOM     10  C   UNL     1       5.508   5.477  17.568  0.00  0.00    +0.000 A 
ATOM     11  S   UNL     1       5.171   4.842  16.001  0.00  0.00    +0.000 S 
ATOM     12  C   UNL     1       6.773   4.285  15.802  0.00  0.00    +0.000 A 
ATOM     13  C   UNL     1       7.560   4.581  16.890  0.00  0.00    +0.000 A 
ATOM     14  C   UNL     1       6.830   5.259  17.910  0.00  0.00    +0.000 A 
ATOM     15 CL   UNL     1       7.572   5.735  19.380  0.00  0.00    +0.000 Cl
ENDBRANCH   8  10
TORSDOF 1
ENDMDL
MODEL 6
REMARK VINA RESULT:      -5.8      2.144      2.278
REMARK  Name = 
REMARK  1 active torsions:
REMARK  status: ('A' for Active; 'I' for Inactive)
REMARK    1  A    between atoms: C_8  and  C_9
REMARK                            x       y       z     vdW  Elec       q    Type
REMARK                         _______ _______ _______ _____ _____    ______ ____
ROOT
ATOM      1  O   UNL     1       7.788   6.582  17.275  0.00  0.00    +0.000 OA
ATOM      2  C   UNL     1       7.004   5.854  16.693  0.00  0.00    +0.000 C 
ATOM      3  N   UNL     1       7.185   5.360  15.430  0.00  0.00    +0.000 N 
ATOM      4  C   UNL     1       6.221   4.551  14.912  0.00  0.00    +0.000 C 
ATOM      5  S   UNL     1       6.302   3.871  13.406  0.00  0.00    +0.000 S 
ATOM      6  S   UNL     1       4.926   4.356  16.072  0.00  0.00    +0.000 S 
ATOM      7  C   UNL     1       5.719   5.347  17.244  0.00  0.00    +0.000 C 
ATOM      8  C   UNL     1       5.334   5.631  18.494  0.00  0.00    +0.000 C 
ATOM      9  H   UNL     1       8.020   5.587  14.913  0.00  0.00    +0.000 HD
ENDROOT
BRANCH   8  10
ATOM     10  C   UNL     1       4.151   5.097  19.077  0.00  0.00    +0.000 A 
ATOM     11  S   UNL     1       4.184   3.495  19.715  0.00  0.00    +0.000 S 
ATOM     12  C   UNL     1       2.553   3.582  20.213  0.00  0.00    +0.000 A 
ATOM     13  C   UNL     1       1.989   4.801  19.919  0.00  0.00    +0.000 A 
ATOM     14  C   UNL     1       2.905   5.670  19.258  0.00  0.00    +0.000 A 
ATOM     15 CL   UNL     1       2.453   7.250  18.770  0.00  0.00    +0.000 Cl
ENDBRANCH   8  10
TORSDOF 1
ENDMDL
MODEL 7
REMARK VINA RESULT:      -5.7      1.165      1.165
REMARK  Name = 
REMARK  1 active torsions:
REMARK  status: ('A' for Active; 'I' for Inactive)
REMARK    1  A    between atoms: C_8  and  C_9
REMARK                            x       y       z     vdW  Elec       q    Type
REMARK                         _______ _______ _______ _____ _____    ______ ____
ROOT
ATOM      1  O   UNL     1       7.290   6.499  18.502  0.00  0.00    +0.000 OA
ATOM      2  C   UNL     1       6.774   5.868  17.597  0.00  0.00    +0.000 C 
ATOM      3  N   UNL     1       7.297   5.733  16.341  0.00  0.00    +0.000 N 
ATOM      4  C   UNL     1       6.607   4.989  15.434  0.00  0.00    +0.000 C 
ATOM      5  S   UNL     1       7.115   4.727  13.881  0.00  0.00    +0.000 S 
ATOM      6  S   UNL     1       5.142   4.375  16.165  0.00  0.00    +0.000 S 
ATOM      7  C   UNL     1       5.499   5.109  17.688  0.00  0.00    +0.000 C 
ATOM      8  C   UNL     1       4.814   5.025  18.835  0.00  0.00    +0.000 C 
ATOM      9  H   UNL     1       8.177   6.167  16.109  0.00  0.00    +0.000 HD
ENDROOT
BRANCH   8  10
ATOM     10  C   UNL     1       3.634   4.242  18.974  0.00  0.00    +0.000 A 
ATOM     11  S   UNL     1       2.148   4.853  18.347  0.00  0.00    +0.000 S 
ATOM     12  C   UNL     1       1.287   3.461  18.833  0.00  0.00    +0.000 A 
ATOM     13  C   UNL     1       2.102   2.539  19.447  0.00  0.00    +0.000 A 
ATOM     14  C   UNL     1       3.451   2.992  19.536  0.00  0.00    +0.000 A 
ATOM     15 CL   UNL     1       4.673   2.038  20.268  0.00  0.00    +0.000 Cl
ENDBRANCH   8  10
TORSDOF 1
ENDMDL
MODEL 8
REMARK VINA RESULT:      -5.6      2.343      2.550
REMARK  Name = 
REMARK  1 active torsions:
REMARK  status: ('A' for Active; 'I' for Inactive)
REMARK    1  A    between atoms: C_8  and  C_9
REMARK                            x       y       z     vdW  Elec       q    Type
REMARK                         _______ _______ _______ _____ _____    ______ ____
ROOT
ATOM      1  O   UNL     1       4.942   4.008  15.432  0.00  0.00    +0.000 OA
ATOM      2  C   UNL     1       5.292   4.549  16.466  0.00  0.00    +0.000 C 
ATOM      3  N   UNL     1       6.295   5.473  16.564  0.00  0.00    +0.000 N 
ATOM      4  C   UNL     1       6.570   5.996  17.791  0.00  0.00    +0.000 C 
ATOM      5  S   UNL     1       7.744   7.128  18.066  0.00  0.00    +0.000 S 
ATOM      6  S   UNL     1       5.502   5.294  18.985  0.00  0.00    +0.000 S 
ATOM      7  C   UNL     1       4.688   4.328  17.807  0.00  0.00    +0.000 C 
ATOM      8  C   UNL     1       3.638   3.514  17.976  0.00  0.00    +0.000 C 
ATOM      9  H   UNL     1       6.802   5.760  15.741  0.00  0.00    +0.000 HD
ENDROOT
BRANCH   8  10
ATOM     10  C   UNL     1       2.989   3.344  19.230  0.00  0.00    +0.000 A 
ATOM     11  S   UNL     1       1.444   4.070  19.476  0.00  0.00    +0.000 S 
ATOM     12  C   UNL     1       1.324   3.449  21.062  0.00  0.00    +0.000 A 
ATOM     13  C   UNL     1       2.421   2.693  21.404  0.00  0.00    +0.000 A 
ATOM     14  C   UNL     1       3.383   2.640  20.353  0.00  0.00    +0.000 A 
ATOM     15 CL   UNL     1       4.851   1.771  20.522  0.00  0.00    +0.000 Cl
ENDBRANCH   8  10
TORSDOF 1
ENDMDL
MODEL 9
REMARK VINA RESULT:      -5.6      3.032      3.322
REMARK  Name = 
REMARK  1 active torsions:
REMARK  status: ('A' for Active; 'I' for Inactive)
REMARK    1  A    between atoms: C_8  and  C_9
REMARK                            x       y       z     vdW  Elec       q    Type
REMARK                         _______ _______ _______ _____ _____    ______ ____
ROOT
ATOM      1  O   UNL     1       4.476   6.982  16.178  0.00  0.00    +0.000 OA
ATOM      2  C   UNL     1       4.950   6.368  17.118  0.00  0.00    +0.000 C 
ATOM      3  N   UNL     1       6.236   6.495  17.566  0.00  0.00    +0.000 N 
ATOM      4  C   UNL     1       6.621   5.744  18.634  0.00  0.00    +0.000 C 
ATOM      5  S   UNL     1       8.137   5.795  19.295  0.00  0.00    +0.000 S 
ATOM      6  S   UNL     1       5.285   4.753  19.173  0.00  0.00    +0.000 S 
ATOM      7  C   UNL     1       4.223   5.387  17.966  0.00  0.00    +0.000 C 
ATOM      8  C   UNL     1       2.923   5.127  17.779  0.00  0.00    +0.000 C 
ATOM      9  H   UNL     1       6.868   7.139  17.116  0.00  0.00    +0.000 HD
ENDROOT
BRANCH   8  10
ATOM     10  C   UNL     1       2.181   4.255  18.623  0.00  0.00    +0.000 A 
ATOM     11  S   UNL     1       1.944   2.619  18.131  0.00  0.00    +0.000 S 
ATOM     12  C   UNL     1       1.067   2.244  19.548  0.00  0.00    +0.000 A 
ATOM     13  C   UNL     1       0.963   3.326  20.390  0.00  0.00    +0.000 A 
ATOM     14  C   UNL     1       1.596   4.485  19.854  0.00  0.00    +0.000 A 
ATOM     15 CL   UNL     1       1.603   5.977  20.699  0.00  0.00    +0.000 Cl
ENDBRANCH   8  10
TORSDOF 1
ENDMDL
