MODEL 1
REMARK VINA RESULT:      -6.9      0.000      0.000
REMARK  Name = 
REMARK  3 active torsions:
REMARK  status: ('A' for Active; 'I' for Inactive)
REMARK    1  A    between atoms: N_2  and  C_4
REMARK    2  A    between atoms: C_9  and  N_10
REMARK    3  A    between atoms: C_11  and  C_12
REMARK                            x       y       z     vdW  Elec       q    Type
REMARK                         _______ _______ _______ _____ _____    ______ ____
ROOT
ATOM      1  C   UNL     1       3.779   3.554  19.142  0.00  0.00    +0.000 A 
ATOM      2  C   UNL     1       4.002   4.049  17.848  0.00  0.00    +0.000 A 
ATOM      3  C   UNL     1       3.640   5.363  17.522  0.00  0.00    +0.000 A 
ATOM      4  C   UNL     1       3.043   6.166  18.506  0.00  0.00    +0.000 A 
ATOM      5  N   UNL     1       2.578   7.452  18.421  0.00  0.00    +0.000 NA
ATOM      6  C   UNL     1       2.071   7.737  19.603  0.00  0.00    +0.000 A 
ATOM      7  N   UNL     1       2.248   6.679  20.460  0.00  0.00    +0.000 N 
ATOM      8  C   UNL     1       2.843   5.649  19.780  0.00  0.00    +0.000 A 
ATOM      9  C   UNL     1       3.198   4.348  20.151  0.00  0.00    +0.000 A 
ATOM     10  H   UNL     1       1.935   6.676  21.419  0.00  0.00    +0.000 HD
ENDROOT
BRANCH   1  12
ATOM     11  O   UNL     1       4.939   1.972  20.390  0.00  0.00    +0.000 OA
ATOM     12  N   UNL     1       4.149   2.164  19.454  0.00  0.00    +0.000 N 
ATOM     13  O   UNL     1       3.652   1.266  18.759  0.00  0.00    +0.000 OA
ENDBRANCH   1  12
BRANCH   6  14
ATOM     14  N   UNL     1       1.410   8.825  20.053  0.00  0.00    +0.000 NA
ATOM     15  C   UNL     1       0.608   8.596  21.044  0.00  0.00    +0.000 C 
BRANCH  15  16
ATOM     16  C   UNL     1      -0.104   9.686  21.670  0.00  0.00    +0.000 A 
ATOM     17  C   UNL     1      -0.624   9.767  22.946  0.00  0.00    +0.000 A 
ATOM     18  C   UNL     1      -1.306  10.998  23.176  0.00  0.00    +0.000 A 
ATOM     19  C   UNL     1      -1.274  11.818  22.069  0.00  0.00    +0.000 A 
ATOM     20  S   UNL     1      -0.419  11.106  20.769  0.00  0.00    +0.000 S 
ENDBRANCH  15  16
ENDBRANCH   6  14
TORSDOF 3
ENDMDL
MODEL 2
REMARK VINA RESULT:      -6.9      5.946      6.760
REMARK  Name = 
REMARK  3 active torsions:
REMARK  status: ('A' for Active; 'I' for Inactive)
REMARK    1  A    between atoms: N_2  and  C_4
REMARK    2  A    between atoms: C_9  and  N_10
REMARK    3  A    between atoms: C_11  and  C_12
REMARK                            x       y       z     vdW  Elec       q    Type
REMARK                         _______ _______ _______ _____ _____    ______ ____
ROOT
ATOM      1  C   UNL     1       4.517   3.893  17.398  0.00  0.00    +0.000 A 
ATOM      2  C   UNL     1       4.585   4.377  16.082  0.00  0.00    +0.000 A 
ATOM      3  C   UNL     1       5.473   5.411  15.754  0.00  0.00    +0.000 A 
ATOM      4  C   UNL     1       6.280   5.956  16.764  0.00  0.00    +0.000 A 
ATOM      5  N   UNL     1       7.188   6.981  16.700  0.00  0.00    +0.000 NA
ATOM      6  C   UNL     1       7.649   7.139  17.923  0.00  0.00    +0.000 A 
ATOM      7  N   UNL     1       7.094   6.203  18.762  0.00  0.00    +0.000 N 
ATOM      8  C   UNL     1       6.194   5.450  18.055  0.00  0.00    +0.000 A 
ATOM      9  C   UNL     1       5.330   4.413  18.423  0.00  0.00    +0.000 A 
ATOM     10  H   UNL     1       7.304   6.140  19.746  0.00  0.00    +0.000 HD
ENDROOT
BRANCH   1  12
ATOM     11  O   UNL     1       2.482   2.806  17.111  0.00  0.00    +0.000 OA
ATOM     12  N   UNL     1       3.561   2.821  17.721  0.00  0.00    +0.000 N 
ATOM     13  O   UNL     1       3.890   1.998  18.588  0.00  0.00    +0.000 OA
ENDBRANCH   1  12
BRANCH   6  14
ATOM     14  N   UNL     1       8.496   8.051  18.447  0.00  0.00    +0.000 NA
ATOM     15  C   UNL     1       8.222   9.280  18.140  0.00  0.00    +0.000 C 
BRANCH  15  16
ATOM     16  C   UNL     1       9.004  10.360  18.696  0.00  0.00    +0.000 A 
ATOM     17  C   UNL     1       9.713  10.402  19.880  0.00  0.00    +0.000 A 
ATOM     18  C   UNL     1      10.320  11.672  20.104  0.00  0.00    +0.000 A 
ATOM     19  C   UNL     1      10.060  12.553  19.077  0.00  0.00    +0.000 A 
ATOM     20  S   UNL     1       9.100  11.845  17.852  0.00  0.00    +0.000 S 
ENDBRANCH  15  16
ENDBRANCH   6  14
TORSDOF 3
ENDMDL
MODEL 3
REMARK VINA RESULT:      -6.8      2.549      2.972
REMARK  Name = 
REMARK  3 active torsions:
REMARK  status: ('A' for Active; 'I' for Inactive)
REMARK    1  A    between atoms: N_2  and  C_4
REMARK    2  A    between atoms: C_9  and  N_10
REMARK    3  A    between atoms: C_11  and  C_12
REMARK                            x       y       z     vdW  Elec       q    Type
REMARK                         _______ _______ _______ _____ _____    ______ ____
ROOT
ATOM      1  C   UNL     1       5.731   5.376  16.943  0.00  0.00    +0.000 A 
ATOM      2  C   UNL     1       5.512   4.424  17.950  0.00  0.00    +0.000 A 
ATOM      3  C   UNL     1       4.514   4.630  18.913  0.00  0.00    +0.000 A 
ATOM      4  C   UNL     1       3.750   5.806  18.855  0.00  0.00    +0.000 A 
ATOM      5  N   UNL     1       2.755   6.243  19.690  0.00  0.00    +0.000 NA
ATOM      6  C   UNL     1       2.384   7.421  19.233  0.00  0.00    +0.000 A 
ATOM      7  N   UNL     1       3.085   7.727  18.091  0.00  0.00    +0.000 N 
ATOM      8  C   UNL     1       3.986   6.725  17.840  0.00  0.00    +0.000 A 
ATOM      9  C   UNL     1       4.963   6.554  16.855  0.00  0.00    +0.000 A 
ATOM     10  H   UNL     1       2.965   8.583  17.573  0.00  0.00    +0.000 HD
ENDROOT
BRANCH   1  12
ATOM     11  O   UNL     1       6.617   5.557  14.802  0.00  0.00    +0.000 OA
ATOM     12  N   UNL     1       6.799   5.146  15.956  0.00  0.00    +0.000 N 
ATOM     13  O   UNL     1       7.817   4.551  16.339  0.00  0.00    +0.000 OA
ENDBRANCH   1  12
BRANCH   6  14
ATOM     14  N   UNL     1       1.508   8.331  19.712  0.00  0.00    +0.000 NA
ATOM     15  C   UNL     1       1.467   8.410  21.005  0.00  0.00    +0.000 C 
BRANCH  15  16
ATOM     16  C   UNL     1       0.627   9.395  21.646  0.00  0.00    +0.000 A 
ATOM     17  C   UNL     1      -0.218   9.246  22.727  0.00  0.00    +0.000 A 
ATOM     18  C   UNL     1      -0.919  10.448  23.035  0.00  0.00    +0.000 A 
ATOM     19  C   UNL     1      -0.577  11.476  22.185  0.00  0.00    +0.000 A 
ATOM     20  S   UNL     1       0.589  10.990  21.031  0.00  0.00    +0.000 S 
ENDBRANCH  15  16
ENDBRANCH   6  14
TORSDOF 3
ENDMDL
MODEL 4
REMARK VINA RESULT:      -6.8      3.318      4.046
REMARK  Name = 
REMARK  3 active torsions:
REMARK  status: ('A' for Active; 'I' for Inactive)
REMARK    1  A    between atoms: N_2  and  C_4
REMARK    2  A    between atoms: C_9  and  N_10
REMARK    3  A    between atoms: C_11  and  C_12
REMARK                            x       y       z     vdW  Elec       q    Type
REMARK                         _______ _______ _______ _____ _____    ______ ____
ROOT
ATOM      1  C   UNL     1       6.446   4.929  15.593  0.00  0.00    +0.000 A 
ATOM      2  C   UNL     1       7.218   4.510  16.687  0.00  0.00    +0.000 A 
ATOM      3  C   UNL     1       6.714   4.621  17.991  0.00  0.00    +0.000 A 
ATOM      4  C   UNL     1       5.435   5.168  18.179  0.00  0.00    +0.000 A 
ATOM      5  N   UNL     1       4.750   5.407  19.341  0.00  0.00    +0.000 NA
ATOM      6  C   UNL     1       3.612   5.968  18.986  0.00  0.00    +0.000 A 
ATOM      7  N   UNL     1       3.531   6.045  17.617  0.00  0.00    +0.000 N 
ATOM      8  C   UNL     1       4.694   5.566  17.074  0.00  0.00    +0.000 A 
ATOM      9  C   UNL     1       5.153   5.464  15.757  0.00  0.00    +0.000 A 
ATOM     10  H   UNL     1       2.745   6.442  17.124  0.00  0.00    +0.000 HD
ENDROOT
BRANCH   1  12
ATOM     11  O   UNL     1       6.511   3.980  13.472  0.00  0.00    +0.000 OA
ATOM     12  N   UNL     1       7.006   4.821  14.236  0.00  0.00    +0.000 N 
ATOM     13  O   UNL     1       7.943   5.576  13.938  0.00  0.00    +0.000 OA
ENDBRANCH   1  12
BRANCH   6  14
ATOM     14  N   UNL     1       2.601   6.481  19.720  0.00  0.00    +0.000 NA
ATOM     15  C   UNL     1       2.444   7.762  19.599  0.00  0.00    +0.000 C 
BRANCH  15  16
ATOM     16  C   UNL     1       1.352   8.427  20.271  0.00  0.00    +0.000 A 
ATOM     17  C   UNL     1       0.699   8.070  21.433  0.00  0.00    +0.000 A 
ATOM     18  C   UNL     1      -0.367   8.962  21.751  0.00  0.00    +0.000 A 
ATOM     19  C   UNL     1      -0.484   9.975  20.825  0.00  0.00    +0.000 A 
ATOM     20  S   UNL     1       0.693   9.851  19.588  0.00  0.00    +0.000 S 
ENDBRANCH  15  16
ENDBRANCH   6  14
TORSDOF 3
ENDMDL
MODEL 5
REMARK VINA RESULT:      -6.7      2.520      2.934
REMARK  Name = 
REMARK  3 active torsions:
REMARK  status: ('A' for Active; 'I' for Inactive)
REMARK    1  A    between atoms: N_2  and  C_4
REMARK    2  A    between atoms: C_9  and  N_10
REMARK    3  A    between atoms: C_11  and  C_12
REMARK                            x       y       z     vdW  Elec       q    Type
REMARK                         _______ _______ _______ _____ _____    ______ ____
ROOT
ATOM      1  C   UNL     1       5.576   4.874  16.402  0.00  0.00    +0.000 A 
ATOM      2  C   UNL     1       4.825   3.851  17.002  0.00  0.00    +0.000 A 
ATOM      3  C   UNL     1       3.713   4.164  17.797  0.00  0.00    +0.000 A 
ATOM      4  C   UNL     1       3.374   5.512  17.987  0.00  0.00    +0.000 A 
ATOM      5  N   UNL     1       2.367   6.062  18.736  0.00  0.00    +0.000 NA
ATOM      6  C   UNL     1       2.498   7.368  18.623  0.00  0.00    +0.000 A 
ATOM      7  N   UNL     1       3.536   7.667  17.774  0.00  0.00    +0.000 N 
ATOM      8  C   UNL     1       4.133   6.500  17.373  0.00  0.00    +0.000 A 
ATOM      9  C   UNL     1       5.243   6.233  16.565  0.00  0.00    +0.000 A 
ATOM     10  H   UNL     1       3.817   8.607  17.542  0.00  0.00    +0.000 HD
ENDROOT
BRANCH   1  12
ATOM     11  O   UNL     1       7.865   4.573  16.132  0.00  0.00    +0.000 OA
ATOM     12  N   UNL     1       6.751   4.520  15.590  0.00  0.00    +0.000 N 
ATOM     13  O   UNL     1       6.559   4.194  14.409  0.00  0.00    +0.000 OA
ENDBRANCH   1  12
BRANCH   6  14
ATOM     14  N   UNL     1       1.835   8.387  19.210  0.00  0.00    +0.000 NA
ATOM     15  C   UNL     1       1.398   8.129  20.403  0.00  0.00    +0.000 C 
BRANCH  15  16
ATOM     16  C   UNL     1       0.737   9.156  21.173  0.00  0.00    +0.000 A 
ATOM     17  C   UNL     1       0.219   9.089  22.451  0.00  0.00    +0.000 A 
ATOM     18  C   UNL     1      -0.405  10.307  22.848  0.00  0.00    +0.000 A 
ATOM     19  C   UNL     1      -0.332  11.267  21.862  0.00  0.00    +0.000 A 
ATOM     20  S   UNL     1       0.491  10.698  20.474  0.00  0.00    +0.000 S 
ENDBRANCH  15  16
ENDBRANCH   6  14
TORSDOF 3
ENDMDL
MODEL 6
REMARK VINA RESULT:      -6.7      3.127      3.802
REMARK  Name = 
REMARK  3 active torsions:
REMARK  status: ('A' for Active; 'I' for Inactive)
REMARK    1  A    between atoms: N_2  and  C_4
REMARK    2  A    between atoms: C_9  and  N_10
REMARK    3  A    between atoms: C_11  and  C_12
REMARK                            x       y       z     vdW  Elec       q    Type
REMARK                         _______ _______ _______ _____ _____    ______ ____
ROOT
ATOM      1  C   UNL     1       5.713   4.941  15.549  0.00  0.00    +0.000 A 
ATOM      2  C   UNL     1       5.200   3.780  16.149  0.00  0.00    +0.000 A 
ATOM      3  C   UNL     1       4.231   3.875  17.159  0.00  0.00    +0.000 A 
ATOM      4  C   UNL     1       3.796   5.147  17.562  0.00  0.00    +0.000 A 
ATOM      5  N   UNL     1       2.897   5.494  18.536  0.00  0.00    +0.000 NA
ATOM      6  C   UNL     1       2.866   6.811  18.554  0.00  0.00    +0.000 A 
ATOM      7  N   UNL     1       3.689   7.315  17.576  0.00  0.00    +0.000 N 
ATOM      8  C   UNL     1       4.318   6.276  16.943  0.00  0.00    +0.000 A 
ATOM      9  C   UNL     1       5.277   6.226  15.926  0.00  0.00    +0.000 A 
ATOM     10  H   UNL     1       3.821   8.301  17.409  0.00  0.00    +0.000 HD
ENDROOT
BRANCH   1  12
ATOM     11  O   UNL     1       6.547   3.999  13.595  0.00  0.00    +0.000 OA
ATOM     12  N   UNL     1       6.744   4.815  14.507  0.00  0.00    +0.000 N 
ATOM     13  O   UNL     1       7.752   5.530  14.605  0.00  0.00    +0.000 OA
ENDBRANCH   1  12
BRANCH   6  14
ATOM     14  N   UNL     1       2.223   7.679  19.364  0.00  0.00    +0.000 NA
ATOM     15  C   UNL     1       1.701   8.697  18.755  0.00  0.00    +0.000 C 
BRANCH  15  16
ATOM     16  C   UNL     1       0.921   9.663  19.494  0.00  0.00    +0.000 A 
ATOM     17  C   UNL     1       0.446  10.894  19.086  0.00  0.00    +0.000 A 
ATOM     18  C   UNL     1      -0.246  11.579  20.126  0.00  0.00    +0.000 A 
ATOM     19  C   UNL     1      -0.284  10.844  21.290  0.00  0.00    +0.000 A 
ATOM     20  S   UNL     1       0.503   9.334  21.120  0.00  0.00    +0.000 S 
ENDBRANCH  15  16
ENDBRANCH   6  14
TORSDOF 3
ENDMDL
MODEL 7
REMARK VINA RESULT:      -6.6      5.827      7.072
REMARK  Name = 
REMARK  3 active torsions:
REMARK  status: ('A' for Active; 'I' for Inactive)
REMARK    1  A    between atoms: N_2  and  C_4
REMARK    2  A    between atoms: C_9  and  N_10
REMARK    3  A    between atoms: C_11  and  C_12
REMARK                            x       y       z     vdW  Elec       q    Type
REMARK                         _______ _______ _______ _____ _____    ______ ____
ROOT
ATOM      1  C   UNL     1       4.989   4.227  18.182  0.00  0.00    +0.000 A 
ATOM      2  C   UNL     1       4.527   4.930  17.060  0.00  0.00    +0.000 A 
ATOM      3  C   UNL     1       5.178   6.101  16.642  0.00  0.00    +0.000 A 
ATOM      4  C   UNL     1       6.286   6.557  17.372  0.00  0.00    +0.000 A 
ATOM      5  N   UNL     1       7.055   7.675  17.184  0.00  0.00    +0.000 NA
ATOM      6  C   UNL     1       7.943   7.676  18.158  0.00  0.00    +0.000 A 
ATOM      7  N   UNL     1       7.792   6.554  18.936  0.00  0.00    +0.000 N 
ATOM      8  C   UNL     1       6.723   5.833  18.474  0.00  0.00    +0.000 A 
ATOM      9  C   UNL     1       6.111   4.656  18.919  0.00  0.00    +0.000 A 
ATOM     10  H   UNL     1       8.365   6.350  19.740  0.00  0.00    +0.000 HD
ENDROOT
BRANCH   1  12
ATOM     11  O   UNL     1       4.652   2.463  19.658  0.00  0.00    +0.000 OA
ATOM     12  N   UNL     1       4.276   3.013  18.613  0.00  0.00    +0.000 N 
ATOM     13  O   UNL     1       3.344   2.610  17.902  0.00  0.00    +0.000 OA
ENDBRANCH   1  12
BRANCH   6  14
ATOM     14  N   UNL     1       8.887   8.577  18.505  0.00  0.00    +0.000 NA
ATOM     15  C   UNL     1       8.567   9.811  18.268  0.00  0.00    +0.000 C 
BRANCH  15  16
ATOM     16  C   UNL     1       9.455  10.880  18.660  0.00  0.00    +0.000 A 
ATOM     17  C   UNL     1      10.280  11.659  17.874  0.00  0.00    +0.000 A 
ATOM     18  C   UNL     1      11.046  12.584  18.642  0.00  0.00    +0.000 A 
ATOM     19  C   UNL     1      10.771  12.485  19.988  0.00  0.00    +0.000 A 
ATOM     20  S   UNL     1       9.591  11.290  20.315  0.00  0.00    +0.000 S 
ENDBRANCH  15  16
ENDBRANCH   6  14
TORSDOF 3
ENDMDL
MODEL 8
REMARK VINA RESULT:      -6.6      4.453      7.788
REMARK  Name = 
REMARK  3 active torsions:
REMARK  status: ('A' for Active; 'I' for Inactive)
REMARK    1  A    between atoms: N_2  and  C_4
REMARK    2  A    between atoms: C_9  and  N_10
REMARK    3  A    between atoms: C_11  and  C_12
REMARK                            x       y       z     vdW  Elec       q    Type
REMARK                         _______ _______ _______ _____ _____    ______ ____
ROOT
ATOM      1  C   UNL     1       0.003   9.977  21.713  0.00  0.00    +0.000 A 
ATOM      2  C   UNL     1      -0.438  10.891  20.745  0.00  0.00    +0.000 A 
ATOM      3  C   UNL     1      -0.008  10.774  19.415  0.00  0.00    +0.000 A 
ATOM      4  C   UNL     1       0.875   9.737  19.077  0.00  0.00    +0.000 A 
ATOM      5  N   UNL     1       1.453   9.440  17.871  0.00  0.00    +0.000 NA
ATOM      6  C   UNL     1       2.233   8.400  18.084  0.00  0.00    +0.000 A 
ATOM      7  N   UNL     1       2.127   7.991  19.392  0.00  0.00    +0.000 N 
ATOM      8  C   UNL     1       1.286   8.844  20.058  0.00  0.00    +0.000 A 
ATOM      9  C   UNL     1       0.875   8.917  21.393  0.00  0.00    +0.000 A 
ATOM     10  H   UNL     1       2.638   7.212  19.778  0.00  0.00    +0.000 HD
ENDROOT
BRANCH   1  12
ATOM     11  O   UNL     1       0.259   9.641  23.999  0.00  0.00    +0.000 OA
ATOM     12  N   UNL     1      -0.445  10.134  23.106  0.00  0.00    +0.000 N 
ATOM     13  O   UNL     1      -1.504  10.748  23.305  0.00  0.00    +0.000 OA
ENDBRANCH   1  12
BRANCH   6  14
ATOM     14  N   UNL     1       3.094   7.748  17.274  0.00  0.00    +0.000 NA
ATOM     15  C   UNL     1       3.587   6.660  17.778  0.00  0.00    +0.000 C 
BRANCH  15  16
ATOM     16  C   UNL     1       4.464   5.826  16.988  0.00  0.00    +0.000 A 
ATOM     17  C   UNL     1       5.238   6.165  15.897  0.00  0.00    +0.000 A 
ATOM     18  C   UNL     1       5.933   5.044  15.356  0.00  0.00    +0.000 A 
ATOM     19  C   UNL     1       5.673   3.890  16.061  0.00  0.00    +0.000 A 
ATOM     20  S   UNL     1       4.604   4.164  17.369  0.00  0.00    +0.000 S 
ENDBRANCH  15  16
ENDBRANCH   6  14
TORSDOF 3
ENDMDL
MODEL 9
REMARK VINA RESULT:      -6.5      2.667      3.106
REMARK  Name = 
REMARK  3 active torsions:
REMARK  status: ('A' for Active; 'I' for Inactive)
REMARK    1  A    between atoms: N_2  and  C_4
REMARK    2  A    between atoms: C_9  and  N_10
REMARK    3  A    between atoms: C_11  and  C_12
REMARK                            x       y       z     vdW  Elec       q    Type
REMARK                         _______ _______ _______ _____ _____    ______ ____
ROOT
ATOM      1  C   UNL     1       5.879   5.191  16.690  0.00  0.00    +0.000 A 
ATOM      2  C   UNL     1       4.969   4.153  16.944  0.00  0.00    +0.000 A 
ATOM      3  C   UNL     1       3.700   4.438  17.467  0.00  0.00    +0.000 A 
ATOM      4  C   UNL     1       3.364   5.772  17.740  0.00  0.00    +0.000 A 
ATOM      5  N   UNL     1       2.215   6.291  18.277  0.00  0.00    +0.000 NA
ATOM      6  C   UNL     1       2.408   7.591  18.371  0.00  0.00    +0.000 A 
ATOM      7  N   UNL     1       3.638   7.923  17.856  0.00  0.00    +0.000 N 
ATOM      8  C   UNL     1       4.284   6.778  17.470  0.00  0.00    +0.000 A 
ATOM      9  C   UNL     1       5.556   6.540  16.940  0.00  0.00    +0.000 A 
ATOM     10  H   UNL     1       3.997   8.865  17.827  0.00  0.00    +0.000 HD
ENDROOT
BRANCH   1  12
ATOM     11  O   UNL     1       7.987   4.234  16.894  0.00  0.00    +0.000 OA
ATOM     12  N   UNL     1       7.213   4.865  16.160  0.00  0.00    +0.000 N 
ATOM     13  O   UNL     1       7.485   5.243  15.012  0.00  0.00    +0.000 OA
ENDBRANCH   1  12
BRANCH   6  14
ATOM     14  N   UNL     1       1.647   8.572  18.900  0.00  0.00    +0.000 NA
ATOM     15  C   UNL     1       1.475   8.488  20.182  0.00  0.00    +0.000 C 
BRANCH  15  16
ATOM     16  C   UNL     1       0.743   9.515  20.886  0.00  0.00    +0.000 A 
ATOM     17  C   UNL     1       0.635  10.861  20.597  0.00  0.00    +0.000 A 
ATOM     18  C   UNL     1      -0.143  11.562  21.564  0.00  0.00    +0.000 A 
ATOM     19  C   UNL     1      -0.610  10.725  22.553  0.00  0.00    +0.000 A 
ATOM     20  S   UNL     1      -0.118   9.104  22.306  0.00  0.00    +0.000 S 
ENDBRANCH  15  16
ENDBRANCH   6  14
TORSDOF 3
ENDMDL
