MODEL 1
REMARK VINA RESULT:      -8.3      0.000      0.000
REMARK  Name = 
REMARK  5 active torsions:
REMARK  status: ('A' for Active; 'I' for Inactive)
REMARK    1  A    between atoms: C_1  and  N_2
REMARK    2  A    between atoms: N_2  and  C_3
REMARK    3  A    between atoms: N_2  and  C_9
REMARK    4  A    between atoms: C_3  and  C_4
REMARK    5  A    between atoms: C_11  and  C_12
REMARK                            x       y       z     vdW  Elec       q    Type
REMARK                         _______ _______ _______ _____ _____    ______ ____
ROOT
ATOM      1  C   UNL     1       4.511   5.367  17.982  0.00  0.00    +0.000 A 
ATOM      2  N   UNL     1       4.006   6.602  18.199  0.00  0.00    +0.000 NA
ATOM      3  C   UNL     1       2.677   6.750  18.326  0.00  0.00    +0.000 A 
ATOM      4  N   UNL     1       1.798   5.748  18.217  0.00  0.00    +0.000 NA
ATOM      5  C   UNL     1       2.295   4.528  17.958  0.00  0.00    +0.000 A 
ATOM      6  C   UNL     1       3.661   4.272  17.840  0.00  0.00    +0.000 A 
ATOM      7  C   UNL     1       4.104   2.860  17.557  0.00  0.00    +0.000 C 
ATOM      8  C   UNL     1       3.822   1.938  18.758  0.00  0.00    +0.000 C 
ATOM      9  N   UNL     1       2.455   1.405  18.808  0.00  0.00    +0.000 NA
ATOM     10  C   UNL     1       1.424   2.429  19.022  0.00  0.00    +0.000 C 
ATOM     11  C   UNL     1       1.277   3.422  17.867  0.00  0.00    +0.000 C 
ATOM     12  H   UNL     1       2.399   0.732  19.574  0.00  0.00    +0.000 HD
ENDROOT
BRANCH   3  13
ATOM     13  C   UNL     1       2.140   8.075  18.662  0.00  0.00    +0.000 A 
ATOM     14  C   UNL     1       2.175   9.150  17.756  0.00  0.00    +0.000 A 
ATOM     15  C   UNL     1       1.654  10.397  18.098  0.00  0.00    +0.000 A 
ATOM     16  C   UNL     1       1.095  10.548  19.353  0.00  0.00    +0.000 A 
ATOM     17  N   UNL     1       1.025   9.553  20.261  0.00  0.00    +0.000 NA
ATOM     18  C   UNL     1       1.546   8.351  19.893  0.00  0.00    +0.000 A 
ENDBRANCH   3  13
BRANCH   1  20
ATOM     19  C   UNL     1       6.626   5.433  19.186  0.00  0.00    +0.000 C 
ATOM     20  N   UNL     1       5.898   5.256  17.929  0.00  0.00    +0.000 N 
BRANCH  20  21
ATOM     21  C   UNL     1       6.559   4.462  16.874  0.00  0.00    +0.000 C 
BRANCH  21  22
ATOM     22  C   UNL     1       6.308   4.886  15.415  0.00  0.00    +0.000 C 
ATOM     23  C   UNL     1       5.890   3.792  14.446  0.00  0.00    +0.000 C 
ATOM     24  C   UNL     1       6.438   4.284  13.132  0.00  0.00    +0.000 C 
ATOM     25  C   UNL     1       7.693   5.014  13.551  0.00  0.00    +0.000 C 
ATOM     26  O   UNL     1       7.435   5.573  14.843  0.00  0.00    +0.000 OA
ENDBRANCH  21  22
ENDBRANCH  20  21
ENDBRANCH   1  20
TORSDOF 4
ENDMDL
MODEL 2
REMARK VINA RESULT:      -7.8      2.588      6.714
REMARK  Name = 
REMARK  5 active torsions:
REMARK  status: ('A' for Active; 'I' for Inactive)
REMARK    1  A    between atoms: C_1  and  N_2
REMARK    2  A    between atoms: N_2  and  C_3
REMARK    3  A    between atoms: N_2  and  C_9
REMARK    4  A    between atoms: C_3  and  C_4
REMARK    5  A    between atoms: C_11  and  C_12
REMARK                            x       y       z     vdW  Elec       q    Type
REMARK                         _______ _______ _______ _____ _____    ______ ____
ROOT
ATOM      1  C   UNL     1       3.231   6.214  18.760  0.00  0.00    +0.000 A 
ATOM      2  N   UNL     1       4.102   6.157  17.728  0.00  0.00    +0.000 NA
ATOM      3  C   UNL     1       4.676   4.982  17.422  0.00  0.00    +0.000 A 
ATOM      4  N   UNL     1       4.468   3.848  18.101  0.00  0.00    +0.000 NA
ATOM      5  C   UNL     1       3.636   3.912  19.152  0.00  0.00    +0.000 A 
ATOM      6  C   UNL     1       2.973   5.079  19.527  0.00  0.00    +0.000 A 
ATOM      7  C   UNL     1       2.055   5.030  20.722  0.00  0.00    +0.000 C 
ATOM      8  C   UNL     1       0.813   4.168  20.434  0.00  0.00    +0.000 C 
ATOM      9  N   UNL     1       1.012   2.727  20.639  0.00  0.00    +0.000 NA
ATOM     10  C   UNL     1       1.970   2.120  19.706  0.00  0.00    +0.000 C 
ATOM     11  C   UNL     1       3.410   2.611  19.876  0.00  0.00    +0.000 C 
ATOM     12  H   UNL     1       0.113   2.258  20.522  0.00  0.00    +0.000 HD
ENDROOT
BRANCH   3  13
ATOM     13  C   UNL     1       5.542   4.902  16.239  0.00  0.00    +0.000 A 
ATOM     14  C   UNL     1       5.187   4.159  15.099  0.00  0.00    +0.000 A 
ATOM     15  C   UNL     1       6.025   4.103  13.986  0.00  0.00    +0.000 A 
ATOM     16  C   UNL     1       7.217   4.802  14.031  0.00  0.00    +0.000 A 
ATOM     17  N   UNL     1       7.607   5.538  15.092  0.00  0.00    +0.000 NA
ATOM     18  C   UNL     1       6.765   5.567  16.160  0.00  0.00    +0.000 A 
ENDBRANCH   3  13
BRANCH   1  20
ATOM     19  C   UNL     1       2.580   8.388  17.879  0.00  0.00    +0.000 C 
ATOM     20  N   UNL     1       2.610   7.438  18.991  0.00  0.00    +0.000 N 
BRANCH  20  21
ATOM     21  C   UNL     1       1.563   7.578  20.023  0.00  0.00    +0.000 C 
BRANCH  21  22
ATOM     22  C   UNL     1       1.336   8.986  20.605  0.00  0.00    +0.000 C 
ATOM     23  C   UNL     1       0.989   9.069  22.083  0.00  0.00    +0.000 C 
ATOM     24  C   UNL     1       0.145  10.314  22.157  0.00  0.00    +0.000 C 
ATOM     25  C   UNL     1      -0.562  10.313  20.822  0.00  0.00    +0.000 C 
ATOM     26  O   UNL     1       0.337   9.724  19.877  0.00  0.00    +0.000 OA
ENDBRANCH  21  22
ENDBRANCH  20  21
ENDBRANCH   1  20
TORSDOF 4
ENDMDL
MODEL 3
REMARK VINA RESULT:      -7.8      1.626      2.552
REMARK  Name = 
REMARK  5 active torsions:
REMARK  status: ('A' for Active; 'I' for Inactive)
REMARK    1  A    between atoms: C_1  and  N_2
REMARK    2  A    between atoms: N_2  and  C_3
REMARK    3  A    between atoms: N_2  and  C_9
REMARK    4  A    between atoms: C_3  and  C_4
REMARK    5  A    between atoms: C_11  and  C_12
REMARK                            x       y       z     vdW  Elec       q    Type
REMARK                         _______ _______ _______ _____ _____    ______ ____
ROOT
ATOM      1  C   UNL     1       3.946   4.987  18.046  0.00  0.00    +0.000 A 
ATOM      2  N   UNL     1       3.502   6.263  18.008  0.00  0.00    +0.000 NA
ATOM      3  C   UNL     1       2.494   6.628  18.818  0.00  0.00    +0.000 A 
ATOM      4  N   UNL     1       1.864   5.793  19.652  0.00  0.00    +0.000 NA
ATOM      5  C   UNL     1       2.276   4.515  19.660  0.00  0.00    +0.000 A 
ATOM      6  C   UNL     1       3.333   4.052  18.877  0.00  0.00    +0.000 A 
ATOM      7  C   UNL     1       3.714   2.597  18.976  0.00  0.00    +0.000 C 
ATOM      8  C   UNL     1       4.317   2.272  20.354  0.00  0.00    +0.000 C 
ATOM      9  N   UNL     1       3.327   1.993  21.402  0.00  0.00    +0.000 NA
ATOM     10  C   UNL     1       2.489   3.147  21.752  0.00  0.00    +0.000 C 
ATOM     11  C   UNL     1       1.559   3.613  20.629  0.00  0.00    +0.000 C 
ATOM     12  H   UNL     1       3.822   1.693  22.242  0.00  0.00    +0.000 HD
ENDROOT
BRANCH   3  13
ATOM     13  C   UNL     1       2.081   8.037  18.847  0.00  0.00    +0.000 A 
ATOM     14  C   UNL     1       2.316   8.909  17.769  0.00  0.00    +0.000 A 
ATOM     15  C   UNL     1       1.910  10.242  17.819  0.00  0.00    +0.000 A 
ATOM     16  C   UNL     1       1.264  10.684  18.958  0.00  0.00    +0.000 A 
ATOM     17  N   UNL     1       1.003   9.893  20.019  0.00  0.00    +0.000 NA
ATOM     18  C   UNL     1       1.417   8.599  19.935  0.00  0.00    +0.000 A 
ENDBRANCH   3  13
BRANCH   1  20
ATOM     19  C   UNL     1       4.986   5.128  15.850  0.00  0.00    +0.000 C 
ATOM     20  N   UNL     1       5.039   4.679  17.240  0.00  0.00    +0.000 N 
BRANCH  20  21
ATOM     21  C   UNL     1       6.377   4.455  17.824  0.00  0.00    +0.000 C 
BRANCH  21  22
ATOM     22  C   UNL     1       7.413   5.582  17.655  0.00  0.00    +0.000 C 
ATOM     23  C   UNL     1       7.929   6.234  18.927  0.00  0.00    +0.000 C 
ATOM     24  C   UNL     1       8.251   7.635  18.475  0.00  0.00    +0.000 C 
ATOM     25  C   UNL     1       7.208   7.886  17.411  0.00  0.00    +0.000 C 
ATOM     26  O   UNL     1       6.947   6.627  16.783  0.00  0.00    +0.000 OA
ENDBRANCH  21  22
ENDBRANCH  20  21
ENDBRANCH   1  20
TORSDOF 4
ENDMDL
MODEL 4
REMARK VINA RESULT:      -7.7      1.392      1.642
REMARK  Name = 
REMARK  5 active torsions:
REMARK  status: ('A' for Active; 'I' for Inactive)
REMARK    1  A    between atoms: C_1  and  N_2
REMARK    2  A    between atoms: N_2  and  C_3
REMARK    3  A    between atoms: N_2  and  C_9
REMARK    4  A    between atoms: C_3  and  C_4
REMARK    5  A    between atoms: C_11  and  C_12
REMARK                            x       y       z     vdW  Elec       q    Type
REMARK                         _______ _______ _______ _____ _____    ______ ____
ROOT
ATOM      1  C   UNL     1       4.074   5.067  18.145  0.00  0.00    +0.000 A 
ATOM      2  N   UNL     1       3.611   6.334  18.062  0.00  0.00    +0.000 NA
ATOM      3  C   UNL     1       2.534   6.684  18.784  0.00  0.00    +0.000 A 
ATOM      4  N   UNL     1       1.853   5.842  19.569  0.00  0.00    +0.000 NA
ATOM      5  C   UNL     1       2.285   4.572  19.620  0.00  0.00    +0.000 A 
ATOM      6  C   UNL     1       3.411   4.124  18.930  0.00  0.00    +0.000 A 
ATOM      7  C   UNL     1       3.808   2.677  19.069  0.00  0.00    +0.000 C 
ATOM      8  C   UNL     1       4.302   2.371  20.494  0.00  0.00    +0.000 C 
ATOM      9  N   UNL     1       3.235   2.079  21.459  0.00  0.00    +0.000 NA
ATOM     10  C   UNL     1       2.350   3.219  21.732  0.00  0.00    +0.000 C 
ATOM     11  C   UNL     1       1.508   3.662  20.533  0.00  0.00    +0.000 C 
ATOM     12  H   UNL     1       3.665   1.792  22.339  0.00  0.00    +0.000 HD
ENDROOT
BRANCH   3  13
ATOM     13  C   UNL     1       2.095   8.085  18.770  0.00  0.00    +0.000 A 
ATOM     14  C   UNL     1       1.354   8.649  19.824  0.00  0.00    +0.000 A 
ATOM     15  C   UNL     1       0.952   9.984  19.789  0.00  0.00    +0.000 A 
ATOM     16  C   UNL     1       1.307  10.743  18.689  0.00  0.00    +0.000 A 
ATOM     17  N   UNL     1       2.023  10.260  17.653  0.00  0.00    +0.000 NA
ATOM     18  C   UNL     1       2.395   8.953  17.721  0.00  0.00    +0.000 A 
ENDBRANCH   3  13
BRANCH   1  20
ATOM     19  C   UNL     1       6.497   4.840  18.168  0.00  0.00    +0.000 C 
ATOM     20  N   UNL     1       5.234   4.774  17.434  0.00  0.00    +0.000 N 
BRANCH  20  21
ATOM     21  C   UNL     1       5.195   3.909  16.237  0.00  0.00    +0.000 C 
BRANCH  21  22
ATOM     22  C   UNL     1       5.525   4.569  14.885  0.00  0.00    +0.000 C 
ATOM     23  C   UNL     1       5.745   3.637  13.704  0.00  0.00    +0.000 C 
ATOM     24  C   UNL     1       6.713   4.410  12.847  0.00  0.00    +0.000 C 
ATOM     25  C   UNL     1       7.532   5.162  13.870  0.00  0.00    +0.000 C 
ATOM     26  O   UNL     1       6.661   5.449  14.968  0.00  0.00    +0.000 OA
ENDBRANCH  21  22
ENDBRANCH  20  21
ENDBRANCH   1  20
TORSDOF 4
ENDMDL
MODEL 5
REMARK VINA RESULT:      -7.7      0.861      1.139
REMARK  Name = 
REMARK  5 active torsions:
REMARK  status: ('A' for Active; 'I' for Inactive)
REMARK    1  A    between atoms: C_1  and  N_2
REMARK    2  A    between atoms: N_2  and  C_3
REMARK    3  A    between atoms: N_2  and  C_9
REMARK    4  A    between atoms: C_3  and  C_4
REMARK    5  A    between atoms: C_11  and  C_12
REMARK                            x       y       z     vdW  Elec       q    Type
REMARK                         _______ _______ _______ _____ _____    ______ ____
ROOT
ATOM      1  C   UNL     1       4.210   5.542  17.391  0.00  0.00    +0.000 A 
ATOM      2  N   UNL     1       3.718   6.748  17.756  0.00  0.00    +0.000 NA
ATOM      3  C   UNL     1       2.482   6.818  18.276  0.00  0.00    +0.000 A 
ATOM      4  N   UNL     1       1.673   5.763  18.428  0.00  0.00    +0.000 NA
ATOM      5  C   UNL     1       2.142   4.572  18.026  0.00  0.00    +0.000 A 
ATOM      6  C   UNL     1       3.423   4.397  17.503  0.00  0.00    +0.000 A 
ATOM      7  C   UNL     1       3.846   3.010  17.093  0.00  0.00    +0.000 C 
ATOM      8  C   UNL     1       3.993   2.088  18.317  0.00  0.00    +0.000 C 
ATOM      9  N   UNL     1       2.738   1.475  18.770  0.00  0.00    +0.000 NA
ATOM     10  C   UNL     1       1.758   2.438  19.288  0.00  0.00    +0.000 C 
ATOM     11  C   UNL     1       1.212   3.407  18.236  0.00  0.00    +0.000 C 
ATOM     12  H   UNL     1       2.954   0.810  19.514  0.00  0.00    +0.000 HD
ENDROOT
BRANCH   3  13
ATOM     13  C   UNL     1       1.990   8.112  18.765  0.00  0.00    +0.000 A 
ATOM     14  C   UNL     1       1.872   9.235  17.927  0.00  0.00    +0.000 A 
ATOM     15  C   UNL     1       1.398  10.452  18.414  0.00  0.00    +0.000 A 
ATOM     16  C   UNL     1       1.041  10.525  19.748  0.00  0.00    +0.000 A 
ATOM     17  N   UNL     1       1.123   9.481  20.598  0.00  0.00    +0.000 NA
ATOM     18  C   UNL     1       1.593   8.310  20.087  0.00  0.00    +0.000 A 
ENDBRANCH   3  13
BRANCH   1  20
ATOM     19  C   UNL     1       6.471   4.684  17.666  0.00  0.00    +0.000 C 
ATOM     20  N   UNL     1       5.521   5.514  16.926  0.00  0.00    +0.000 N 
BRANCH  20  21
ATOM     21  C   UNL     1       5.833   5.791  15.509  0.00  0.00    +0.000 C 
BRANCH  21  22
ATOM     22  C   UNL     1       6.305   4.603  14.650  0.00  0.00    +0.000 C 
ATOM     23  C   UNL     1       7.291   4.914  13.534  0.00  0.00    +0.000 C 
ATOM     24  C   UNL     1       6.975   3.857  12.508  0.00  0.00    +0.000 C 
ATOM     25  C   UNL     1       5.489   3.654  12.689  0.00  0.00    +0.000 C 
ATOM     26  O   UNL     1       5.207   3.872  14.075  0.00  0.00    +0.000 OA
ENDBRANCH  21  22
ENDBRANCH  20  21
ENDBRANCH   1  20
TORSDOF 4
ENDMDL
MODEL 6
REMARK VINA RESULT:      -7.7      1.788      2.303
REMARK  Name = 
REMARK  5 active torsions:
REMARK  status: ('A' for Active; 'I' for Inactive)
REMARK    1  A    between atoms: C_1  and  N_2
REMARK    2  A    between atoms: N_2  and  C_3
REMARK    3  A    between atoms: N_2  and  C_9
REMARK    4  A    between atoms: C_3  and  C_4
REMARK    5  A    between atoms: C_11  and  C_12
REMARK                            x       y       z     vdW  Elec       q    Type
REMARK                         _______ _______ _______ _____ _____    ______ ____
ROOT
ATOM      1  C   UNL     1       3.266   6.033  18.714  0.00  0.00    +0.000 A 
ATOM      2  N   UNL     1       2.746   7.213  19.120  0.00  0.00    +0.000 NA
ATOM      3  C   UNL     1       1.812   7.216  20.086  0.00  0.00    +0.000 A 
ATOM      4  N   UNL     1       1.326   6.111  20.661  0.00  0.00    +0.000 NA
ATOM      5  C   UNL     1       1.810   4.936  20.229  0.00  0.00    +0.000 A 
ATOM      6  C   UNL     1       2.801   4.834  19.254  0.00  0.00    +0.000 A 
ATOM      7  C   UNL     1       3.275   3.461  18.854  0.00  0.00    +0.000 C 
ATOM      8  C   UNL     1       4.041   2.780  20.002  0.00  0.00    +0.000 C 
ATOM      9  N   UNL     1       3.188   2.103  20.986  0.00  0.00    +0.000 NA
ATOM     10  C   UNL     1       2.326   3.012  21.754  0.00  0.00    +0.000 C 
ATOM     11  C   UNL     1       1.256   3.717  20.918  0.00  0.00    +0.000 C 
ATOM     12  H   UNL     1       3.788   1.602  21.643  0.00  0.00    +0.000 HD
ENDROOT
BRANCH   3  13
ATOM     13  C   UNL     1       1.323   8.504  20.595  0.00  0.00    +0.000 A 
ATOM     14  C   UNL     1       0.873   9.526  19.740  0.00  0.00    +0.000 A 
ATOM     15  C   UNL     1       0.409  10.739  20.249  0.00  0.00    +0.000 A 
ATOM     16  C   UNL     1       0.399  10.909  21.621  0.00  0.00    +0.000 A 
ATOM     17  N   UNL     1       0.809   9.963  22.490  0.00  0.00    +0.000 NA
ATOM     18  C   UNL     1       1.258   8.794  21.957  0.00  0.00    +0.000 A 
ENDBRANCH   3  13
BRANCH   1  20
ATOM     19  C   UNL     1       4.259   7.216  16.833  0.00  0.00    +0.000 C 
ATOM     20  N   UNL     1       4.281   6.088  17.763  0.00  0.00    +0.000 N 
BRANCH  20  21
ATOM     21  C   UNL     1       5.586   5.441  18.005  0.00  0.00    +0.000 C 
BRANCH  21  22
ATOM     22  C   UNL     1       6.176   4.601  16.856  0.00  0.00    +0.000 C 
ATOM     23  C   UNL     1       7.204   5.283  15.968  0.00  0.00    +0.000 C 
ATOM     24  C   UNL     1       7.011   4.590  14.644  0.00  0.00    +0.000 C 
ATOM     25  C   UNL     1       5.531   4.287  14.643  0.00  0.00    +0.000 C 
ATOM     26  O   UNL     1       5.156   4.048  16.004  0.00  0.00    +0.000 OA
ENDBRANCH  21  22
ENDBRANCH  20  21
ENDBRANCH   1  20
TORSDOF 4
ENDMDL
MODEL 7
REMARK VINA RESULT:      -7.6      1.891      2.766
REMARK  Name = 
REMARK  5 active torsions:
REMARK  status: ('A' for Active; 'I' for Inactive)
REMARK    1  A    between atoms: C_1  and  N_2
REMARK    2  A    between atoms: N_2  and  C_3
REMARK    3  A    between atoms: N_2  and  C_9
REMARK    4  A    between atoms: C_3  and  C_4
REMARK    5  A    between atoms: C_11  and  C_12
REMARK                            x       y       z     vdW  Elec       q    Type
REMARK                         _______ _______ _______ _____ _____    ______ ____
ROOT
ATOM      1  C   UNL     1       3.604   5.328  17.991  0.00  0.00    +0.000 A 
ATOM      2  N   UNL     1       3.187   6.614  17.997  0.00  0.00    +0.000 NA
ATOM      3  C   UNL     1       2.252   6.991  18.884  0.00  0.00    +0.000 A 
ATOM      4  N   UNL     1       1.667   6.160  19.755  0.00  0.00    +0.000 NA
ATOM      5  C   UNL     1       2.049   4.874  19.721  0.00  0.00    +0.000 A 
ATOM      6  C   UNL     1       3.034   4.396  18.856  0.00  0.00    +0.000 A 
ATOM      7  C   UNL     1       3.388   2.933  18.912  0.00  0.00    +0.000 C 
ATOM      8  C   UNL     1       4.085   2.580  20.238  0.00  0.00    +0.000 C 
ATOM      9  N   UNL     1       3.170   2.310  21.354  0.00  0.00    +0.000 NA
ATOM     10  C   UNL     1       2.387   3.479  21.778  0.00  0.00    +0.000 C 
ATOM     11  C   UNL     1       1.387   3.977  20.732  0.00  0.00    +0.000 C 
ATOM     12  H   UNL     1       3.720   1.990  22.153  0.00  0.00    +0.000 HD
ENDROOT
BRANCH   3  13
ATOM     13  C   UNL     1       1.874   8.408  18.958  0.00  0.00    +0.000 A 
ATOM     14  C   UNL     1       1.167   8.940  20.051  0.00  0.00    +0.000 A 
ATOM     15  C   UNL     1       0.824  10.290  20.099  0.00  0.00    +0.000 A 
ATOM     16  C   UNL     1       1.203  11.097  19.042  0.00  0.00    +0.000 A 
ATOM     17  N   UNL     1       1.889  10.647  17.972  0.00  0.00    +0.000 NA
ATOM     18  C   UNL     1       2.203   9.323  17.959  0.00  0.00    +0.000 A 
ENDBRANCH   3  13
BRANCH   1  20
ATOM     19  C   UNL     1       4.512   3.729  16.395  0.00  0.00    +0.000 C 
ATOM     20  N   UNL     1       4.626   5.004  17.102  0.00  0.00    +0.000 N 
BRANCH  20  21
ATOM     21  C   UNL     1       5.441   6.057  16.463  0.00  0.00    +0.000 C 
BRANCH  21  22
ATOM     22  C   UNL     1       6.876   6.249  16.989  0.00  0.00    +0.000 C 
ATOM     23  C   UNL     1       7.117   5.923  18.455  0.00  0.00    +0.000 C 
ATOM     24  C   UNL     1       8.244   6.853  18.821  0.00  0.00    +0.000 C 
ATOM     25  C   UNL     1       7.971   8.060  17.955  0.00  0.00    +0.000 C 
ATOM     26  O   UNL     1       7.375   7.577  16.747  0.00  0.00    +0.000 OA
ENDBRANCH  21  22
ENDBRANCH  20  21
ENDBRANCH   1  20
TORSDOF 4
ENDMDL
MODEL 8
REMARK VINA RESULT:      -7.6      1.188      1.271
REMARK  Name = 
REMARK  5 active torsions:
REMARK  status: ('A' for Active; 'I' for Inactive)
REMARK    1  A    between atoms: C_1  and  N_2
REMARK    2  A    between atoms: N_2  and  C_3
REMARK    3  A    between atoms: N_2  and  C_9
REMARK    4  A    between atoms: C_3  and  C_4
REMARK    5  A    between atoms: C_11  and  C_12
REMARK                            x       y       z     vdW  Elec       q    Type
REMARK                         _______ _______ _______ _____ _____    ______ ____
ROOT
ATOM      1  C   UNL     1       4.350   5.300  18.577  0.00  0.00    +0.000 A 
ATOM      2  N   UNL     1       3.808   6.536  18.488  0.00  0.00    +0.000 NA
ATOM      3  C   UNL     1       2.598   6.757  19.028  0.00  0.00    +0.000 A 
ATOM      4  N   UNL     1       1.862   5.815  19.628  0.00  0.00    +0.000 NA
ATOM      5  C   UNL     1       2.380   4.578  19.679  0.00  0.00    +0.000 A 
ATOM      6  C   UNL     1       3.640   4.260  19.173  0.00  0.00    +0.000 A 
ATOM      7  C   UNL     1       4.122   2.837  19.294  0.00  0.00    +0.000 C 
ATOM      8  C   UNL     1       4.386   2.463  20.764  0.00  0.00    +0.000 C 
ATOM      9  N   UNL     1       3.195   2.028  21.504  0.00  0.00    +0.000 NA
ATOM     10  C   UNL     1       2.188   3.083  21.684  0.00  0.00    +0.000 C 
ATOM     11  C   UNL     1       1.532   3.552  20.383  0.00  0.00    +0.000 C 
ATOM     12  H   UNL     1       3.489   1.708  22.428  0.00  0.00    +0.000 HD
ENDROOT
BRANCH   3  13
ATOM     13  C   UNL     1       2.057   8.123  19.020  0.00  0.00    +0.000 A 
ATOM     14  C   UNL     1       2.162   8.964  17.897  0.00  0.00    +0.000 A 
ATOM     15  C   UNL     1       1.636  10.255  17.913  0.00  0.00    +0.000 A 
ATOM     16  C   UNL     1       1.002  10.686  19.063  0.00  0.00    +0.000 A 
ATOM     17  N   UNL     1       0.862   9.923  20.166  0.00  0.00    +0.000 NA
ATOM     18  C   UNL     1       1.391   8.670  20.115  0.00  0.00    +0.000 A 
ENDBRANCH   3  13
BRANCH   1  20
ATOM     19  C   UNL     1       6.748   5.494  18.946  0.00  0.00    +0.000 C 
ATOM     20  N   UNL     1       5.635   5.140  18.066  0.00  0.00    +0.000 N 
BRANCH  20  21
ATOM     21  C   UNL     1       5.911   4.167  16.990  0.00  0.00    +0.000 C 
BRANCH  21  22
ATOM     22  C   UNL     1       5.842   4.685  15.541  0.00  0.00    +0.000 C 
ATOM     23  C   UNL     1       5.667   3.641  14.449  0.00  0.00    +0.000 C 
ATOM     24  C   UNL     1       6.360   4.275  13.270  0.00  0.00    +0.000 C 
ATOM     25  C   UNL     1       7.472   5.061  13.925  0.00  0.00    +0.000 C 
ATOM     26  O   UNL     1       6.979   5.496  15.196  0.00  0.00    +0.000 OA
ENDBRANCH  21  22
ENDBRANCH  20  21
ENDBRANCH   1  20
TORSDOF 4
ENDMDL
MODEL 9
REMARK VINA RESULT:      -7.6      1.358      2.367
REMARK  Name = 
REMARK  5 active torsions:
REMARK  status: ('A' for Active; 'I' for Inactive)
REMARK    1  A    between atoms: C_1  and  N_2
REMARK    2  A    between atoms: N_2  and  C_3
REMARK    3  A    between atoms: N_2  and  C_9
REMARK    4  A    between atoms: C_3  and  C_4
REMARK    5  A    between atoms: C_11  and  C_12
REMARK                            x       y       z     vdW  Elec       q    Type
REMARK                         _______ _______ _______ _____ _____    ______ ____
ROOT
ATOM      1  C   UNL     1       4.114   4.785  17.396  0.00  0.00    +0.000 A 
ATOM      2  N   UNL     1       3.740   6.057  17.663  0.00  0.00    +0.000 NA
ATOM      3  C   UNL     1       2.546   6.279  18.236  0.00  0.00    +0.000 A 
ATOM      4  N   UNL     1       1.668   5.315  18.536  0.00  0.00    +0.000 NA
ATOM      5  C   UNL     1       2.020   4.055  18.233  0.00  0.00    +0.000 A 
ATOM      6  C   UNL     1       3.250   3.725  17.665  0.00  0.00    +0.000 A 
ATOM      7  C   UNL     1       3.540   2.275  17.376  0.00  0.00    +0.000 C 
ATOM      8  C   UNL     1       3.687   1.467  18.678  0.00  0.00    +0.000 C 
ATOM      9  N   UNL     1       2.419   1.007  19.256  0.00  0.00    +0.000 NA
ATOM     10  C   UNL     1       1.548   2.093  19.724  0.00  0.00    +0.000 C 
ATOM     11  C   UNL     1       1.017   2.997  18.609  0.00  0.00    +0.000 C 
ATOM     12  H   UNL     1       2.627   0.401  20.051  0.00  0.00    +0.000 HD
ENDROOT
BRANCH   3  13
ATOM     13  C   UNL     1       2.185   7.651  18.616  0.00  0.00    +0.000 A 
ATOM     14  C   UNL     1       2.192   8.711  17.693  0.00  0.00    +0.000 A 
ATOM     15  C   UNL     1       1.841  10.004  18.078  0.00  0.00    +0.000 A 
ATOM     16  C   UNL     1       1.481  10.217  19.395  0.00  0.00    +0.000 A 
ATOM     17  N   UNL     1       1.446   9.239  20.323  0.00  0.00    +0.000 NA
ATOM     18  C   UNL     1       1.798   7.991  19.911  0.00  0.00    +0.000 A 
ENDBRANCH   3  13
BRANCH   1  20
ATOM     19  C   UNL     1       5.545   4.796  15.427  0.00  0.00    +0.000 C 
ATOM     20  N   UNL     1       5.389   4.604  16.869  0.00  0.00    +0.000 N 
BRANCH  20  21
ATOM     21  C   UNL     1       6.592   4.786  17.706  0.00  0.00    +0.000 C 
BRANCH  21  22
ATOM     22  C   UNL     1       7.451   6.036  17.437  0.00  0.00    +0.000 C 
ATOM     23  C   UNL     1       8.149   6.658  18.636  0.00  0.00    +0.000 C 
ATOM     24  C   UNL     1       8.226   8.114  18.257  0.00  0.00    +0.000 C 
ATOM     25  C   UNL     1       6.966   8.311  17.446  0.00  0.00    +0.000 C 
ATOM     26  O   UNL     1       6.711   7.075  16.771  0.00  0.00    +0.000 OA
ENDBRANCH  21  22
ENDBRANCH  20  21
ENDBRANCH   1  20
TORSDOF 4
ENDMDL
