MODEL 1
REMARK VINA RESULT:      -9.0      0.000      0.000
REMARK  Name = 
REMARK  6 active torsions:
REMARK  status: ('A' for Active; 'I' for Inactive)
REMARK    1  A    between atoms: C_2  and  O_3
REMARK    2  A    between atoms: C_2  and  C_4
REMARK    3  A    between atoms: C_4  and  C_6
REMARK    4  A    between atoms: C_9  and  N_10
REMARK    5  A    between atoms: C_12  and  C_13
REMARK    6  A    between atoms: C_16  and  C_17
REMARK                            x       y       z     vdW  Elec       q    Type
REMARK                         _______ _______ _______ _____ _____    ______ ____
ROOT
ATOM      1  N   UNL     1       2.513   6.712  19.313  0.00  0.00    +0.000 N 
ATOM      2  C   UNL     1       2.064   7.993  19.505  0.00  0.00    +0.000 A 
ATOM      3  C   UNL     1       1.293   7.933  20.642  0.00  0.00    +0.000 A 
ATOM      4  N   UNL     1       1.304   6.652  21.118  0.00  0.00    +0.000 NA
ATOM      5  N   UNL     1       2.047   5.915  20.303  0.00  0.00    +0.000 NA
ENDROOT
BRANCH   1   9
ATOM      6  C   UNL     1       4.925   5.208  16.184  0.00  0.00    +0.000 A 
ATOM      7  C   UNL     1       4.886   6.584  16.440  0.00  0.00    +0.000 A 
ATOM      8  C   UNL     1       4.097   7.088  17.477  0.00  0.00    +0.000 A 
ATOM      9  C   UNL     1       3.327   6.217  18.260  0.00  0.00    +0.000 A 
ATOM     10  C   UNL     1       3.354   4.842  17.994  0.00  0.00    +0.000 A 
ATOM     11  C   UNL     1       4.145   4.341  16.955  0.00  0.00    +0.000 A 
BRANCH   6  12
ATOM     12  C   UNL     1       5.782   4.733  15.075  0.00  0.00    +0.000 C 
ATOM     13  O   UNL     1       5.314   4.159  14.092  0.00  0.00    +0.000 OA
BRANCH  12  15
ATOM     14  O   UNL     1       7.908   5.509  14.174  0.00  0.00    +0.000 OA
ATOM     15  C   UNL     1       7.292   4.967  15.067  0.00  0.00    +0.000 C 
BRANCH  15  16
ATOM     16  O   UNL     1       7.838   4.452  16.189  0.00  0.00    +0.000 OA
ATOM     17  H   UNL     1       7.374   3.609  16.409  0.00  0.00    +0.000 HD
ENDBRANCH  15  16
ENDBRANCH  12  15
ENDBRANCH   6  12
ENDBRANCH   1   9
BRANCH   3  18
ATOM     18  C   UNL     1       0.561   9.031  21.243  0.00  0.00    +0.000 A 
ATOM     19  C   UNL     1       0.163  10.140  20.489  0.00  0.00    +0.000 A 
ATOM     20  C   UNL     1      -0.552  11.187  21.078  0.00  0.00    +0.000 A 
ATOM     21  C   UNL     1      -0.914  11.159  22.435  0.00  0.00    +0.000 A 
ATOM     22  C   UNL     1      -0.505  10.042  23.182  0.00  0.00    +0.000 A 
ATOM     23  C   UNL     1       0.225   8.997  22.599  0.00  0.00    +0.000 A 
BRANCH  21  24
ATOM     24  C   UNL     1      -1.687  12.270  23.037  0.00  0.00    +0.000 A 
ATOM     25  C   UNL     1      -1.100  13.532  23.261  0.00  0.00    +0.000 A 
ATOM     26  C   UNL     1      -1.807  14.573  23.865  0.00  0.00    +0.000 A 
ATOM     27  C   UNL     1      -3.132  14.385  24.243  0.00  0.00    +0.000 A 
ATOM     28  C   UNL     1      -3.745  13.157  24.017  0.00  0.00    +0.000 A 
ATOM     29  C   UNL     1      -3.028  12.111  23.426  0.00  0.00    +0.000 A 
ENDBRANCH  21  24
ENDBRANCH   3  18
TORSDOF 6
ENDMDL
MODEL 2
REMARK VINA RESULT:      -8.9      0.120      1.294
REMARK  Name = 
REMARK  6 active torsions:
REMARK  status: ('A' for Active; 'I' for Inactive)
REMARK    1  A    between atoms: C_2  and  O_3
REMARK    2  A    between atoms: C_2  and  C_4
REMARK    3  A    between atoms: C_4  and  C_6
REMARK    4  A    between atoms: C_9  and  N_10
REMARK    5  A    between atoms: C_12  and  C_13
REMARK    6  A    between atoms: C_16  and  C_17
REMARK                            x       y       z     vdW  Elec       q    Type
REMARK                         _______ _______ _______ _____ _____    ______ ____
ROOT
ATOM      1  N   UNL     1       2.491   6.765  19.321  0.00  0.00    +0.000 N 
ATOM      2  C   UNL     1       2.055   8.050  19.521  0.00  0.00    +0.000 A 
ATOM      3  C   UNL     1       1.280   7.989  20.655  0.00  0.00    +0.000 A 
ATOM      4  N   UNL     1       1.275   6.705  21.121  0.00  0.00    +0.000 NA
ATOM      5  N   UNL     1       2.013   5.966  20.303  0.00  0.00    +0.000 NA
ENDROOT
BRANCH   1   9
ATOM      6  C   UNL     1       4.925   5.322  16.179  0.00  0.00    +0.000 A 
ATOM      7  C   UNL     1       4.200   4.425  16.974  0.00  0.00    +0.000 A 
ATOM      8  C   UNL     1       3.388   4.894  18.009  0.00  0.00    +0.000 A 
ATOM      9  C   UNL     1       3.304   6.270  18.267  0.00  0.00    +0.000 A 
ATOM     10  C   UNL     1       4.042   7.166  17.482  0.00  0.00    +0.000 A 
ATOM     11  C   UNL     1       4.854   6.692  16.447  0.00  0.00    +0.000 A 
BRANCH   6  12
ATOM     12  C   UNL     1       5.764   4.766  15.096  0.00  0.00    +0.000 C 
ATOM     13  O   UNL     1       5.280   4.135  14.157  0.00  0.00    +0.000 OA
BRANCH  12  15
ATOM     14  O   UNL     1       7.887   5.488  14.142  0.00  0.00    +0.000 OA
ATOM     15  C   UNL     1       7.278   4.979  15.059  0.00  0.00    +0.000 C 
BRANCH  15  16
ATOM     16  O   UNL     1       7.834   4.489  16.186  0.00  0.00    +0.000 OA
ATOM     17  H   UNL     1       7.764   5.171  16.897  0.00  0.00    +0.000 HD
ENDBRANCH  15  16
ENDBRANCH  12  15
ENDBRANCH   6  12
ENDBRANCH   1   9
BRANCH   3  18
ATOM     18  C   UNL     1       0.557   9.091  21.262  0.00  0.00    +0.000 A 
ATOM     19  C   UNL     1       0.369  10.299  20.583  0.00  0.00    +0.000 A 
ATOM     20  C   UNL     1      -0.340  11.349  21.175  0.00  0.00    +0.000 A 
ATOM     21  C   UNL     1      -0.903  11.228  22.456  0.00  0.00    +0.000 A 
ATOM     22  C   UNL     1      -0.703  10.010  23.128  0.00  0.00    +0.000 A 
ATOM     23  C   UNL     1       0.019   8.960  22.545  0.00  0.00    +0.000 A 
BRANCH  21  24
ATOM     24  C   UNL     1      -1.665  12.346  23.059  0.00  0.00    +0.000 A 
ATOM     25  C   UNL     1      -3.007  12.184  23.456  0.00  0.00    +0.000 A 
ATOM     26  C   UNL     1      -3.747  13.242  23.987  0.00  0.00    +0.000 A 
ATOM     27  C   UNL     1      -3.155  14.489  24.155  0.00  0.00    +0.000 A 
ATOM     28  C   UNL     1      -1.826  14.674  23.791  0.00  0.00    +0.000 A 
ATOM     29  C   UNL     1      -1.092  13.616  23.244  0.00  0.00    +0.000 A 
ENDBRANCH  21  24
ENDBRANCH   3  18
TORSDOF 6
ENDMDL
MODEL 3
REMARK VINA RESULT:      -8.9      0.121      1.098
REMARK  Name = 
REMARK  6 active torsions:
REMARK  status: ('A' for Active; 'I' for Inactive)
REMARK    1  A    between atoms: C_2  and  O_3
REMARK    2  A    between atoms: C_2  and  C_4
REMARK    3  A    between atoms: C_4  and  C_6
REMARK    4  A    between atoms: C_9  and  N_10
REMARK    5  A    between atoms: C_12  and  C_13
REMARK    6  A    between atoms: C_16  and  C_17
REMARK                            x       y       z     vdW  Elec       q    Type
REMARK                         _______ _______ _______ _____ _____    ______ ____
ROOT
ATOM      1  N   UNL     1       2.445   6.743  19.355  0.00  0.00    +0.000 N 
ATOM      2  C   UNL     1       1.995   8.025  19.540  0.00  0.00    +0.000 A 
ATOM      3  C   UNL     1       1.226   7.971  20.679  0.00  0.00    +0.000 A 
ATOM      4  N   UNL     1       1.239   6.692  21.163  0.00  0.00    +0.000 NA
ATOM      5  N   UNL     1       1.982   5.951  20.351  0.00  0.00    +0.000 NA
ENDROOT
BRANCH   1   9
ATOM      6  C   UNL     1       4.852   5.223  16.229  0.00  0.00    +0.000 A 
ATOM      7  C   UNL     1       4.884   6.588  16.539  0.00  0.00    +0.000 A 
ATOM      8  C   UNL     1       4.098   7.098  17.575  0.00  0.00    +0.000 A 
ATOM      9  C   UNL     1       3.258   6.243  18.304  0.00  0.00    +0.000 A 
ATOM     10  C   UNL     1       3.214   4.880  17.983  0.00  0.00    +0.000 A 
ATOM     11  C   UNL     1       4.003   4.374  16.945  0.00  0.00    +0.000 A 
BRANCH   6  12
ATOM     12  C   UNL     1       5.710   4.743  15.124  0.00  0.00    +0.000 C 
ATOM     13  O   UNL     1       5.235   4.280  14.086  0.00  0.00    +0.000 OA
BRANCH  12  15
ATOM     14  O   UNL     1       7.914   4.463  16.123  0.00  0.00    +0.000 OA
ATOM     15  C   UNL     1       7.234   4.833  15.190  0.00  0.00    +0.000 C 
BRANCH  15  16
ATOM     16  O   UNL     1       7.705   5.414  14.066  0.00  0.00    +0.000 OA
ATOM     17  H   UNL     1       7.603   6.393  14.149  0.00  0.00    +0.000 HD
ENDBRANCH  15  16
ENDBRANCH  12  15
ENDBRANCH   6  12
ENDBRANCH   1   9
BRANCH   3  18
ATOM     18  C   UNL     1       0.494   9.072  21.275  0.00  0.00    +0.000 A 
ATOM     19  C   UNL     1       0.135  10.197  20.526  0.00  0.00    +0.000 A 
ATOM     20  C   UNL     1      -0.581  11.246  21.109  0.00  0.00    +0.000 A 
ATOM     21  C   UNL     1      -0.983  11.205  22.454  0.00  0.00    +0.000 A 
ATOM     22  C   UNL     1      -0.613  10.071  23.196  0.00  0.00    +0.000 A 
ATOM     23  C   UNL     1       0.118   9.023  22.620  0.00  0.00    +0.000 A 
BRANCH  21  24
ATOM     24  C   UNL     1      -1.756  12.320  23.049  0.00  0.00    +0.000 A 
ATOM     25  C   UNL     1      -3.112  12.162  23.401  0.00  0.00    +0.000 A 
ATOM     26  C   UNL     1      -3.861  13.217  23.925  0.00  0.00    +0.000 A 
ATOM     27  C   UNL     1      -3.266  14.457  24.130  0.00  0.00    +0.000 A 
ATOM     28  C   UNL     1      -1.925  14.638  23.810  0.00  0.00    +0.000 A 
ATOM     29  C   UNL     1      -1.182  13.583  23.271  0.00  0.00    +0.000 A 
ENDBRANCH  21  24
ENDBRANCH   3  18
TORSDOF 6
ENDMDL
MODEL 4
REMARK VINA RESULT:      -8.5      0.384      1.469
REMARK  Name = 
REMARK  6 active torsions:
REMARK  status: ('A' for Active; 'I' for Inactive)
REMARK    1  A    between atoms: C_2  and  O_3
REMARK    2  A    between atoms: C_2  and  C_4
REMARK    3  A    between atoms: C_4  and  C_6
REMARK    4  A    between atoms: C_9  and  N_10
REMARK    5  A    between atoms: C_12  and  C_13
REMARK    6  A    between atoms: C_16  and  C_17
REMARK                            x       y       z     vdW  Elec       q    Type
REMARK                         _______ _______ _______ _____ _____    ______ ____
ROOT
ATOM      1  N   UNL     1       2.400   6.874  19.365  0.00  0.00    +0.000 N 
ATOM      2  C   UNL     1       1.871   8.134  19.483  0.00  0.00    +0.000 A 
ATOM      3  C   UNL     1       1.130   8.100  20.641  0.00  0.00    +0.000 A 
ATOM      4  N   UNL     1       1.237   6.857  21.200  0.00  0.00    +0.000 NA
ATOM      5  N   UNL     1       2.010   6.117  20.417  0.00  0.00    +0.000 NA
ENDROOT
BRANCH   1   9
ATOM      6  C   UNL     1       4.864   5.388  16.267  0.00  0.00    +0.000 A 
ATOM      7  C   UNL     1       4.181   4.500  17.108  0.00  0.00    +0.000 A 
ATOM      8  C   UNL     1       3.359   4.983  18.129  0.00  0.00    +0.000 A 
ATOM      9  C   UNL     1       3.224   6.365  18.327  0.00  0.00    +0.000 A 
ATOM     10  C   UNL     1       3.920   7.253  17.496  0.00  0.00    +0.000 A 
ATOM     11  C   UNL     1       4.742   6.765  16.475  0.00  0.00    +0.000 A 
BRANCH   6  12
ATOM     12  C   UNL     1       5.716   4.816  15.202  0.00  0.00    +0.000 C 
ATOM     13  O   UNL     1       5.238   4.337  14.174  0.00  0.00    +0.000 OA
BRANCH  12  15
ATOM     14  O   UNL     1       7.883   4.398  16.234  0.00  0.00    +0.000 OA
ATOM     15  C   UNL     1       7.242   4.827  15.298  0.00  0.00    +0.000 C 
BRANCH  15  16
ATOM     16  O   UNL     1       7.763   5.410  14.199  0.00  0.00    +0.000 OA
ATOM     17  H   UNL     1       7.397   4.963  13.398  0.00  0.00    +0.000 HD
ENDBRANCH  15  16
ENDBRANCH  12  15
ENDBRANCH   6  12
ENDBRANCH   1   9
BRANCH   3  18
ATOM     18  C   UNL     1       0.338   9.186  21.187  0.00  0.00    +0.000 A 
ATOM     19  C   UNL     1       0.112   9.300  22.563  0.00  0.00    +0.000 A 
ATOM     20  C   UNL     1      -0.642  10.358  23.078  0.00  0.00    +0.000 A 
ATOM     21  C   UNL     1      -1.183  11.352  22.245  0.00  0.00    +0.000 A 
ATOM     22  C   UNL     1      -0.951  11.223  20.866  0.00  0.00    +0.000 A 
ATOM     23  C   UNL     1      -0.208  10.156  20.343  0.00  0.00    +0.000 A 
BRANCH  21  24
ATOM     24  C   UNL     1      -1.965  12.475  22.812  0.00  0.00    +0.000 A 
ATOM     25  C   UNL     1      -1.341  13.498  23.554  0.00  0.00    +0.000 A 
ATOM     26  C   UNL     1      -2.074  14.539  24.127  0.00  0.00    +0.000 A 
ATOM     27  C   UNL     1      -3.453  14.595  23.955  0.00  0.00    +0.000 A 
ATOM     28  C   UNL     1      -4.094  13.610  23.211  0.00  0.00    +0.000 A 
ATOM     29  C   UNL     1      -3.359  12.560  22.652  0.00  0.00    +0.000 A 
ENDBRANCH  21  24
ENDBRANCH   3  18
TORSDOF 6
ENDMDL
MODEL 5
REMARK VINA RESULT:      -8.5      0.595      1.888
REMARK  Name = 
REMARK  6 active torsions:
REMARK  status: ('A' for Active; 'I' for Inactive)
REMARK    1  A    between atoms: C_2  and  O_3
REMARK    2  A    between atoms: C_2  and  C_4
REMARK    3  A    between atoms: C_4  and  C_6
REMARK    4  A    between atoms: C_9  and  N_10
REMARK    5  A    between atoms: C_12  and  C_13
REMARK    6  A    between atoms: C_16  and  C_17
REMARK                            x       y       z     vdW  Elec       q    Type
REMARK                         _______ _______ _______ _____ _____    ______ ____
ROOT
ATOM      1  N   UNL     1       2.712   6.620  19.565  0.00  0.00    +0.000 N 
ATOM      2  C   UNL     1       2.326   7.911  19.818  0.00  0.00    +0.000 A 
ATOM      3  C   UNL     1       1.309   7.804  20.737  0.00  0.00    +0.000 A 
ATOM      4  N   UNL     1       1.114   6.484  21.032  0.00  0.00    +0.000 NA
ATOM      5  N   UNL     1       1.970   5.770  20.313  0.00  0.00    +0.000 NA
ENDROOT
BRANCH   1   9
ATOM      6  C   UNL     1       5.682   5.293  16.865  0.00  0.00    +0.000 A 
ATOM      7  C   UNL     1       5.449   4.589  18.053  0.00  0.00    +0.000 A 
ATOM      8  C   UNL     1       4.464   5.016  18.947  0.00  0.00    +0.000 A 
ATOM      9  C   UNL     1       3.711   6.165  18.664  0.00  0.00    +0.000 A 
ATOM     10  C   UNL     1       3.956   6.879  17.484  0.00  0.00    +0.000 A 
ATOM     11  C   UNL     1       4.943   6.447  16.591  0.00  0.00    +0.000 A 
BRANCH   6  12
ATOM     12  C   UNL     1       6.736   4.790  15.957  0.00  0.00    +0.000 C 
ATOM     13  O   UNL     1       7.823   4.394  16.377  0.00  0.00    +0.000 OA
BRANCH  12  15
ATOM     14  O   UNL     1       5.631   4.065  13.910  0.00  0.00    +0.000 OA
ATOM     15  C   UNL     1       6.519   4.693  14.446  0.00  0.00    +0.000 C 
BRANCH  15  16
ATOM     16  O   UNL     1       7.480   5.387  13.803  0.00  0.00    +0.000 OA
ATOM     17  H   UNL     1       8.043   4.754  13.296  0.00  0.00    +0.000 HD
ENDBRANCH  15  16
ENDBRANCH  12  15
ENDBRANCH   6  12
ENDBRANCH   1   9
BRANCH   3  18
ATOM     18  C   UNL     1       0.539   8.897  21.300  0.00  0.00    +0.000 A 
ATOM     19  C   UNL     1       0.279   8.974  22.672  0.00  0.00    +0.000 A 
ATOM     20  C   UNL     1      -0.454  10.039  23.203  0.00  0.00    +0.000 A 
ATOM     21  C   UNL     1      -0.938  11.077  22.391  0.00  0.00    +0.000 A 
ATOM     22  C   UNL     1      -0.672  10.987  21.014  0.00  0.00    +0.000 A 
ATOM     23  C   UNL     1       0.049   9.913  20.475  0.00  0.00    +0.000 A 
BRANCH  21  24
ATOM     24  C   UNL     1      -1.697  12.207  22.975  0.00  0.00    +0.000 A 
ATOM     25  C   UNL     1      -3.031  12.048  23.400  0.00  0.00    +0.000 A 
ATOM     26  C   UNL     1      -3.770  13.116  23.914  0.00  0.00    +0.000 A 
ATOM     27  C   UNL     1      -3.183  14.371  24.036  0.00  0.00    +0.000 A 
ATOM     28  C   UNL     1      -1.862  14.554  23.644  0.00  0.00    +0.000 A 
ATOM     29  C   UNL     1      -1.131  13.486  23.114  0.00  0.00    +0.000 A 
ENDBRANCH  21  24
ENDBRANCH   3  18
TORSDOF 6
ENDMDL
MODEL 6
REMARK VINA RESULT:      -8.4      0.754      1.510
REMARK  Name = 
REMARK  6 active torsions:
REMARK  status: ('A' for Active; 'I' for Inactive)
REMARK    1  A    between atoms: C_2  and  O_3
REMARK    2  A    between atoms: C_2  and  C_4
REMARK    3  A    between atoms: C_4  and  C_6
REMARK    4  A    between atoms: C_9  and  N_10
REMARK    5  A    between atoms: C_12  and  C_13
REMARK    6  A    between atoms: C_16  and  C_17
REMARK                            x       y       z     vdW  Elec       q    Type
REMARK                         _______ _______ _______ _____ _____    ______ ____
ROOT
ATOM      1  N   UNL     1       2.710   6.575  19.656  0.00  0.00    +0.000 N 
ATOM      2  C   UNL     1       2.333   7.876  19.871  0.00  0.00    +0.000 A 
ATOM      3  C   UNL     1       1.264   7.798  20.733  0.00  0.00    +0.000 A 
ATOM      4  N   UNL     1       1.030   6.485  21.033  0.00  0.00    +0.000 NA
ATOM      5  N   UNL     1       1.913   5.747  20.373  0.00  0.00    +0.000 NA
ENDROOT
BRANCH   1   9
ATOM      6  C   UNL     1       5.812   5.107  17.187  0.00  0.00    +0.000 A 
ATOM      7  C   UNL     1       5.002   6.160  16.745  0.00  0.00    +0.000 A 
ATOM      8  C   UNL     1       3.979   6.656  17.558  0.00  0.00    +0.000 A 
ATOM      9  C   UNL     1       3.749   6.090  18.820  0.00  0.00    +0.000 A 
ATOM     10  C   UNL     1       4.549   5.026  19.256  0.00  0.00    +0.000 A 
ATOM     11  C   UNL     1       5.572   4.533  18.439  0.00  0.00    +0.000 A 
BRANCH   6  12
ATOM     12  C   UNL     1       6.880   4.628  16.283  0.00  0.00    +0.000 C 
ATOM     13  O   UNL     1       7.952   4.200  16.713  0.00  0.00    +0.000 OA
BRANCH  12  15
ATOM     14  O   UNL     1       5.872   3.933  14.177  0.00  0.00    +0.000 OA
ATOM     15  C   UNL     1       6.699   4.598  14.766  0.00  0.00    +0.000 C 
BRANCH  15  16
ATOM     16  O   UNL     1       7.615   5.398  14.182  0.00  0.00    +0.000 OA
ATOM     17  H   UNL     1       7.930   4.965  13.352  0.00  0.00    +0.000 HD
ENDBRANCH  15  16
ENDBRANCH  12  15
ENDBRANCH   6  12
ENDBRANCH   1   9
BRANCH   3  18
ATOM     18  C   UNL     1       0.484   8.912  21.237  0.00  0.00    +0.000 A 
ATOM     19  C   UNL     1       0.291   9.104  22.609  0.00  0.00    +0.000 A 
ATOM     20  C   UNL     1      -0.453  10.188  23.082  0.00  0.00    +0.000 A 
ATOM     21  C   UNL     1      -1.017  11.132  22.209  0.00  0.00    +0.000 A 
ATOM     22  C   UNL     1      -0.819  10.926  20.833  0.00  0.00    +0.000 A 
ATOM     23  C   UNL     1      -0.086   9.832  20.353  0.00  0.00    +0.000 A 
BRANCH  21  24
ATOM     24  C   UNL     1      -1.788  12.284  22.731  0.00  0.00    +0.000 A 
ATOM     25  C   UNL     1      -1.139  13.421  23.251  0.00  0.00    +0.000 A 
ATOM     26  C   UNL     1      -1.855  14.495  23.783  0.00  0.00    +0.000 A 
ATOM     27  C   UNL     1      -3.245  14.468  23.790  0.00  0.00    +0.000 A 
ATOM     28  C   UNL     1      -3.915  13.368  23.265  0.00  0.00    +0.000 A 
ATOM     29  C   UNL     1      -3.193  12.287  22.747  0.00  0.00    +0.000 A 
ENDBRANCH  21  24
ENDBRANCH   3  18
TORSDOF 6
ENDMDL
MODEL 7
REMARK VINA RESULT:      -8.3      4.938     11.170
REMARK  Name = 
REMARK  6 active torsions:
REMARK  status: ('A' for Active; 'I' for Inactive)
REMARK    1  A    between atoms: C_2  and  O_3
REMARK    2  A    between atoms: C_2  and  C_4
REMARK    3  A    between atoms: C_4  and  C_6
REMARK    4  A    between atoms: C_9  and  N_10
REMARK    5  A    between atoms: C_12  and  C_13
REMARK    6  A    between atoms: C_16  and  C_17
REMARK                            x       y       z     vdW  Elec       q    Type
REMARK                         _______ _______ _______ _____ _____    ______ ____
ROOT
ATOM      1  N   UNL     1       1.408   8.000  20.480  0.00  0.00    +0.000 N 
ATOM      2  C   UNL     1       2.049   8.016  19.268  0.00  0.00    +0.000 A 
ATOM      3  C   UNL     1       2.591   6.759  19.137  0.00  0.00    +0.000 A 
ATOM      4  N   UNL     1       2.260   6.016  20.236  0.00  0.00    +0.000 NA
ATOM      5  N   UNL     1       1.541   6.779  21.049  0.00  0.00    +0.000 NA
ENDROOT
BRANCH   1   9
ATOM      6  C   UNL     1      -0.684  11.171  22.337  0.00  0.00    +0.000 A 
ATOM      7  C   UNL     1      -0.460   9.976  23.032  0.00  0.00    +0.000 A 
ATOM      8  C   UNL     1       0.237   8.926  22.429  0.00  0.00    +0.000 A 
ATOM      9  C   UNL     1       0.705   9.059  21.114  0.00  0.00    +0.000 A 
ATOM     10  C   UNL     1       0.467  10.248  20.412  0.00  0.00    +0.000 A 
ATOM     11  C   UNL     1      -0.231  11.297  21.020  0.00  0.00    +0.000 A 
BRANCH   6  12
ATOM     12  C   UNL     1      -1.424  12.247  23.030  0.00  0.00    +0.000 C 
ATOM     13  O   UNL     1      -0.847  13.196  23.561  0.00  0.00    +0.000 OA
BRANCH  12  15
ATOM     14  O   UNL     1      -3.615  11.917  24.044  0.00  0.00    +0.000 OA
ATOM     15  C   UNL     1      -2.952  12.265  23.090  0.00  0.00    +0.000 C 
BRANCH  15  16
ATOM     16  O   UNL     1      -3.448  12.698  21.913  0.00  0.00    +0.000 OA
ATOM     17  H   UNL     1      -2.723  12.698  21.243  0.00  0.00    +0.000 HD
ENDBRANCH  15  16
ENDBRANCH  12  15
ENDBRANCH   6  12
ENDBRANCH   1   9
BRANCH   3  18
ATOM     18  C   UNL     1       3.403   6.284  18.033  0.00  0.00    +0.000 A 
ATOM     19  C   UNL     1       3.481   4.922  17.721  0.00  0.00    +0.000 A 
ATOM     20  C   UNL     1       4.257   4.478  16.647  0.00  0.00    +0.000 A 
ATOM     21  C   UNL     1       4.969   5.374  15.832  0.00  0.00    +0.000 A 
ATOM     22  C   UNL     1       4.884   6.738  16.158  0.00  0.00    +0.000 A 
ATOM     23  C   UNL     1       4.119   7.187  17.244  0.00  0.00    +0.000 A 
BRANCH  21  24
ATOM     24  C   UNL     1       5.772   4.885  14.687  0.00  0.00    +0.000 A 
ATOM     25  C   UNL     1       7.066   5.384  14.437  0.00  0.00    +0.000 A 
ATOM     26  C   UNL     1       7.815   4.961  13.338  0.00  0.00    +0.000 A 
ATOM     27  C   UNL     1       7.296   4.008  12.468  0.00  0.00    +0.000 A 
ATOM     28  C   UNL     1       6.029   3.482  12.700  0.00  0.00    +0.000 A 
ATOM     29  C   UNL     1       5.275   3.921  13.794  0.00  0.00    +0.000 A 
ENDBRANCH  21  24
ENDBRANCH   3  18
TORSDOF 6
ENDMDL
MODEL 8
REMARK VINA RESULT:      -8.2      0.674      1.753
REMARK  Name = 
REMARK  6 active torsions:
REMARK  status: ('A' for Active; 'I' for Inactive)
REMARK    1  A    between atoms: C_2  and  O_3
REMARK    2  A    between atoms: C_2  and  C_4
REMARK    3  A    between atoms: C_4  and  C_6
REMARK    4  A    between atoms: C_9  and  N_10
REMARK    5  A    between atoms: C_12  and  C_13
REMARK    6  A    between atoms: C_16  and  C_17
REMARK                            x       y       z     vdW  Elec       q    Type
REMARK                         _______ _______ _______ _____ _____    ______ ____
ROOT
ATOM      1  N   UNL     1       2.799   6.546  19.108  0.00  0.00    +0.000 N 
ATOM      2  C   UNL     1       2.364   7.827  19.331  0.00  0.00    +0.000 A 
ATOM      3  C   UNL     1       1.505   7.729  20.401  0.00  0.00    +0.000 A 
ATOM      4  N   UNL     1       1.451   6.425  20.808  0.00  0.00    +0.000 NA
ATOM      5  N   UNL     1       2.239   5.712  20.016  0.00  0.00    +0.000 NA
ENDROOT
BRANCH   1   9
ATOM      6  C   UNL     1       5.442   5.206  16.093  0.00  0.00    +0.000 A 
ATOM      7  C   UNL     1       4.779   4.279  16.907  0.00  0.00    +0.000 A 
ATOM      8  C   UNL     1       3.898   4.713  17.901  0.00  0.00    +0.000 A 
ATOM      9  C   UNL     1       3.683   6.085  18.097  0.00  0.00    +0.000 A 
ATOM     10  C   UNL     1       4.359   7.012  17.293  0.00  0.00    +0.000 A 
ATOM     11  C   UNL     1       5.240   6.573  16.299  0.00  0.00    +0.000 A 
BRANCH   6  12
ATOM     12  C   UNL     1       6.359   4.685  15.055  0.00  0.00    +0.000 C 
ATOM     13  O   UNL     1       7.582   4.750  15.177  0.00  0.00    +0.000 OA
BRANCH  12  15
ATOM     14  O   UNL     1       4.696   4.051  13.391  0.00  0.00    +0.000 OA
ATOM     15  C   UNL     1       5.840   3.998  13.792  0.00  0.00    +0.000 C 
BRANCH  15  16
ATOM     16  O   UNL     1       6.837   3.300  13.211  0.00  0.00    +0.000 OA
ATOM     17  H   UNL     1       6.871   2.399  13.613  0.00  0.00    +0.000 HD
ENDBRANCH  15  16
ENDBRANCH  12  15
ENDBRANCH   6  12
ENDBRANCH   1   9
BRANCH   3  18
ATOM     18  C   UNL     1       0.751   8.813  21.001  0.00  0.00    +0.000 A 
ATOM     19  C   UNL     1       0.206   8.698  22.283  0.00  0.00    +0.000 A 
ATOM     20  C   UNL     1      -0.508   9.754  22.855  0.00  0.00    +0.000 A 
ATOM     21  C   UNL     1      -0.689  10.972  22.179  0.00  0.00    +0.000 A 
ATOM     22  C   UNL     1      -0.138  11.074  20.891  0.00  0.00    +0.000 A 
ATOM     23  C   UNL     1       0.565  10.012  20.307  0.00  0.00    +0.000 A 
BRANCH  21  24
ATOM     24  C   UNL     1      -1.434  12.087  22.809  0.00  0.00    +0.000 A 
ATOM     25  C   UNL     1      -0.874  13.376  22.907  0.00  0.00    +0.000 A 
ATOM     26  C   UNL     1      -1.550  14.424  23.535  0.00  0.00    +0.000 A 
ATOM     27  C   UNL     1      -2.818  14.213  24.066  0.00  0.00    +0.000 A 
ATOM     28  C   UNL     1      -3.405  12.956  23.967  0.00  0.00    +0.000 A 
ATOM     29  C   UNL     1      -2.718  11.905  23.351  0.00  0.00    +0.000 A 
ENDBRANCH  21  24
ENDBRANCH   3  18
TORSDOF 6
ENDMDL
MODEL 9
REMARK VINA RESULT:      -8.2      2.672      3.578
REMARK  Name = 
REMARK  6 active torsions:
REMARK  status: ('A' for Active; 'I' for Inactive)
REMARK    1  A    between atoms: C_2  and  O_3
REMARK    2  A    between atoms: C_2  and  C_4
REMARK    3  A    between atoms: C_4  and  C_6
REMARK    4  A    between atoms: C_9  and  N_10
REMARK    5  A    between atoms: C_12  and  C_13
REMARK    6  A    between atoms: C_16  and  C_17
REMARK                            x       y       z     vdW  Elec       q    Type
REMARK                         _______ _______ _______ _____ _____    ______ ____
ROOT
ATOM      1  N   UNL     1       1.728   7.949  19.818  0.00  0.00    +0.000 N 
ATOM      2  C   UNL     1       1.056   8.511  20.872  0.00  0.00    +0.000 A 
ATOM      3  C   UNL     1       0.739   9.782  20.454  0.00  0.00    +0.000 A 
ATOM      4  N   UNL     1       1.196   9.957  19.178  0.00  0.00    +0.000 NA
ATOM      5  N   UNL     1       1.799   8.837  18.798  0.00  0.00    +0.000 NA
ENDROOT
BRANCH   1   9
ATOM      6  C   UNL     1       3.414   4.078  19.596  0.00  0.00    +0.000 A 
ATOM      7  C   UNL     1       3.833   5.077  18.710  0.00  0.00    +0.000 A 
ATOM      8  C   UNL     1       3.287   6.361  18.781  0.00  0.00    +0.000 A 
ATOM      9  C   UNL     1       2.302   6.653  19.736  0.00  0.00    +0.000 A 
ATOM     10  C   UNL     1       1.871   5.648  20.612  0.00  0.00    +0.000 A 
ATOM     11  C   UNL     1       2.421   4.364  20.537  0.00  0.00    +0.000 A 
BRANCH   6  12
ATOM     12  C   UNL     1       4.032   2.740  19.474  0.00  0.00    +0.000 C 
ATOM     13  O   UNL     1       4.927   2.365  20.232  0.00  0.00    +0.000 OA
BRANCH  12  15
ATOM     14  O   UNL     1       2.613   1.879  17.691  0.00  0.00    +0.000 OA
ATOM     15  C   UNL     1       3.566   1.729  18.427  0.00  0.00    +0.000 C 
BRANCH  15  16
ATOM     16  O   UNL     1       4.355   0.636  18.466  0.00  0.00    +0.000 OA
ATOM     17  H   UNL     1       4.676   0.443  17.552  0.00  0.00    +0.000 HD
ENDBRANCH  15  16
ENDBRANCH  12  15
ENDBRANCH   6  12
ENDBRANCH   1   9
BRANCH   3  18
ATOM     18  C   UNL     1       0.052  10.796  21.230  0.00  0.00    +0.000 A 
ATOM     19  C   UNL     1      -0.641  10.471  22.401  0.00  0.00    +0.000 A 
ATOM     20  C   UNL     1      -1.289  11.459  23.147  0.00  0.00    +0.000 A 
ATOM     21  C   UNL     1      -1.256  12.810  22.765  0.00  0.00    +0.000 A 
ATOM     22  C   UNL     1      -0.560  13.123  21.586  0.00  0.00    +0.000 A 
ATOM     23  C   UNL     1       0.079  12.133  20.826  0.00  0.00    +0.000 A 
BRANCH  21  24
ATOM     24  C   UNL     1      -1.935  13.846  23.579  0.00  0.00    +0.000 A 
ATOM     25  C   UNL     1      -3.338  13.980  23.567  0.00  0.00    +0.000 A 
ATOM     26  C   UNL     1      -3.985  14.979  24.298  0.00  0.00    +0.000 A 
ATOM     27  C   UNL     1      -3.244  15.859  25.078  0.00  0.00    +0.000 A 
ATOM     28  C   UNL     1      -1.859  15.739  25.125  0.00  0.00    +0.000 A 
ATOM     29  C   UNL     1      -1.213  14.748  24.379  0.00  0.00    +0.000 A 
ENDBRANCH  21  24
ENDBRANCH   3  18
TORSDOF 6
ENDMDL
