MODEL 1
REMARK VINA RESULT:      -8.1      0.000      0.000
REMARK  Name = 
REMARK  8 active torsions:
REMARK  status: ('A' for Active; 'I' for Inactive)
REMARK    1  A    between atoms: C_1  and  C_2
REMARK    2  A    between atoms: C_2  and  C_3
REMARK    3  A    between atoms: C_11  and  C_12
REMARK    4  A    between atoms: N_14  and  C_15
REMARK    5  A    between atoms: C_15  and  C_16
REMARK    6  A    between atoms: C_16  and  C_17
REMARK    7  A    between atoms: C_17  and  C_18
REMARK    8  A    between atoms: C_28  and  C_29
REMARK                            x       y       z     vdW  Elec       q    Type
REMARK                         _______ _______ _______ _____ _____    ______ ____
ROOT
ATOM      1  C   UNL     1      -3.417  13.599  22.074  0.00  0.00    +0.000 C 
ATOM      2  C   UNL     1      -2.010  14.046  21.652  0.00  0.00    +0.000 C 
ATOM      3  N   UNL     1      -1.347  13.021  20.837  0.00  0.00    +0.000 N 
ATOM      4  C   UNL     1      -0.104  12.563  21.293  0.00  0.00    +0.000 C 
ATOM      5  O   UNL     1       0.610  13.304  22.001  0.00  0.00    +0.000 OA
ATOM      6  N   UNL     1       0.272  11.227  21.132  0.00  0.00    +0.000 N 
ATOM      7  C   UNL     1      -0.412  10.245  20.326  0.00  0.00    +0.000 C 
ATOM      8  C   UNL     1      -0.594   8.895  20.946  0.00  0.00    +0.000 C 
ATOM      9  C   UNL     1       0.746   8.309  21.326  0.00  0.00    +0.000 C 
ATOM     10  C   UNL     1       1.452   9.321  22.255  0.00  0.00    +0.000 C 
ATOM     11  C   UNL     1       1.571  10.735  21.657  0.00  0.00    +0.000 C 
ATOM     12  C   UNL     1      -2.196  12.590  19.743  0.00  0.00    +0.000 A 
ATOM     13  C   UNL     1      -1.699  11.975  18.585  0.00  0.00    +0.000 A 
ATOM     14  C   UNL     1      -2.510  11.056  17.889  0.00  0.00    +0.000 A 
ATOM     15  C   UNL     1      -1.901   9.951  17.068  0.00  0.00    +0.000 C 
ATOM     16  C   UNL     1      -3.891  11.053  18.114  0.00  0.00    +0.000 A 
ATOM     17  C   UNL     1      -4.433  11.895  19.080  0.00  0.00    +0.000 A 
ATOM     18  C   UNL     1      -3.590  12.624  19.923  0.00  0.00    +0.000 A 
ATOM     19  O   UNL     1      -4.236  13.266  20.947  0.00  0.00    +0.000 OA
ENDROOT
BRANCH   9  20
ATOM     20  C   UNL     1       1.581   7.944  20.090  0.00  0.00    +0.000 C 
ATOM     21  O   UNL     1       1.661   8.675  19.111  0.00  0.00    +0.000 OA
ATOM     22  N   UNL     1       2.270   6.752  20.187  0.00  0.00    +0.000 N 
ATOM     23  H   UNL     1       2.323   6.271  21.074  0.00  0.00    +0.000 HD
BRANCH  22  24
ATOM     24  C   UNL     1       3.188   6.317  19.151  0.00  0.00    +0.000 C 
BRANCH  24  25
ATOM     25  C   UNL     1       2.839   4.920  18.645  0.00  0.00    +0.000 C 
BRANCH  25  26
ATOM     26  C   UNL     1       4.030   3.964  18.770  0.00  0.00    +0.000 C 
BRANCH  26  27
ATOM     27  C   UNL     1       5.050   4.196  17.688  0.00  0.00    +0.000 A 
ATOM     28  C   UNL     1       6.377   4.495  18.022  0.00  0.00    +0.000 A 
ATOM     29  C   UNL     1       7.322   4.725  17.020  0.00  0.00    +0.000 A 
ATOM     30  C   UNL     1       6.944   4.663  15.681  0.00  0.00    +0.000 A 
ATOM     31  C   UNL     1       5.624   4.374  15.340  0.00  0.00    +0.000 A 
ATOM     32  C   UNL     1       4.679   4.143  16.340  0.00  0.00    +0.000 A 
ENDBRANCH  26  27
ENDBRANCH  25  26
ENDBRANCH  24  25
ENDBRANCH  22  24
ENDBRANCH   9  20
BRANCH   1  34
ATOM     33  C   UNL     1      -4.408  12.707  24.249  0.00  0.00    +0.000 C 
ATOM     34  C   UNL     1      -3.429  12.453  23.102  0.00  0.00    +0.000 C 
ENDBRANCH   1  34
TORSDOF 6
ENDMDL
MODEL 2
REMARK VINA RESULT:      -8.0      2.559      3.968
REMARK  Name = 
REMARK  8 active torsions:
REMARK  status: ('A' for Active; 'I' for Inactive)
REMARK    1  A    between atoms: C_1  and  C_2
REMARK    2  A    between atoms: C_2  and  C_3
REMARK    3  A    between atoms: C_11  and  C_12
REMARK    4  A    between atoms: N_14  and  C_15
REMARK    5  A    between atoms: C_15  and  C_16
REMARK    6  A    between atoms: C_16  and  C_17
REMARK    7  A    between atoms: C_17  and  C_18
REMARK    8  A    between atoms: C_28  and  C_29
REMARK                            x       y       z     vdW  Elec       q    Type
REMARK                         _______ _______ _______ _____ _____    ______ ____
ROOT
ATOM      1  C   UNL     1      -2.709  14.567  22.760  0.00  0.00    +0.000 C 
ATOM      2  C   UNL     1      -1.592  13.741  23.414  0.00  0.00    +0.000 C 
ATOM      3  N   UNL     1      -0.595  13.315  22.425  0.00  0.00    +0.000 N 
ATOM      4  C   UNL     1      -0.348  11.938  22.334  0.00  0.00    +0.000 C 
ATOM      5  O   UNL     1      -0.543  11.206  23.327  0.00  0.00    +0.000 OA
ATOM      6  N   UNL     1      -0.071  11.338  21.103  0.00  0.00    +0.000 N 
ATOM      7  C   UNL     1       0.212  12.028  19.868  0.00  0.00    +0.000 C 
ATOM      8  C   UNL     1      -0.468  11.496  18.646  0.00  0.00    +0.000 C 
ATOM      9  C   UNL     1      -0.112  10.043  18.440  0.00  0.00    +0.000 C 
ATOM     10  C   UNL     1      -0.486   9.282  19.731  0.00  0.00    +0.000 C 
ATOM     11  C   UNL     1       0.145   9.872  21.005  0.00  0.00    +0.000 C 
ATOM     12  C   UNL     1      -0.130  14.436  21.631  0.00  0.00    +0.000 A 
ATOM     13  C   UNL     1       1.089  14.430  20.938  0.00  0.00    +0.000 A 
ATOM     14  C   UNL     1       1.214  15.188  19.756  0.00  0.00    +0.000 A 
ATOM     15  C   UNL     1       2.185  14.786  18.677  0.00  0.00    +0.000 C 
ATOM     16  C   UNL     1       0.297  16.212  19.497  0.00  0.00    +0.000 A 
ATOM     17  C   UNL     1      -0.772  16.413  20.365  0.00  0.00    +0.000 A 
ATOM     18  C   UNL     1      -1.014  15.503  21.398  0.00  0.00    +0.000 A 
ATOM     19  O   UNL     1      -2.196  15.706  22.061  0.00  0.00    +0.000 OA
ENDROOT
BRANCH   9  20
ATOM     20  C   UNL     1       1.362   9.866  18.045  0.00  0.00    +0.000 C 
ATOM     21  O   UNL     1       2.133  10.811  17.943  0.00  0.00    +0.000 OA
ATOM     22  N   UNL     1       1.760   8.558  17.860  0.00  0.00    +0.000 N 
ATOM     23  H   UNL     1       1.147   7.801  18.128  0.00  0.00    +0.000 HD
BRANCH  22  24
ATOM     24  C   UNL     1       3.143   8.214  17.590  0.00  0.00    +0.000 C 
BRANCH  24  25
ATOM     25  C   UNL     1       3.522   6.879  18.227  0.00  0.00    +0.000 C 
BRANCH  25  26
ATOM     26  C   UNL     1       2.662   6.580  19.458  0.00  0.00    +0.000 C 
BRANCH  26  27
ATOM     27  C   UNL     1       2.022   5.221  19.378  0.00  0.00    +0.000 A 
ATOM     28  C   UNL     1       1.455   4.640  20.520  0.00  0.00    +0.000 A 
ATOM     29  C   UNL     1       0.874   3.372  20.451  0.00  0.00    +0.000 A 
ATOM     30  C   UNL     1       0.861   2.678  19.244  0.00  0.00    +0.000 A 
ATOM     31  C   UNL     1       1.429   3.246  18.105  0.00  0.00    +0.000 A 
ATOM     32  C   UNL     1       2.010   4.512  18.171  0.00  0.00    +0.000 A 
ENDBRANCH  26  27
ENDBRANCH  25  26
ENDBRANCH  24  25
ENDBRANCH  22  24
ENDBRANCH   9  20
BRANCH   1  34
ATOM     33  C   UNL     1      -5.109  14.136  22.008  0.00  0.00    +0.000 C 
ATOM     34  C   UNL     1      -3.638  13.749  21.843  0.00  0.00    +0.000 C 
ENDBRANCH   1  34
TORSDOF 6
ENDMDL
MODEL 3
REMARK VINA RESULT:      -7.9      8.417     10.513
REMARK  Name = 
REMARK  8 active torsions:
REMARK  status: ('A' for Active; 'I' for Inactive)
REMARK    1  A    between atoms: C_1  and  C_2
REMARK    2  A    between atoms: C_2  and  C_3
REMARK    3  A    between atoms: C_11  and  C_12
REMARK    4  A    between atoms: N_14  and  C_15
REMARK    5  A    between atoms: C_15  and  C_16
REMARK    6  A    between atoms: C_16  and  C_17
REMARK    7  A    between atoms: C_17  and  C_18
REMARK    8  A    between atoms: C_28  and  C_29
REMARK                            x       y       z     vdW  Elec       q    Type
REMARK                         _______ _______ _______ _____ _____    ______ ____
ROOT
ATOM      1  C   UNL     1      11.399  17.889  19.681  0.00  0.00    +0.000 C 
ATOM      2  C   UNL     1      11.590  17.338  18.261  0.00  0.00    +0.000 C 
ATOM      3  N   UNL     1      10.660  16.236  17.987  0.00  0.00    +0.000 N 
ATOM      4  C   UNL     1      11.227  15.021  17.581  0.00  0.00    +0.000 C 
ATOM      5  O   UNL     1      12.333  15.014  17.003  0.00  0.00    +0.000 OA
ATOM      6  N   UNL     1      10.671  13.802  17.980  0.00  0.00    +0.000 N 
ATOM      7  C   UNL     1       9.393  13.623  18.625  0.00  0.00    +0.000 C 
ATOM      8  C   UNL     1       9.366  12.670  19.778  0.00  0.00    +0.000 C 
ATOM      9  C   UNL     1       9.843  11.305  19.342  0.00  0.00    +0.000 C 
ATOM     10  C   UNL     1      11.247  11.477  18.722  0.00  0.00    +0.000 C 
ATOM     11  C   UNL     1      11.302  12.517  17.586  0.00  0.00    +0.000 C 
ATOM     12  C   UNL     1       9.295  16.608  18.311  0.00  0.00    +0.000 A 
ATOM     13  C   UNL     1       8.176  15.960  17.768  0.00  0.00    +0.000 A 
ATOM     14  C   UNL     1       6.984  15.900  18.518  0.00  0.00    +0.000 A 
ATOM     15  C   UNL     1       6.002  14.775  18.322  0.00  0.00    +0.000 C 
ATOM     16  C   UNL     1       6.799  16.784  19.586  0.00  0.00    +0.000 A 
ATOM     17  C   UNL     1       7.825  17.652  19.946  0.00  0.00    +0.000 A 
ATOM     18  C   UNL     1       9.082  17.534  19.346  0.00  0.00    +0.000 A 
ATOM     19  O   UNL     1      10.053  18.317  19.916  0.00  0.00    +0.000 OA
ENDROOT
BRANCH   9  20
ATOM     20  C   UNL     1       8.846  10.628  18.391  0.00  0.00    +0.000 C 
ATOM     21  O   UNL     1       8.260  11.241  17.508  0.00  0.00    +0.000 OA
ATOM     22  N   UNL     1       8.697   9.269  18.579  0.00  0.00    +0.000 N 
ATOM     23  H   UNL     1       9.328   8.772  19.191  0.00  0.00    +0.000 HD
BRANCH  22  24
ATOM     24  C   UNL     1       7.875   8.464  17.694  0.00  0.00    +0.000 C 
BRANCH  24  25
ATOM     25  C   UNL     1       7.820   7.008  18.152  0.00  0.00    +0.000 C 
BRANCH  25  26
ATOM     26  C   UNL     1       6.883   6.178  17.271  0.00  0.00    +0.000 C 
BRANCH  26  27
ATOM     27  C   UNL     1       5.516   6.039  17.882  0.00  0.00    +0.000 A 
ATOM     28  C   UNL     1       5.328   5.236  19.016  0.00  0.00    +0.000 A 
ATOM     29  C   UNL     1       4.057   5.094  19.576  0.00  0.00    +0.000 A 
ATOM     30  C   UNL     1       2.968   5.747  19.005  0.00  0.00    +0.000 A 
ATOM     31  C   UNL     1       3.144   6.542  17.873  0.00  0.00    +0.000 A 
ATOM     32  C   UNL     1       4.414   6.686  17.312  0.00  0.00    +0.000 A 
ENDBRANCH  26  27
ENDBRANCH  25  26
ENDBRANCH  24  25
ENDBRANCH  22  24
ENDBRANCH   9  20
BRANCH   1  34
ATOM     33  C   UNL     1      10.915  16.937  21.999  0.00  0.00    +0.000 C 
ATOM     34  C   UNL     1      11.856  16.927  20.794  0.00  0.00    +0.000 C 
ENDBRANCH   1  34
TORSDOF 6
ENDMDL
MODEL 4
REMARK VINA RESULT:      -7.7      2.575      3.998
REMARK  Name = 
REMARK  8 active torsions:
REMARK  status: ('A' for Active; 'I' for Inactive)
REMARK    1  A    between atoms: C_1  and  C_2
REMARK    2  A    between atoms: C_2  and  C_3
REMARK    3  A    between atoms: C_11  and  C_12
REMARK    4  A    between atoms: N_14  and  C_15
REMARK    5  A    between atoms: C_15  and  C_16
REMARK    6  A    between atoms: C_16  and  C_17
REMARK    7  A    between atoms: C_17  and  C_18
REMARK    8  A    between atoms: C_28  and  C_29
REMARK                            x       y       z     vdW  Elec       q    Type
REMARK                         _______ _______ _______ _____ _____    ______ ____
ROOT
ATOM      1  C   UNL     1      -2.922  14.601  22.863  0.00  0.00    +0.000 C 
ATOM      2  C   UNL     1      -1.949  13.630  23.547  0.00  0.00    +0.000 C 
ATOM      3  N   UNL     1      -0.885  13.206  22.629  0.00  0.00    +0.000 N 
ATOM      4  C   UNL     1      -0.734  11.826  22.435  0.00  0.00    +0.000 C 
ATOM      5  O   UNL     1      -1.091  11.031  23.329  0.00  0.00    +0.000 OA
ATOM      6  N   UNL     1      -0.370  11.313  21.188  0.00  0.00    +0.000 N 
ATOM      7  C   UNL     1       0.097  12.080  20.058  0.00  0.00    +0.000 C 
ATOM      8  C   UNL     1      -0.483  11.714  18.729  0.00  0.00    +0.000 C 
ATOM      9  C   UNL     1      -0.217  10.259  18.424  0.00  0.00    +0.000 C 
ATOM     10  C   UNL     1      -0.787   9.424  19.592  0.00  0.00    +0.000 C 
ATOM     11  C   UNL     1      -0.257   9.848  20.975  0.00  0.00    +0.000 C 
ATOM     12  C   UNL     1      -0.252  14.347  21.996  0.00  0.00    +0.000 A 
ATOM     13  C   UNL     1       1.031  14.297  21.433  0.00  0.00    +0.000 A 
ATOM     14  C   UNL     1       1.342  15.140  20.348  0.00  0.00    +0.000 A 
ATOM     15  C   UNL     1       2.392  14.751  19.340  0.00  0.00    +0.000 C 
ATOM     16  C   UNL     1       0.539  16.257  20.094  0.00  0.00    +0.000 A 
ATOM     17  C   UNL     1      -0.601  16.474  20.863  0.00  0.00    +0.000 A 
ATOM     18  C   UNL     1      -1.022  15.502  21.775  0.00  0.00    +0.000 A 
ATOM     19  O   UNL     1      -2.252  15.748  22.330  0.00  0.00    +0.000 OA
ENDROOT
BRANCH   9  20
ATOM     20  C   UNL     1       1.273   9.992  18.166  0.00  0.00    +0.000 C 
ATOM     21  O   UNL     1       2.111  10.883  18.174  0.00  0.00    +0.000 OA
ATOM     22  N   UNL     1       1.599   8.665  17.973  0.00  0.00    +0.000 N 
ATOM     23  H   UNL     1       0.914   7.945  18.154  0.00  0.00    +0.000 HD
BRANCH  22  24
ATOM     24  C   UNL     1       2.977   8.233  17.826  0.00  0.00    +0.000 C 
BRANCH  24  25
ATOM     25  C   UNL     1       3.150   6.769  18.224  0.00  0.00    +0.000 C 
BRANCH  25  26
ATOM     26  C   UNL     1       1.897   6.223  18.914  0.00  0.00    +0.000 C 
BRANCH  26  27
ATOM     27  C   UNL     1       1.884   4.719  18.944  0.00  0.00    +0.000 A 
ATOM     28  C   UNL     1       2.233   3.988  17.801  0.00  0.00    +0.000 A 
ATOM     29  C   UNL     1       2.207   2.592  17.821  0.00  0.00    +0.000 A 
ATOM     30  C   UNL     1       1.828   1.921  18.981  0.00  0.00    +0.000 A 
ATOM     31  C   UNL     1       1.472   2.641  20.121  0.00  0.00    +0.000 A 
ATOM     32  C   UNL     1       1.498   4.035  20.102  0.00  0.00    +0.000 A 
ENDBRANCH  26  27
ENDBRANCH  25  26
ENDBRANCH  24  25
ENDBRANCH  22  24
ENDBRANCH   9  20
BRANCH   1  34
ATOM     33  C   UNL     1      -4.435  12.637  22.258  0.00  0.00    +0.000 C 
ATOM     34  C   UNL     1      -3.805  13.947  21.783  0.00  0.00    +0.000 C 
ENDBRANCH   1  34
TORSDOF 6
ENDMDL
MODEL 5
REMARK VINA RESULT:      -7.7      3.563      5.333
REMARK  Name = 
REMARK  8 active torsions:
REMARK  status: ('A' for Active; 'I' for Inactive)
REMARK    1  A    between atoms: C_1  and  C_2
REMARK    2  A    between atoms: C_2  and  C_3
REMARK    3  A    between atoms: C_11  and  C_12
REMARK    4  A    between atoms: N_14  and  C_15
REMARK    5  A    between atoms: C_15  and  C_16
REMARK    6  A    between atoms: C_16  and  C_17
REMARK    7  A    between atoms: C_17  and  C_18
REMARK    8  A    between atoms: C_28  and  C_29
REMARK                            x       y       z     vdW  Elec       q    Type
REMARK                         _______ _______ _______ _____ _____    ______ ____
ROOT
ATOM      1  C   UNL     1       0.077  17.970  20.172  0.00  0.00    +0.000 C 
ATOM      2  C   UNL     1       0.596  17.170  21.377  0.00  0.00    +0.000 C 
ATOM      3  N   UNL     1       1.153  15.878  20.959  0.00  0.00    +0.000 N 
ATOM      4  C   UNL     1       0.608  14.735  21.559  0.00  0.00    +0.000 C 
ATOM      5  O   UNL     1       0.094  14.815  22.694  0.00  0.00    +0.000 OA
ATOM      6  N   UNL     1       0.456  13.549  20.836  0.00  0.00    +0.000 N 
ATOM      7  C   UNL     1       1.009  13.273  19.533  0.00  0.00    +0.000 C 
ATOM      8  C   UNL     1       0.092  12.607  18.556  0.00  0.00    +0.000 C 
ATOM      9  C   UNL     1      -0.409  11.297  19.117  0.00  0.00    +0.000 C 
ATOM     10  C   UNL     1      -1.075  11.596  20.478  0.00  0.00    +0.000 C 
ATOM     11  C   UNL     1      -0.165  12.354  21.462  0.00  0.00    +0.000 C 
ATOM     12  C   UNL     1       2.114  16.043  19.885  0.00  0.00    +0.000 A 
ATOM     13  C   UNL     1       3.100  15.091  19.587  0.00  0.00    +0.000 A 
ATOM     14  C   UNL     1       3.560  14.968  18.261  0.00  0.00    +0.000 A 
ATOM     15  C   UNL     1       4.104  13.660  17.748  0.00  0.00    +0.000 C 
ATOM     16  C   UNL     1       3.336  16.011  17.356  0.00  0.00    +0.000 A 
ATOM     17  C   UNL     1       2.590  17.117  17.753  0.00  0.00    +0.000 A 
ATOM     18  C   UNL     1       1.942  17.114  18.991  0.00  0.00    +0.000 A 
ATOM     19  O   UNL     1       1.093  18.173  19.184  0.00  0.00    +0.000 OA
ENDROOT
BRANCH   9  20
ATOM     20  C   UNL     1       0.712  10.251  19.213  0.00  0.00    +0.000 C 
ATOM     21  O   UNL     1       0.972   9.661  20.253  0.00  0.00    +0.000 OA
ATOM     22  N   UNL     1       1.369   9.996  18.027  0.00  0.00    +0.000 N 
ATOM     23  H   UNL     1       1.008  10.366  17.159  0.00  0.00    +0.000 HD
BRANCH  22  24
ATOM     24  C   UNL     1       2.379   8.958  17.925  0.00  0.00    +0.000 C 
BRANCH  24  25
ATOM     25  C   UNL     1       1.761   7.565  18.016  0.00  0.00    +0.000 C 
BRANCH  25  26
ATOM     26  C   UNL     1       2.820   6.500  18.312  0.00  0.00    +0.000 C 
BRANCH  26  27
ATOM     27  C   UNL     1       2.205   5.222  18.814  0.00  0.00    +0.000 A 
ATOM     28  C   UNL     1       1.988   4.151  17.936  0.00  0.00    +0.000 A 
ATOM     29  C   UNL     1       1.404   2.970  18.396  0.00  0.00    +0.000 A 
ATOM     30  C   UNL     1       1.028   2.854  19.732  0.00  0.00    +0.000 A 
ATOM     31  C   UNL     1       1.233   3.917  20.610  0.00  0.00    +0.000 A 
ATOM     32  C   UNL     1       1.818   5.098  20.153  0.00  0.00    +0.000 A 
ENDBRANCH  26  27
ENDBRANCH  25  26
ENDBRANCH  24  25
ENDBRANCH  22  24
ENDBRANCH   9  20
BRANCH   1  34
ATOM     33  C   UNL     1      -1.641  18.168  18.296  0.00  0.00    +0.000 C 
ATOM     34  C   UNL     1      -1.190  17.378  19.526  0.00  0.00    +0.000 C 
ENDBRANCH   1  34
TORSDOF 6
ENDMDL
MODEL 6
REMARK VINA RESULT:      -7.6      2.152      3.569
REMARK  Name = 
REMARK  8 active torsions:
REMARK  status: ('A' for Active; 'I' for Inactive)
REMARK    1  A    between atoms: C_1  and  C_2
REMARK    2  A    between atoms: C_2  and  C_3
REMARK    3  A    between atoms: C_11  and  C_12
REMARK    4  A    between atoms: N_14  and  C_15
REMARK    5  A    between atoms: C_15  and  C_16
REMARK    6  A    between atoms: C_16  and  C_17
REMARK    7  A    between atoms: C_17  and  C_18
REMARK    8  A    between atoms: C_28  and  C_29
REMARK                            x       y       z     vdW  Elec       q    Type
REMARK                         _______ _______ _______ _____ _____    ______ ____
ROOT
ATOM      1  C   UNL     1      -2.338  15.064  22.699  0.00  0.00    +0.000 C 
ATOM      2  C   UNL     1      -1.492  13.993  23.404  0.00  0.00    +0.000 C 
ATOM      3  N   UNL     1      -0.472  13.442  22.503  0.00  0.00    +0.000 N 
ATOM      4  C   UNL     1      -0.479  12.052  22.320  0.00  0.00    +0.000 C 
ATOM      5  O   UNL     1      -0.937  11.311  23.215  0.00  0.00    +0.000 OA
ATOM      6  N   UNL     1      -0.161  11.489  21.082  0.00  0.00    +0.000 N 
ATOM      7  C   UNL     1       0.406  12.188  19.954  0.00  0.00    +0.000 C 
ATOM      8  C   UNL     1      -0.196  11.881  18.619  0.00  0.00    +0.000 C 
ATOM      9  C   UNL     1      -0.095  10.402  18.328  0.00  0.00    +0.000 C 
ATOM     10  C   UNL     1      -0.773   9.649  19.494  0.00  0.00    +0.000 C 
ATOM     11  C   UNL     1      -0.215  10.020  20.880  0.00  0.00    +0.000 C 
ATOM     12  C   UNL     1       0.296  14.497  21.871  0.00  0.00    +0.000 A 
ATOM     13  C   UNL     1       1.572  14.294  21.326  0.00  0.00    +0.000 A 
ATOM     14  C   UNL     1       1.991  15.087  20.239  0.00  0.00    +0.000 A 
ATOM     15  C   UNL     1       3.002  14.571  19.248  0.00  0.00    +0.000 C 
ATOM     16  C   UNL     1       1.326  16.287  19.967  0.00  0.00    +0.000 A 
ATOM     17  C   UNL     1       0.209  16.640  20.718  0.00  0.00    +0.000 A 
ATOM     18  C   UNL     1      -0.333  15.731  21.632  0.00  0.00    +0.000 A 
ATOM     19  O   UNL     1      -1.533  16.122  22.168  0.00  0.00    +0.000 OA
ENDROOT
BRANCH   9  20
ATOM     20  C   UNL     1       1.357   9.963  18.092  0.00  0.00    +0.000 C 
ATOM     21  O   UNL     1       2.286  10.759  18.047  0.00  0.00    +0.000 OA
ATOM     22  N   UNL     1       1.540   8.599  17.983  0.00  0.00    +0.000 N 
ATOM     23  H   UNL     1       0.783   7.969  18.206  0.00  0.00    +0.000 HD
BRANCH  22  24
ATOM     24  C   UNL     1       2.864   8.016  17.867  0.00  0.00    +0.000 C 
BRANCH  24  25
ATOM     25  C   UNL     1       2.989   6.742  18.700  0.00  0.00    +0.000 C 
BRANCH  25  26
ATOM     26  C   UNL     1       3.165   5.507  17.812  0.00  0.00    +0.000 C 
BRANCH  26  27
ATOM     27  C   UNL     1       4.616   5.202  17.558  0.00  0.00    +0.000 A 
ATOM     28  C   UNL     1       5.003   4.537  16.387  0.00  0.00    +0.000 A 
ATOM     29  C   UNL     1       6.347   4.241  16.155  0.00  0.00    +0.000 A 
ATOM     30  C   UNL     1       7.310   4.601  17.094  0.00  0.00    +0.000 A 
ATOM     31  C   UNL     1       6.934   5.257  18.266  0.00  0.00    +0.000 A 
ATOM     32  C   UNL     1       5.591   5.554  18.498  0.00  0.00    +0.000 A 
ENDBRANCH  26  27
ENDBRANCH  25  26
ENDBRANCH  24  25
ENDBRANCH  22  24
ENDBRANCH   9  20
BRANCH   1  34
ATOM     33  C   UNL     1      -4.015  13.247  22.067  0.00  0.00    +0.000 C 
ATOM     34  C   UNL     1      -3.276  14.507  21.612  0.00  0.00    +0.000 C 
ENDBRANCH   1  34
TORSDOF 6
ENDMDL
MODEL 7
REMARK VINA RESULT:      -7.6      2.792      4.362
REMARK  Name = 
REMARK  8 active torsions:
REMARK  status: ('A' for Active; 'I' for Inactive)
REMARK    1  A    between atoms: C_1  and  C_2
REMARK    2  A    between atoms: C_2  and  C_3
REMARK    3  A    between atoms: C_11  and  C_12
REMARK    4  A    between atoms: N_14  and  C_15
REMARK    5  A    between atoms: C_15  and  C_16
REMARK    6  A    between atoms: C_16  and  C_17
REMARK    7  A    between atoms: C_17  and  C_18
REMARK    8  A    between atoms: C_28  and  C_29
REMARK                            x       y       z     vdW  Elec       q    Type
REMARK                         _______ _______ _______ _____ _____    ______ ____
ROOT
ATOM      1  C   UNL     1      -2.248  15.747  21.989  0.00  0.00    +0.000 C 
ATOM      2  C   UNL     1      -1.245  14.911  22.797  0.00  0.00    +0.000 C 
ATOM      3  N   UNL     1      -0.283  14.236  21.917  0.00  0.00    +0.000 N 
ATOM      4  C   UNL     1      -0.191  12.843  22.038  0.00  0.00    +0.000 C 
ATOM      5  O   UNL     1      -0.487  12.293  23.119  0.00  0.00    +0.000 OA
ATOM      6  N   UNL     1       0.040  12.039  20.918  0.00  0.00    +0.000 N 
ATOM      7  C   UNL     1       0.423  12.503  19.607  0.00  0.00    +0.000 C 
ATOM      8  C   UNL     1      -0.289  11.871  18.452  0.00  0.00    +0.000 C 
ATOM      9  C   UNL     1      -0.095  10.373  18.473  0.00  0.00    +0.000 C 
ATOM     10  C   UNL     1      -0.578   9.859  19.847  0.00  0.00    +0.000 C 
ATOM     11  C   UNL     1       0.091  10.561  21.044  0.00  0.00    +0.000 C 
ATOM     12  C   UNL     1       0.321  15.169  20.985  0.00  0.00    +0.000 A 
ATOM     13  C   UNL     1       1.545  14.927  20.344  0.00  0.00    +0.000 A 
ATOM     14  C   UNL     1       1.777  15.482  19.070  0.00  0.00    +0.000 A 
ATOM     15  C   UNL     1       2.717  14.821  18.096  0.00  0.00    +0.000 C 
ATOM     16  C   UNL     1       0.987  16.550  18.631  0.00  0.00    +0.000 A 
ATOM     17  C   UNL     1      -0.070  16.993  19.421  0.00  0.00    +0.000 A 
ATOM     18  C   UNL     1      -0.433  16.280  20.567  0.00  0.00    +0.000 A 
ATOM     19  O   UNL     1      -1.597  16.707  21.150  0.00  0.00    +0.000 OA
ENDROOT
BRANCH   9  20
ATOM     20  C   UNL     1       1.357   9.981  18.161  0.00  0.00    +0.000 C 
ATOM     21  O   UNL     1       2.249  10.809  18.035  0.00  0.00    +0.000 OA
ATOM     22  N   UNL     1       1.585   8.622  18.081  0.00  0.00    +0.000 N 
ATOM     23  H   UNL     1       0.868   7.972  18.369  0.00  0.00    +0.000 HD
BRANCH  22  24
ATOM     24  C   UNL     1       2.921   8.084  17.901  0.00  0.00    +0.000 C 
BRANCH  24  25
ATOM     25  C   UNL     1       3.129   6.815  18.724  0.00  0.00    +0.000 C 
BRANCH  25  26
ATOM     26  C   UNL     1       1.990   6.603  19.726  0.00  0.00    +0.000 C 
BRANCH  26  27
ATOM     27  C   UNL     1       1.826   5.153  20.089  0.00  0.00    +0.000 A 
ATOM     28  C   UNL     1       1.163   4.277  19.219  0.00  0.00    +0.000 A 
ATOM     29  C   UNL     1       0.997   2.934  19.561  0.00  0.00    +0.000 A 
ATOM     30  C   UNL     1       1.487   2.460  20.775  0.00  0.00    +0.000 A 
ATOM     31  C   UNL     1       2.141   3.326  21.651  0.00  0.00    +0.000 A 
ATOM     32  C   UNL     1       2.309   4.668  21.310  0.00  0.00    +0.000 A 
ENDBRANCH  26  27
ENDBRANCH  25  26
ENDBRANCH  24  25
ENDBRANCH  22  24
ENDBRANCH   9  20
BRANCH   1  34
ATOM     33  C   UNL     1      -4.108  14.000  22.049  0.00  0.00    +0.000 C 
ATOM     34  C   UNL     1      -3.246  14.907  21.169  0.00  0.00    +0.000 C 
ENDBRANCH   1  34
TORSDOF 6
ENDMDL
MODEL 8
REMARK VINA RESULT:      -7.3      2.727      4.252
REMARK  Name = 
REMARK  8 active torsions:
REMARK  status: ('A' for Active; 'I' for Inactive)
REMARK    1  A    between atoms: C_1  and  C_2
REMARK    2  A    between atoms: C_2  and  C_3
REMARK    3  A    between atoms: C_11  and  C_12
REMARK    4  A    between atoms: N_14  and  C_15
REMARK    5  A    between atoms: C_15  and  C_16
REMARK    6  A    between atoms: C_16  and  C_17
REMARK    7  A    between atoms: C_17  and  C_18
REMARK    8  A    between atoms: C_28  and  C_29
REMARK                            x       y       z     vdW  Elec       q    Type
REMARK                         _______ _______ _______ _____ _____    ______ ____
ROOT
ATOM      1  C   UNL     1      -1.782  15.648  21.755  0.00  0.00    +0.000 C 
ATOM      2  C   UNL     1      -0.936  14.714  22.631  0.00  0.00    +0.000 C 
ATOM      3  N   UNL     1       0.011  13.938  21.821  0.00  0.00    +0.000 N 
ATOM      4  C   UNL     1      -0.055  12.543  21.942  0.00  0.00    +0.000 C 
ATOM      5  O   UNL     1      -0.486  12.031  22.996  0.00  0.00    +0.000 OA
ATOM      6  N   UNL     1       0.172  11.715  20.839  0.00  0.00    +0.000 N 
ATOM      7  C   UNL     1       0.698  12.131  19.561  0.00  0.00    +0.000 C 
ATOM      8  C   UNL     1       0.011  11.575  18.354  0.00  0.00    +0.000 C 
ATOM      9  C   UNL     1       0.042  10.065  18.383  0.00  0.00    +0.000 C 
ATOM     10  C   UNL     1      -0.593   9.609  19.715  0.00  0.00    +0.000 C 
ATOM     11  C   UNL     1       0.056  10.240  20.961  0.00  0.00    +0.000 C 
ATOM     12  C   UNL     1       0.778  14.798  20.941  0.00  0.00    +0.000 A 
ATOM     13  C   UNL     1       2.013  14.425  20.391  0.00  0.00    +0.000 A 
ATOM     14  C   UNL     1       2.397  14.948  19.140  0.00  0.00    +0.000 A 
ATOM     15  C   UNL     1       3.331  14.187  18.236  0.00  0.00    +0.000 C 
ATOM     16  C   UNL     1       1.759  16.092  18.649  0.00  0.00    +0.000 A 
ATOM     17  C   UNL     1       0.700  16.648  19.361  0.00  0.00    +0.000 A 
ATOM     18  C   UNL     1       0.180  15.981  20.473  0.00  0.00    +0.000 A 
ATOM     19  O   UNL     1      -0.973  16.531  20.970  0.00  0.00    +0.000 OA
ENDROOT
BRANCH   9  20
ATOM     20  C   UNL     1       1.463   9.519  18.178  0.00  0.00    +0.000 C 
ATOM     21  O   UNL     1       2.365  10.197  17.704  0.00  0.00    +0.000 OA
ATOM     22  N   UNL     1       1.655   8.223  18.611  0.00  0.00    +0.000 N 
ATOM     23  H   UNL     1       0.941   7.763  19.159  0.00  0.00    +0.000 HD
BRANCH  22  24
ATOM     24  C   UNL     1       2.964   7.598  18.588  0.00  0.00    +0.000 C 
BRANCH  24  25
ATOM     25  C   UNL     1       2.953   6.306  17.776  0.00  0.00    +0.000 C 
BRANCH  25  26
ATOM     26  C   UNL     1       1.736   5.440  18.115  0.00  0.00    +0.000 C 
BRANCH  26  27
ATOM     27  C   UNL     1       2.039   4.451  19.207  0.00  0.00    +0.000 A 
ATOM     28  C   UNL     1       1.119   4.238  20.243  0.00  0.00    +0.000 A 
ATOM     29  C   UNL     1       1.405   3.332  21.265  0.00  0.00    +0.000 A 
ATOM     30  C   UNL     1       2.612   2.637  21.261  0.00  0.00    +0.000 A 
ATOM     31  C   UNL     1       3.536   2.848  20.239  0.00  0.00    +0.000 A 
ATOM     32  C   UNL     1       3.252   3.753  19.216  0.00  0.00    +0.000 A 
ENDBRANCH  26  27
ENDBRANCH  25  26
ENDBRANCH  24  25
ENDBRANCH  22  24
ENDBRANCH   9  20
BRANCH   1  34
ATOM     33  C   UNL     1      -4.176  15.586  20.873  0.00  0.00    +0.000 C 
ATOM     34  C   UNL     1      -2.800  14.917  20.859  0.00  0.00    +0.000 C 
ENDBRANCH   1  34
TORSDOF 6
ENDMDL
MODEL 9
REMARK VINA RESULT:      -7.3      8.125      9.940
REMARK  Name = 
REMARK  8 active torsions:
REMARK  status: ('A' for Active; 'I' for Inactive)
REMARK    1  A    between atoms: C_1  and  C_2
REMARK    2  A    between atoms: C_2  and  C_3
REMARK    3  A    between atoms: C_11  and  C_12
REMARK    4  A    between atoms: N_14  and  C_15
REMARK    5  A    between atoms: C_15  and  C_16
REMARK    6  A    between atoms: C_16  and  C_17
REMARK    7  A    between atoms: C_17  and  C_18
REMARK    8  A    between atoms: C_28  and  C_29
REMARK                            x       y       z     vdW  Elec       q    Type
REMARK                         _______ _______ _______ _____ _____    ______ ____
ROOT
ATOM      1  C   UNL     1       9.710  18.104  21.645  0.00  0.00    +0.000 C 
ATOM      2  C   UNL     1      10.605  17.869  20.419  0.00  0.00    +0.000 C 
ATOM      3  N   UNL     1      10.164  16.697  19.654  0.00  0.00    +0.000 N 
ATOM      4  C   UNL     1      11.117  15.692  19.438  0.00  0.00    +0.000 C 
ATOM      5  O   UNL     1      12.331  15.981  19.424  0.00  0.00    +0.000 OA
ATOM      6  N   UNL     1      10.748  14.344  19.428  0.00  0.00    +0.000 N 
ATOM      7  C   UNL     1       9.399  13.834  19.407  0.00  0.00    +0.000 C 
ATOM      8  C   UNL     1       9.113  12.692  20.331  0.00  0.00    +0.000 C 
ATOM      9  C   UNL     1      10.035  11.534  20.033  0.00  0.00    +0.000 C 
ATOM     10  C   UNL     1      11.486  12.054  20.132  0.00  0.00    +0.000 C 
ATOM     11  C   UNL     1      11.768  13.281  19.245  0.00  0.00    +0.000 C 
ATOM     12  C   UNL     1       8.745  16.765  19.360  0.00  0.00    +0.000 A 
ATOM     13  C   UNL     1       8.145  16.050  18.314  0.00  0.00    +0.000 A 
ATOM     14  C   UNL     1       6.799  15.649  18.436  0.00  0.00    +0.000 A 
ATOM     15  C   UNL     1       6.285  14.431  17.715  0.00  0.00    +0.000 C 
ATOM     16  C   UNL     1       5.980  16.274  19.381  0.00  0.00    +0.000 A 
ATOM     17  C   UNL     1       6.523  17.221  20.244  0.00  0.00    +0.000 A 
ATOM     18  C   UNL     1       7.905  17.432  20.268  0.00  0.00    +0.000 A 
ATOM     19  O   UNL     1       8.331  18.247  21.285  0.00  0.00    +0.000 OA
ENDROOT
BRANCH   9  20
ATOM     20  C   UNL     1       9.720  10.887  18.676  0.00  0.00    +0.000 C 
ATOM     21  O   UNL     1      10.330  11.174  17.654  0.00  0.00    +0.000 OA
ATOM     22  N   UNL     1       8.731   9.926  18.707  0.00  0.00    +0.000 N 
ATOM     23  H   UNL     1       8.381   9.590  19.594  0.00  0.00    +0.000 HD
BRANCH  22  24
ATOM     24  C   UNL     1       8.390   9.145  17.533  0.00  0.00    +0.000 C 
BRANCH  24  25
ATOM     25  C   UNL     1       7.191   8.236  17.793  0.00  0.00    +0.000 C 
BRANCH  25  26
ATOM     26  C   UNL     1       7.623   6.780  17.988  0.00  0.00    +0.000 C 
BRANCH  26  27
ATOM     27  C   UNL     1       6.654   5.819  17.356  0.00  0.00    +0.000 A 
ATOM     28  C   UNL     1       5.320   5.776  17.784  0.00  0.00    +0.000 A 
ATOM     29  C   UNL     1       4.423   4.875  17.209  0.00  0.00    +0.000 A 
ATOM     30  C   UNL     1       4.854   4.008  16.208  0.00  0.00    +0.000 A 
ATOM     31  C   UNL     1       6.181   4.039  15.780  0.00  0.00    +0.000 A 
ATOM     32  C   UNL     1       7.079   4.939  16.354  0.00  0.00    +0.000 A 
ENDBRANCH  26  27
ENDBRANCH  25  26
ENDBRANCH  24  25
ENDBRANCH  22  24
ENDBRANCH   9  20
BRANCH   1  34
ATOM     33  C   UNL     1       8.804  17.172  23.840  0.00  0.00    +0.000 C 
ATOM     34  C   UNL     1       9.868  17.043  22.750  0.00  0.00    +0.000 C 
ENDBRANCH   1  34
TORSDOF 6
ENDMDL
