MODEL 1
REMARK VINA RESULT:      -7.3      0.000      0.000
REMARK  Name = 
REMARK  3 active torsions:
REMARK  status: ('A' for Active; 'I' for Inactive)
REMARK    1  A    between atoms: C_1  and  C_2
REMARK    2  A    between atoms: C_12  and  S_13
REMARK    3  A    between atoms: S_13  and  C_14
REMARK                            x       y       z     vdW  Elec       q    Type
REMARK                         _______ _______ _______ _____ _____    ______ ____
ROOT
ATOM      1  C   UNL     1       0.990   2.841  18.690  0.00  0.00    +0.000 C 
ATOM      2  C   UNL     1       2.360   3.304  18.318  0.00  0.00    +0.000 A 
ATOM      3  S   UNL     1       3.022   2.812  16.813  0.00  0.00    +0.000 S 
ATOM      4  C   UNL     1       4.450   3.704  17.061  0.00  0.00    +0.000 A 
ATOM      5  N   UNL     1       5.414   3.769  16.105  0.00  0.00    +0.000 NA
ATOM      6  C   UNL     1       6.430   4.522  16.396  0.00  0.00    +0.000 A 
ATOM      7  N   UNL     1       7.430   4.698  15.495  0.00  0.00    +0.000 N 
ATOM      8  N   UNL     1       6.565   5.161  17.599  0.00  0.00    +0.000 N 
ATOM      9  C   UNL     1       5.662   5.053  18.638  0.00  0.00    +0.000 A 
ATOM     10  O   UNL     1       5.921   5.501  19.750  0.00  0.00    +0.000 OA
ATOM     11  C   UNL     1       4.461   4.322  18.298  0.00  0.00    +0.000 A 
ATOM     12  C   UNL     1       3.227   4.140  19.001  0.00  0.00    +0.000 A 
ATOM     13  H   UNL     1       7.420   4.023  14.740  0.00  0.00    +0.000 HD
ATOM     14  H   UNL     1       8.352   4.947  15.823  0.00  0.00    +0.000 HD
ATOM     15  H   UNL     1       7.389   5.702  17.800  0.00  0.00    +0.000 HD
ENDROOT
BRANCH  12  16
ATOM     16  S   UNL     1       2.800   5.000  20.486  0.00  0.00    +0.000 S 
BRANCH  16  17
ATOM     17  C   UNL     1       2.229   6.603  19.948  0.00  0.00    +0.000 A 
ATOM     18  C   UNL     1       2.518   7.016  18.641  0.00  0.00    +0.000 A 
ATOM     19  C   UNL     1       2.138   8.287  18.194  0.00  0.00    +0.000 A 
ATOM     20  C   UNL     1       1.460   9.155  19.052  0.00  0.00    +0.000 A 
ATOM     21 CL   UNL     1       1.011  10.706  18.439  0.00  0.00    +0.000 Cl
ATOM     22  C   UNL     1       1.180   8.752  20.361  0.00  0.00    +0.000 A 
ATOM     23 CL   UNL     1       0.358   9.776  21.487  0.00  0.00    +0.000 Cl
ATOM     24  C   UNL     1       1.572   7.485  20.806  0.00  0.00    +0.000 A 
ENDBRANCH  16  17
ENDBRANCH  12  16
TORSDOF 2
ENDMDL
MODEL 2
REMARK VINA RESULT:      -6.9      4.721      6.677
REMARK  Name = 
REMARK  3 active torsions:
REMARK  status: ('A' for Active; 'I' for Inactive)
REMARK    1  A    between atoms: C_1  and  C_2
REMARK    2  A    between atoms: C_12  and  S_13
REMARK    3  A    between atoms: S_13  and  C_14
REMARK                            x       y       z     vdW  Elec       q    Type
REMARK                         _______ _______ _______ _____ _____    ______ ____
ROOT
ATOM      1  C   UNL     1       5.104   7.640  17.241  0.00  0.00    +0.000 C 
ATOM      2  C   UNL     1       4.454   6.540  18.015  0.00  0.00    +0.000 A 
ATOM      3  S   UNL     1       2.809   6.710  18.475  0.00  0.00    +0.000 S 
ATOM      4  C   UNL     1       2.774   5.173  19.204  0.00  0.00    +0.000 A 
ATOM      5  N   UNL     1       1.627   4.671  19.733  0.00  0.00    +0.000 NA
ATOM      6  C   UNL     1       1.720   3.469  20.213  0.00  0.00    +0.000 A 
ATOM      7  N   UNL     1       0.624   2.851  20.723  0.00  0.00    +0.000 N 
ATOM      8  N   UNL     1       2.896   2.770  20.251  0.00  0.00    +0.000 N 
ATOM      9  C   UNL     1       4.107   3.269  19.814  0.00  0.00    +0.000 A 
ATOM     10  O   UNL     1       5.154   2.669  20.034  0.00  0.00    +0.000 OA
ATOM     11  C   UNL     1       4.010   4.556  19.160  0.00  0.00    +0.000 A 
ATOM     12  C   UNL     1       4.968   5.321  18.419  0.00  0.00    +0.000 A 
ATOM     13  H   UNL     1      -0.147   3.479  20.909  0.00  0.00    +0.000 HD
ATOM     14  H   UNL     1       0.745   2.119  21.409  0.00  0.00    +0.000 HD
ATOM     15  H   UNL     1       2.933   1.857  20.670  0.00  0.00    +0.000 HD
ENDROOT
BRANCH  12  16
ATOM     16  S   UNL     1       6.561   4.717  17.946  0.00  0.00    +0.000 S 
BRANCH  16  17
ATOM     17  C   UNL     1       6.462   4.475  16.181  0.00  0.00    +0.000 A 
ATOM     18  C   UNL     1       5.507   3.582  15.677  0.00  0.00    +0.000 A 
ATOM     19  C   UNL     1       5.431   3.319  14.303  0.00  0.00    +0.000 A 
ATOM     20  C   UNL     1       6.309   3.953  13.422  0.00  0.00    +0.000 A 
ATOM     21 CL   UNL     1       6.159   3.594  11.739  0.00  0.00    +0.000 Cl
ATOM     22  C   UNL     1       7.271   4.836  13.921  0.00  0.00    +0.000 A 
ATOM     23 CL   UNL     1       8.403   5.646  12.895  0.00  0.00    +0.000 Cl
ATOM     24  C   UNL     1       7.350   5.086  15.295  0.00  0.00    +0.000 A 
ENDBRANCH  16  17
ENDBRANCH  12  16
TORSDOF 2
ENDMDL
MODEL 3
REMARK VINA RESULT:      -6.7      0.744      1.553
REMARK  Name = 
REMARK  3 active torsions:
REMARK  status: ('A' for Active; 'I' for Inactive)
REMARK    1  A    between atoms: C_1  and  C_2
REMARK    2  A    between atoms: C_12  and  S_13
REMARK    3  A    between atoms: S_13  and  C_14
REMARK                            x       y       z     vdW  Elec       q    Type
REMARK                         _______ _______ _______ _____ _____    ______ ____
ROOT
ATOM      1  C   UNL     1       0.986   2.666  18.637  0.00  0.00    +0.000 C 
ATOM      2  C   UNL     1       2.360   3.146  18.302  0.00  0.00    +0.000 A 
ATOM      3  S   UNL     1       2.994   2.824  16.740  0.00  0.00    +0.000 S 
ATOM      4  C   UNL     1       4.441   3.656  17.070  0.00  0.00    +0.000 A 
ATOM      5  N   UNL     1       5.395   3.816  16.115  0.00  0.00    +0.000 NA
ATOM      6  C   UNL     1       6.428   4.512  16.478  0.00  0.00    +0.000 A 
ATOM      7  N   UNL     1       7.420   4.776  15.589  0.00  0.00    +0.000 N 
ATOM      8  N   UNL     1       6.590   5.001  17.746  0.00  0.00    +0.000 N 
ATOM      9  C   UNL     1       5.698   4.787  18.778  0.00  0.00    +0.000 A 
ATOM     10  O   UNL     1       5.979   5.096  19.931  0.00  0.00    +0.000 OA
ATOM     11  C   UNL     1       4.479   4.123  18.371  0.00  0.00    +0.000 A 
ATOM     12  C   UNL     1       3.250   3.880  19.066  0.00  0.00    +0.000 A 
ATOM     13  H   UNL     1       7.388   4.195  14.761  0.00  0.00    +0.000 HD
ATOM     14  H   UNL     1       8.351   4.968  15.931  0.00  0.00    +0.000 HD
ATOM     15  H   UNL     1       7.426   5.501  17.997  0.00  0.00    +0.000 HD
ENDROOT
BRANCH  12  16
ATOM     16  S   UNL     1       2.859   4.567  20.648  0.00  0.00    +0.000 S 
BRANCH  16  17
ATOM     17  C   UNL     1       2.294   6.224  20.310  0.00  0.00    +0.000 A 
ATOM     18  C   UNL     1       1.497   6.871  21.265  0.00  0.00    +0.000 A 
ATOM     19  C   UNL     1       0.985   8.151  21.018  0.00  0.00    +0.000 A 
ATOM     20  C   UNL     1       1.270   8.797  19.814  0.00  0.00    +0.000 A 
ATOM     21 CL   UNL     1       0.617  10.377  19.573  0.00  0.00    +0.000 Cl
ATOM     22  C   UNL     1       2.055   8.151  18.853  0.00  0.00    +0.000 A 
ATOM     23 CL   UNL     1       2.439   8.880  17.333  0.00  0.00    +0.000 Cl
ATOM     24  C   UNL     1       2.554   6.868  19.101  0.00  0.00    +0.000 A 
ENDBRANCH  16  17
ENDBRANCH  12  16
TORSDOF 2
ENDMDL
MODEL 4
REMARK VINA RESULT:      -6.5      1.141      1.249
REMARK  Name = 
REMARK  3 active torsions:
REMARK  status: ('A' for Active; 'I' for Inactive)
REMARK    1  A    between atoms: C_1  and  C_2
REMARK    2  A    between atoms: C_12  and  S_13
REMARK    3  A    between atoms: S_13  and  C_14
REMARK                            x       y       z     vdW  Elec       q    Type
REMARK                         _______ _______ _______ _____ _____    ______ ____
ROOT
ATOM      1  C   UNL     1       2.326   2.720  18.247  0.00  0.00    +0.000 C 
ATOM      2  C   UNL     1       3.535   3.380  17.670  0.00  0.00    +0.000 A 
ATOM      3  S   UNL     1       4.021   2.971  16.076  0.00  0.00    +0.000 S 
ATOM      4  C   UNL     1       5.317   4.073  16.105  0.00  0.00    +0.000 A 
ATOM      5  N   UNL     1       6.100   4.268  15.011  0.00  0.00    +0.000 NA
ATOM      6  C   UNL     1       7.022   5.171  15.145  0.00  0.00    +0.000 A 
ATOM      7  N   UNL     1       7.830   5.483  14.100  0.00  0.00    +0.000 N 
ATOM      8  N   UNL     1       7.244   5.841  16.319  0.00  0.00    +0.000 N 
ATOM      9  C   UNL     1       6.541   5.613  17.484  0.00  0.00    +0.000 A 
ATOM     10  O   UNL     1       6.899   6.112  18.546  0.00  0.00    +0.000 OA
ATOM     11  C   UNL     1       5.427   4.704  17.330  0.00  0.00    +0.000 A 
ATOM     12  C   UNL     1       4.360   4.348  18.216  0.00  0.00    +0.000 A 
ATOM     13  H   UNL     1       7.806   4.803  13.351  0.00  0.00    +0.000 HD
ATOM     14  H   UNL     1       8.744   5.874  14.283  0.00  0.00    +0.000 HD
ATOM     15  H   UNL     1       7.997   6.504  16.392  0.00  0.00    +0.000 HD
ENDROOT
BRANCH  12  16
ATOM     16  S   UNL     1       4.045   5.156  19.757  0.00  0.00    +0.000 S 
BRANCH  16  17
ATOM     17  C   UNL     1       3.033   6.566  19.345  0.00  0.00    +0.000 A 
ATOM     18  C   UNL     1       3.178   7.151  18.080  0.00  0.00    +0.000 A 
ATOM     19  C   UNL     1       2.444   8.293  17.733  0.00  0.00    +0.000 A 
ATOM     20  C   UNL     1       1.555   8.857  18.651  0.00  0.00    +0.000 A 
ATOM     21 CL   UNL     1       0.674  10.258  18.161  0.00  0.00    +0.000 Cl
ATOM     22  C   UNL     1       1.416   8.283  19.919  0.00  0.00    +0.000 A 
ATOM     23 CL   UNL     1       0.347   8.932  21.113  0.00  0.00    +0.000 Cl
ATOM     24  C   UNL     1       2.159   7.149  20.263  0.00  0.00    +0.000 A 
ENDBRANCH  16  17
ENDBRANCH  12  16
TORSDOF 2
ENDMDL
MODEL 5
REMARK VINA RESULT:      -6.4      4.622      6.501
REMARK  Name = 
REMARK  3 active torsions:
REMARK  status: ('A' for Active; 'I' for Inactive)
REMARK    1  A    between atoms: C_1  and  C_2
REMARK    2  A    between atoms: C_12  and  S_13
REMARK    3  A    between atoms: S_13  and  C_14
REMARK                            x       y       z     vdW  Elec       q    Type
REMARK                         _______ _______ _______ _____ _____    ______ ____
ROOT
ATOM      1  C   UNL     1      -0.405  11.180  22.125  0.00  0.00    +0.000 C 
ATOM      2  C   UNL     1       0.330  10.201  21.270  0.00  0.00    +0.000 A 
ATOM      3  S   UNL     1       0.823   8.707  21.955  0.00  0.00    +0.000 S 
ATOM      4  C   UNL     1       1.484   8.162  20.485  0.00  0.00    +0.000 A 
ATOM      5  N   UNL     1       2.008   6.914  20.369  0.00  0.00    +0.000 NA
ATOM      6  C   UNL     1       2.434   6.601  19.184  0.00  0.00    +0.000 A 
ATOM      7  N   UNL     1       2.933   5.362  18.942  0.00  0.00    +0.000 N 
ATOM      8  N   UNL     1       2.422   7.477  18.132  0.00  0.00    +0.000 N 
ATOM      9  C   UNL     1       1.989   8.785  18.220  0.00  0.00    +0.000 A 
ATOM     10  O   UNL     1       2.166   9.573  17.297  0.00  0.00    +0.000 OA
ATOM     11  C   UNL     1       1.393   9.122  19.495  0.00  0.00    +0.000 A 
ATOM     12  C   UNL     1       0.672  10.280  19.931  0.00  0.00    +0.000 A 
ATOM     13  H   UNL     1       3.159   4.844  19.782  0.00  0.00    +0.000 HD
ATOM     14  H   UNL     1       3.585   5.232  18.181  0.00  0.00    +0.000 HD
ATOM     15  H   UNL     1       2.800   7.209  17.240  0.00  0.00    +0.000 HD
ENDROOT
BRANCH  12  16
ATOM     16  S   UNL     1       0.148  11.581  18.854  0.00  0.00    +0.000 S 
BRANCH  16  17
ATOM     17  C   UNL     1      -1.617  11.373  18.697  0.00  0.00    +0.000 A 
ATOM     18  C   UNL     1      -2.102  10.367  17.850  0.00  0.00    +0.000 A 
ATOM     19  C   UNL     1      -3.480  10.203  17.653  0.00  0.00    +0.000 A 
ATOM     20  C   UNL     1      -4.383  11.044  18.306  0.00  0.00    +0.000 A 
ATOM     21 CL   UNL     1      -6.068  10.786  18.029  0.00  0.00    +0.000 Cl
ATOM     22  C   UNL     1      -3.903  12.056  19.143  0.00  0.00    +0.000 A 
ATOM     23 CL   UNL     1      -4.958  13.145  19.974  0.00  0.00    +0.000 Cl
ATOM     24  C   UNL     1      -2.526  12.222  19.327  0.00  0.00    +0.000 A 
ENDBRANCH  16  17
ENDBRANCH  12  16
TORSDOF 2
ENDMDL
MODEL 6
REMARK VINA RESULT:      -6.3      5.721      7.878
REMARK  Name = 
REMARK  3 active torsions:
REMARK  status: ('A' for Active; 'I' for Inactive)
REMARK    1  A    between atoms: C_1  and  C_2
REMARK    2  A    between atoms: C_12  and  S_13
REMARK    3  A    between atoms: S_13  and  C_14
REMARK                            x       y       z     vdW  Elec       q    Type
REMARK                         _______ _______ _______ _____ _____    ______ ____
ROOT
ATOM      1  C   UNL     1      -1.616  12.351  22.989  0.00  0.00    +0.000 C 
ATOM      2  C   UNL     1      -0.779  11.384  22.218  0.00  0.00    +0.000 A 
ATOM      3  S   UNL     1      -0.234   9.954  22.996  0.00  0.00    +0.000 S 
ATOM      4  C   UNL     1       0.536   9.389  21.587  0.00  0.00    +0.000 A 
ATOM      5  N   UNL     1       1.140   8.172  21.556  0.00  0.00    +0.000 NA
ATOM      6  C   UNL     1       1.646   7.836  20.409  0.00  0.00    +0.000 A 
ATOM      7  N   UNL     1       2.231   6.621  20.250  0.00  0.00    +0.000 N 
ATOM      8  N   UNL     1       1.637   8.663  19.318  0.00  0.00    +0.000 N 
ATOM      9  C   UNL     1       1.121   9.944  19.324  0.00  0.00    +0.000 A 
ATOM     10  O   UNL     1       1.299  10.701  18.375  0.00  0.00    +0.000 OA
ATOM     11  C   UNL     1       0.440  10.298  20.550  0.00  0.00    +0.000 A 
ATOM     12  C   UNL     1      -0.372  11.425  20.896  0.00  0.00    +0.000 A 
ATOM     13  H   UNL     1       2.442   6.155  21.123  0.00  0.00    +0.000 HD
ATOM     14  H   UNL     1       2.928   6.500  19.529  0.00  0.00    +0.000 HD
ATOM     15  H   UNL     1       2.077   8.380  18.460  0.00  0.00    +0.000 HD
ENDROOT
BRANCH  12  16
ATOM     16  S   UNL     1      -0.916  12.643  19.735  0.00  0.00    +0.000 S 
BRANCH  16  17
ATOM     17  C   UNL     1      -2.602  12.204  19.354  0.00  0.00    +0.000 A 
ATOM     18  C   UNL     1      -2.855  11.438  18.208  0.00  0.00    +0.000 A 
ATOM     19  C   UNL     1      -4.167  11.117  17.839  0.00  0.00    +0.000 A 
ATOM     20  C   UNL     1      -5.239  11.556  18.619  0.00  0.00    +0.000 A 
ATOM     21 CL   UNL     1      -6.832  11.119  18.117  0.00  0.00    +0.000 Cl
ATOM     22  C   UNL     1      -4.993  12.329  19.757  0.00  0.00    +0.000 A 
ATOM     23 CL   UNL     1      -6.267  12.922  20.765  0.00  0.00    +0.000 Cl
ATOM     24  C   UNL     1      -3.680  12.657  20.114  0.00  0.00    +0.000 A 
ENDBRANCH  16  17
ENDBRANCH  12  16
TORSDOF 2
ENDMDL
MODEL 7
REMARK VINA RESULT:      -6.3      5.605      7.744
REMARK  Name = 
REMARK  3 active torsions:
REMARK  status: ('A' for Active; 'I' for Inactive)
REMARK    1  A    between atoms: C_1  and  C_2
REMARK    2  A    between atoms: C_12  and  S_13
REMARK    3  A    between atoms: S_13  and  C_14
REMARK                            x       y       z     vdW  Elec       q    Type
REMARK                         _______ _______ _______ _____ _____    ______ ____
ROOT
ATOM      1  C   UNL     1      -1.363  10.904  23.209  0.00  0.00    +0.000 C 
ATOM      2  C   UNL     1      -0.534  10.622  21.999  0.00  0.00    +0.000 A 
ATOM      3  S   UNL     1       0.245   9.098  21.865  0.00  0.00    +0.000 S 
ATOM      4  C   UNL     1       0.889   9.475  20.336  0.00  0.00    +0.000 A 
ATOM      5  N   UNL     1       1.605   8.561  19.629  0.00  0.00    +0.000 NA
ATOM      6  C   UNL     1       1.998   8.954  18.456  0.00  0.00    +0.000 A 
ATOM      7  N   UNL     1       2.678   8.106  17.643  0.00  0.00    +0.000 N 
ATOM      8  N   UNL     1       1.771  10.217  17.978  0.00  0.00    +0.000 N 
ATOM      9  C   UNL     1       1.134  11.211  18.693  0.00  0.00    +0.000 A 
ATOM     10  O   UNL     1       1.116  12.369  18.287  0.00  0.00    +0.000 OA
ATOM     11  C   UNL     1       0.575  10.765  19.951  0.00  0.00    +0.000 A 
ATOM     12  C   UNL     1      -0.298  11.409  20.886  0.00  0.00    +0.000 A 
ATOM     13  H   UNL     1       3.041   7.290  18.121  0.00  0.00    +0.000 HD
ATOM     14  H   UNL     1       3.291   8.486  16.936  0.00  0.00    +0.000 HD
ATOM     15  H   UNL     1       2.129  10.494  17.081  0.00  0.00    +0.000 HD
ENDROOT
BRANCH  12  16
ATOM     16  S   UNL     1      -1.100  12.955  20.584  0.00  0.00    +0.000 S 
BRANCH  16  17
ATOM     17  C   UNL     1      -2.650  12.532  19.808  0.00  0.00    +0.000 A 
ATOM     18  C   UNL     1      -3.842  12.828  20.483  0.00  0.00    +0.000 A 
ATOM     19  C   UNL     1      -5.080  12.464  19.937  0.00  0.00    +0.000 A 
ATOM     20  C   UNL     1      -5.134  11.805  18.708  0.00  0.00    +0.000 A 
ATOM     21 CL   UNL     1      -6.691  11.391  18.084  0.00  0.00    +0.000 Cl
ATOM     22  C   UNL     1      -3.947  11.497  18.037  0.00  0.00    +0.000 A 
ATOM     23 CL   UNL     1      -3.932  10.669  16.519  0.00  0.00    +0.000 Cl
ATOM     24  C   UNL     1      -2.713  11.853  18.592  0.00  0.00    +0.000 A 
ENDBRANCH  16  17
ENDBRANCH  12  16
TORSDOF 2
ENDMDL
MODEL 8
REMARK VINA RESULT:      -6.2      4.607      6.705
REMARK  Name = 
REMARK  3 active torsions:
REMARK  status: ('A' for Active; 'I' for Inactive)
REMARK    1  A    between atoms: C_1  and  C_2
REMARK    2  A    between atoms: C_12  and  S_13
REMARK    3  A    between atoms: S_13  and  C_14
REMARK                            x       y       z     vdW  Elec       q    Type
REMARK                         _______ _______ _______ _____ _____    ______ ____
ROOT
ATOM      1  C   UNL     1      -0.426  11.371  22.168  0.00  0.00    +0.000 C 
ATOM      2  C   UNL     1       0.297  10.405  21.288  0.00  0.00    +0.000 A 
ATOM      3  S   UNL     1       0.684   8.851  21.905  0.00  0.00    +0.000 S 
ATOM      4  C   UNL     1       1.382   8.355  20.434  0.00  0.00    +0.000 A 
ATOM      5  N   UNL     1       1.849   7.090  20.267  0.00  0.00    +0.000 NA
ATOM      6  C   UNL     1       2.311   6.823  19.085  0.00  0.00    +0.000 A 
ATOM      7  N   UNL     1       2.757   5.575  18.791  0.00  0.00    +0.000 N 
ATOM      8  N   UNL     1       2.389   7.756  18.086  0.00  0.00    +0.000 N 
ATOM      9  C   UNL     1       2.018   9.078  18.232  0.00  0.00    +0.000 A 
ATOM     10  O   UNL     1       2.274   9.906  17.364  0.00  0.00    +0.000 OA
ATOM     11  C   UNL     1       1.383   9.373  19.498  0.00  0.00    +0.000 A 
ATOM     12  C   UNL     1       0.702  10.540  19.971  0.00  0.00    +0.000 A 
ATOM     13  H   UNL     1       2.919   5.000  19.608  0.00  0.00    +0.000 HD
ATOM     14  H   UNL     1       3.435   5.455  18.052  0.00  0.00    +0.000 HD
ATOM     15  H   UNL     1       2.792   7.519  17.196  0.00  0.00    +0.000 HD
ENDROOT
BRANCH  12  16
ATOM     16  S   UNL     1       0.291  11.925  18.952  0.00  0.00    +0.000 S 
BRANCH  16  17
ATOM     17  C   UNL     1      -1.427  11.700  18.529  0.00  0.00    +0.000 A 
ATOM     18  C   UNL     1      -2.405  12.200  19.400  0.00  0.00    +0.000 A 
ATOM     19  C   UNL     1      -3.766  11.998  19.137  0.00  0.00    +0.000 A 
ATOM     20  C   UNL     1      -4.159  11.296  17.996  0.00  0.00    +0.000 A 
ATOM     21 CL   UNL     1      -5.852  11.087  17.723  0.00  0.00    +0.000 Cl
ATOM     22  C   UNL     1      -3.188  10.784  17.131  0.00  0.00    +0.000 A 
ATOM     23 CL   UNL     1      -3.596   9.892  15.707  0.00  0.00    +0.000 Cl
ATOM     24  C   UNL     1      -1.830  10.980  17.404  0.00  0.00    +0.000 A 
ENDBRANCH  16  17
ENDBRANCH  12  16
TORSDOF 2
ENDMDL
MODEL 9
REMARK VINA RESULT:      -6.2      4.400      6.439
REMARK  Name = 
REMARK  3 active torsions:
REMARK  status: ('A' for Active; 'I' for Inactive)
REMARK    1  A    between atoms: C_1  and  C_2
REMARK    2  A    between atoms: C_12  and  S_13
REMARK    3  A    between atoms: S_13  and  C_14
REMARK                            x       y       z     vdW  Elec       q    Type
REMARK                         _______ _______ _______ _____ _____    ______ ____
ROOT
ATOM      1  C   UNL     1       4.678   2.579  19.890  0.00  0.00    +0.000 C 
ATOM      2  C   UNL     1       4.207   3.919  19.428  0.00  0.00    +0.000 A 
ATOM      3  S   UNL     1       2.682   4.493  19.968  0.00  0.00    +0.000 S 
ATOM      4  C   UNL     1       2.857   5.969  19.139  0.00  0.00    +0.000 A 
ATOM      5  N   UNL     1       1.923   6.950  19.245  0.00  0.00    +0.000 NA
ATOM      6  C   UNL     1       2.198   8.045  18.605  0.00  0.00    +0.000 A 
ATOM      7  N   UNL     1       1.359   9.110  18.680  0.00  0.00    +0.000 N 
ATOM      8  N   UNL     1       3.312   8.193  17.823  0.00  0.00    +0.000 N 
ATOM      9  C   UNL     1       4.242   7.196  17.606  0.00  0.00    +0.000 A 
ATOM     10  O   UNL     1       5.121   7.324  16.760  0.00  0.00    +0.000 OA
ATOM     11  C   UNL     1       4.028   6.009  18.405  0.00  0.00    +0.000 A 
ATOM     12  C   UNL     1       4.838   4.847  18.619  0.00  0.00    +0.000 A 
ATOM     13  H   UNL     1       0.444   8.879  19.047  0.00  0.00    +0.000 HD
ATOM     14  H   UNL     1       1.353   9.787  17.931  0.00  0.00    +0.000 HD
ATOM     15  H   UNL     1       3.466   9.043  17.310  0.00  0.00    +0.000 HD
ENDROOT
BRANCH  12  16
ATOM     16  S   UNL     1       6.503   4.686  18.047  0.00  0.00    +0.000 S 
BRANCH  16  17
ATOM     17  C   UNL     1       6.369   4.429  16.287  0.00  0.00    +0.000 A 
ATOM     18  C   UNL     1       5.399   3.536  15.810  0.00  0.00    +0.000 A 
ATOM     19  C   UNL     1       5.294   3.261  14.441  0.00  0.00    +0.000 A 
ATOM     20  C   UNL     1       6.158   3.882  13.536  0.00  0.00    +0.000 A 
ATOM     21 CL   UNL     1       5.972   3.508  11.861  0.00  0.00    +0.000 Cl
ATOM     22  C   UNL     1       7.134   4.764  14.008  0.00  0.00    +0.000 A 
ATOM     23 CL   UNL     1       8.249   5.559  12.952  0.00  0.00    +0.000 Cl
ATOM     24  C   UNL     1       7.242   5.026  15.378  0.00  0.00    +0.000 A 
ENDBRANCH  16  17
ENDBRANCH  12  16
TORSDOF 2
ENDMDL
