MODEL 1
REMARK VINA RESULT:      -6.6      0.000      0.000
REMARK  Name = 
REMARK  7 active torsions:
REMARK  status: ('A' for Active; 'I' for Inactive)
REMARK    1  A    between atoms: C_1  and  C_2
REMARK    2  A    between atoms: C_2  and  C_3
REMARK    3  A    between atoms: C_7  and  C_8
REMARK    4  A    between atoms: C_8  and  S_9
REMARK    5  A    between atoms: S_9  and  C_10
REMARK    6  A    between atoms: C_10  and  C_11
REMARK    7  A    between atoms: C_11  and  C_12
REMARK                            x       y       z     vdW  Elec       q    Type
REMARK                         _______ _______ _______ _____ _____    ______ ____
ROOT
ATOM      1  C   UNL     1       4.387   6.727  17.499  0.00  0.00    +0.000 C 
ENDROOT
BRANCH   1   2
ATOM      2  S   UNL     1       3.348   6.220  18.916  0.00  0.00    +0.000 S 
BRANCH   2   3
ATOM      3  C   UNL     1       2.098   5.231  18.041  0.00  0.00    +0.000 C 
BRANCH   3   8
ATOM      4  C   UNL     1       1.784   2.903  19.170  0.00  0.00    +0.000 A 
ATOM      5  N   UNL     1       2.275   1.666  18.831  0.00  0.00    +0.000 N 
ATOM      6  C   UNL     1       3.071   1.819  17.734  0.00  0.00    +0.000 A 
ATOM      7  N   UNL     1       3.092   3.064  17.326  0.00  0.00    +0.000 NA
ATOM      8  C   UNL     1       2.295   3.763  18.211  0.00  0.00    +0.000 A 
ATOM      9  H   UNL     1       2.092   0.797  19.313  0.00  0.00    +0.000 HD
BRANCH   4  11
ATOM     10  C   UNL     1       1.658   2.873  21.652  0.00  0.00    +0.000 C 
ATOM     11  C   UNL     1       0.909   3.122  20.351  0.00  0.00    +0.000 C 
ENDBRANCH   4  11
ENDBRANCH   3   8
ENDBRANCH   2   3
ENDBRANCH   1   2
BRANCH   1  12
ATOM     12  C   UNL     1       5.795   6.168  17.620  0.00  0.00    +0.000 C 
BRANCH  12  13
ATOM     13  C   UNL     1       5.931   4.660  17.638  0.00  0.00    +0.000 C 
ATOM     14  N   UNL     1       5.915   3.907  18.685  0.00  0.00    +0.000 NA
ATOM     15  N   UNL     1       6.093   3.986  16.460  0.00  0.00    +0.000 N 
ATOM     16  C   UNL     1       6.173   4.490  15.189  0.00  0.00    +0.000 C 
ATOM     17  N   UNL     1       6.346   3.533  14.240  0.00  0.00    +0.000 N 
ATOM     18  O   UNL     1       6.077   5.664  14.853  0.00  0.00    +0.000 OA
ATOM     19  H   UNL     1       5.844   4.487  19.534  0.00  0.00    +0.000 HD
ATOM     20  H   UNL     1       6.205   2.992  16.593  0.00  0.00    +0.000 HD
ATOM     21  H   UNL     1       6.590   2.577  14.455  0.00  0.00    +0.000 HD
ATOM     22  H   UNL     1       6.469   3.861  13.293  0.00  0.00    +0.000 HD
ENDBRANCH  12  13
ENDBRANCH   1  12
TORSDOF 6
ENDMDL
MODEL 2
REMARK VINA RESULT:      -6.4      2.619      3.493
REMARK  Name = 
REMARK  7 active torsions:
REMARK  status: ('A' for Active; 'I' for Inactive)
REMARK    1  A    between atoms: C_1  and  C_2
REMARK    2  A    between atoms: C_2  and  C_3
REMARK    3  A    between atoms: C_7  and  C_8
REMARK    4  A    between atoms: C_8  and  S_9
REMARK    5  A    between atoms: S_9  and  C_10
REMARK    6  A    between atoms: C_10  and  C_11
REMARK    7  A    between atoms: C_11  and  C_12
REMARK                            x       y       z     vdW  Elec       q    Type
REMARK                         _______ _______ _______ _____ _____    ______ ____
ROOT
ATOM      1  C   UNL     1       4.911   3.789  16.553  0.00  0.00    +0.000 C 
ENDROOT
BRANCH   1   2
ATOM      2  S   UNL     1       3.823   3.102  17.852  0.00  0.00    +0.000 S 
BRANCH   2   3
ATOM      3  C   UNL     1       2.394   4.213  17.673  0.00  0.00    +0.000 C 
BRANCH   3   8
ATOM      4  C   UNL     1       1.738   4.875  20.107  0.00  0.00    +0.000 A 
ATOM      5  N   UNL     1       1.823   6.076  20.766  0.00  0.00    +0.000 N 
ATOM      6  C   UNL     1       2.307   7.001  19.888  0.00  0.00    +0.000 A 
ATOM      7  N   UNL     1       2.573   6.462  18.722  0.00  0.00    +0.000 NA
ATOM      8  C   UNL     1       2.223   5.132  18.834  0.00  0.00    +0.000 A 
ATOM      9  H   UNL     1       1.563   6.253  21.726  0.00  0.00    +0.000 HD
BRANCH   4  11
ATOM     10  C   UNL     1       2.290   2.907  21.521  0.00  0.00    +0.000 C 
ATOM     11  C   UNL     1       1.206   3.644  20.750  0.00  0.00    +0.000 C 
ENDBRANCH   4  11
ENDBRANCH   3   8
ENDBRANCH   2   3
ENDBRANCH   1   2
BRANCH   1  12
ATOM     12  C   UNL     1       5.387   5.186  16.914  0.00  0.00    +0.000 C 
BRANCH  12  13
ATOM     13  C   UNL     1       6.863   5.472  16.733  0.00  0.00    +0.000 C 
ATOM     14  N   UNL     1       7.473   5.638  15.609  0.00  0.00    +0.000 NA
ATOM     15  N   UNL     1       7.669   5.568  17.833  0.00  0.00    +0.000 N 
ATOM     16  C   UNL     1       7.337   5.421  19.153  0.00  0.00    +0.000 C 
ATOM     17  N   UNL     1       8.394   5.572  19.994  0.00  0.00    +0.000 N 
ATOM     18  O   UNL     1       6.223   5.207  19.615  0.00  0.00    +0.000 OA
ATOM     19  H   UNL     1       6.815   5.498  14.828  0.00  0.00    +0.000 HD
ATOM     20  H   UNL     1       8.637   5.728  17.593  0.00  0.00    +0.000 HD
ATOM     21  H   UNL     1       9.353   5.591  19.681  0.00  0.00    +0.000 HD
ATOM     22  H   UNL     1       8.209   5.416  20.975  0.00  0.00    +0.000 HD
ENDBRANCH  12  13
ENDBRANCH   1  12
TORSDOF 6
ENDMDL
MODEL 3
REMARK VINA RESULT:      -6.4      2.462      6.025
REMARK  Name = 
REMARK  7 active torsions:
REMARK  status: ('A' for Active; 'I' for Inactive)
REMARK    1  A    between atoms: C_1  and  C_2
REMARK    2  A    between atoms: C_2  and  C_3
REMARK    3  A    between atoms: C_7  and  C_8
REMARK    4  A    between atoms: C_8  and  S_9
REMARK    5  A    between atoms: S_9  and  C_10
REMARK    6  A    between atoms: C_10  and  C_11
REMARK    7  A    between atoms: C_11  and  C_12
REMARK                            x       y       z     vdW  Elec       q    Type
REMARK                         _______ _______ _______ _____ _____    ______ ____
ROOT
ATOM      1  C   UNL     1       2.663   4.940  17.715  0.00  0.00    +0.000 C 
ENDROOT
BRANCH   1   2
ATOM      2  S   UNL     1       3.705   5.357  19.159  0.00  0.00    +0.000 S 
BRANCH   2   3
ATOM      3  C   UNL     1       5.197   4.402  18.746  0.00  0.00    +0.000 C 
BRANCH   3   8
ATOM      4  C   UNL     1       6.433   4.891  16.505  0.00  0.00    +0.000 A 
ATOM      5  N   UNL     1       7.318   5.885  16.164  0.00  0.00    +0.000 N 
ATOM      6  C   UNL     1       7.533   6.650  17.272  0.00  0.00    +0.000 A 
ATOM      7  N   UNL     1       6.816   6.236  18.288  0.00  0.00    +0.000 NA
ATOM      8  C   UNL     1       6.121   5.134  17.833  0.00  0.00    +0.000 A 
ATOM      9  H   UNL     1       7.746   6.021  15.259  0.00  0.00    +0.000 HD
BRANCH   4  11
ATOM     10  C   UNL     1       6.331   4.224  14.112  0.00  0.00    +0.000 C 
ATOM     11  C   UNL     1       6.002   3.839  15.547  0.00  0.00    +0.000 C 
ENDBRANCH   4  11
ENDBRANCH   3   8
ENDBRANCH   2   3
ENDBRANCH   1   2
BRANCH   1  12
ATOM     12  C   UNL     1       1.574   3.948  18.089  0.00  0.00    +0.000 C 
BRANCH  12  13
ATOM     13  C   UNL     1       2.027   2.586  18.570  0.00  0.00    +0.000 C 
ATOM     14  N   UNL     1       2.515   1.645  17.835  0.00  0.00    +0.000 NA
ATOM     15  N   UNL     1       1.927   2.273  19.896  0.00  0.00    +0.000 N 
ATOM     16  C   UNL     1       1.436   3.036  20.921  0.00  0.00    +0.000 C 
ATOM     17  N   UNL     1       1.474   2.410  22.126  0.00  0.00    +0.000 N 
ATOM     18  O   UNL     1       1.017   4.185  20.851  0.00  0.00    +0.000 OA
ATOM     19  H   UNL     1       2.510   1.932  16.845  0.00  0.00    +0.000 HD
ATOM     20  H   UNL     1       2.228   1.331  20.098  0.00  0.00    +0.000 HD
ATOM     21  H   UNL     1       1.654   1.422  22.232  0.00  0.00    +0.000 HD
ATOM     22  H   UNL     1       1.069   2.912  22.903  0.00  0.00    +0.000 HD
ENDBRANCH  12  13
ENDBRANCH   1  12
TORSDOF 6
ENDMDL
MODEL 4
REMARK VINA RESULT:      -6.2      1.485      1.730
REMARK  Name = 
REMARK  7 active torsions:
REMARK  status: ('A' for Active; 'I' for Inactive)
REMARK    1  A    between atoms: C_1  and  C_2
REMARK    2  A    between atoms: C_2  and  C_3
REMARK    3  A    between atoms: C_7  and  C_8
REMARK    4  A    between atoms: C_8  and  S_9
REMARK    5  A    between atoms: S_9  and  C_10
REMARK    6  A    between atoms: C_10  and  C_11
REMARK    7  A    between atoms: C_11  and  C_12
REMARK                            x       y       z     vdW  Elec       q    Type
REMARK                         _______ _______ _______ _____ _____    ______ ____
ROOT
ATOM      1  C   UNL     1       6.010   7.099  17.574  0.00  0.00    +0.000 C 
ENDROOT
BRANCH   1   2
ATOM      2  S   UNL     1       4.520   6.049  17.421  0.00  0.00    +0.000 S 
BRANCH   2   3
ATOM      3  C   UNL     1       4.311   5.559  19.160  0.00  0.00    +0.000 C 
BRANCH   3   8
ATOM      4  C   UNL     1       2.803   3.438  19.293  0.00  0.00    +0.000 A 
ATOM      5  N   UNL     1       3.126   2.116  19.479  0.00  0.00    +0.000 N 
ATOM      6  C   UNL     1       4.477   2.035  19.647  0.00  0.00    +0.000 A 
ATOM      7  N   UNL     1       5.044   3.212  19.543  0.00  0.00    +0.000 NA
ATOM      8  C   UNL     1       4.016   4.107  19.324  0.00  0.00    +0.000 A 
ATOM      9  H   UNL     1       2.480   1.339  19.502  0.00  0.00    +0.000 HD
BRANCH   4  11
ATOM     10  C   UNL     1       0.807   4.374  20.440  0.00  0.00    +0.000 C 
ATOM     11  C   UNL     1       1.402   3.904  19.121  0.00  0.00    +0.000 C 
ENDBRANCH   4  11
ENDBRANCH   3   8
ENDBRANCH   2   3
ENDBRANCH   1   2
BRANCH   1  12
ATOM     12  C   UNL     1       7.230   6.412  16.982  0.00  0.00    +0.000 C 
BRANCH  12  13
ATOM     13  C   UNL     1       7.314   4.910  17.147  0.00  0.00    +0.000 C 
ATOM     14  N   UNL     1       7.657   4.281  18.220  0.00  0.00    +0.000 NA
ATOM     15  N   UNL     1       7.014   4.099  16.089  0.00  0.00    +0.000 N 
ATOM     16  C   UNL     1       6.643   4.451  14.819  0.00  0.00    +0.000 C 
ATOM     17  N   UNL     1       6.427   3.385  14.005  0.00  0.00    +0.000 N 
ATOM     18  O   UNL     1       6.468   5.585  14.388  0.00  0.00    +0.000 OA
ATOM     19  H   UNL     1       7.920   4.955  18.955  0.00  0.00    +0.000 HD
ATOM     20  H   UNL     1       7.135   3.120  16.302  0.00  0.00    +0.000 HD
ATOM     21  H   UNL     1       6.702   2.443  14.242  0.00  0.00    +0.000 HD
ATOM     22  H   UNL     1       6.207   3.595  13.042  0.00  0.00    +0.000 HD
ENDBRANCH  12  13
ENDBRANCH   1  12
TORSDOF 6
ENDMDL
MODEL 5
REMARK VINA RESULT:      -6.2      2.553      6.020
REMARK  Name = 
REMARK  7 active torsions:
REMARK  status: ('A' for Active; 'I' for Inactive)
REMARK    1  A    between atoms: C_1  and  C_2
REMARK    2  A    between atoms: C_2  and  C_3
REMARK    3  A    between atoms: C_7  and  C_8
REMARK    4  A    between atoms: C_8  and  S_9
REMARK    5  A    between atoms: S_9  and  C_10
REMARK    6  A    between atoms: C_10  and  C_11
REMARK    7  A    between atoms: C_11  and  C_12
REMARK                            x       y       z     vdW  Elec       q    Type
REMARK                         _______ _______ _______ _____ _____    ______ ____
ROOT
ATOM      1  C   UNL     1       2.793   3.759  16.972  0.00  0.00    +0.000 C 
ENDROOT
BRANCH   1   2
ATOM      2  S   UNL     1       3.424   5.183  17.931  0.00  0.00    +0.000 S 
BRANCH   2   3
ATOM      3  C   UNL     1       5.148   4.654  18.166  0.00  0.00    +0.000 C 
BRANCH   3   8
ATOM      4  C   UNL     1       7.103   5.920  16.997  0.00  0.00    +0.000 A 
ATOM      5  N   UNL     1       7.560   5.871  15.703  0.00  0.00    +0.000 N 
ATOM      6  C   UNL     1       6.756   5.017  15.008  0.00  0.00    +0.000 A 
ATOM      7  N   UNL     1       5.838   4.488  15.781  0.00  0.00    +0.000 NA
ATOM      8  C   UNL     1       6.034   5.040  17.030  0.00  0.00    +0.000 A 
ATOM      9  H   UNL     1       8.345   6.384  15.325  0.00  0.00    +0.000 HD
BRANCH   4  11
ATOM     10  C   UNL     1       7.721   8.250  17.602  0.00  0.00    +0.000 C 
ATOM     11  C   UNL     1       7.720   6.791  18.033  0.00  0.00    +0.000 C 
ENDBRANCH   4  11
ENDBRANCH   3   8
ENDBRANCH   2   3
ENDBRANCH   1   2
BRANCH   1  12
ATOM     12  C   UNL     1       2.074   2.765  17.869  0.00  0.00    +0.000 C 
BRANCH  12  13
ATOM     13  C   UNL     1       2.919   2.035  18.892  0.00  0.00    +0.000 C 
ATOM     14  N   UNL     1       3.945   1.295  18.641  0.00  0.00    +0.000 NA
ATOM     15  N   UNL     1       2.603   2.132  20.218  0.00  0.00    +0.000 N 
ATOM     16  C   UNL     1       1.570   2.814  20.804  0.00  0.00    +0.000 C 
ATOM     17  N   UNL     1       1.542   2.691  22.157  0.00  0.00    +0.000 N 
ATOM     18  O   UNL     1       0.734   3.513  20.244  0.00  0.00    +0.000 OA
ATOM     19  H   UNL     1       4.089   1.225  17.623  0.00  0.00    +0.000 HD
ATOM     20  H   UNL     1       3.212   1.581  20.805  0.00  0.00    +0.000 HD
ATOM     21  H   UNL     1       2.093   2.014  22.663  0.00  0.00    +0.000 HD
ATOM     22  H   UNL     1       0.764   3.129  22.629  0.00  0.00    +0.000 HD
ENDBRANCH  12  13
ENDBRANCH   1  12
TORSDOF 6
ENDMDL
MODEL 6
REMARK VINA RESULT:      -6.2      2.704      4.088
REMARK  Name = 
REMARK  7 active torsions:
REMARK  status: ('A' for Active; 'I' for Inactive)
REMARK    1  A    between atoms: C_1  and  C_2
REMARK    2  A    between atoms: C_2  and  C_3
REMARK    3  A    between atoms: C_7  and  C_8
REMARK    4  A    between atoms: C_8  and  S_9
REMARK    5  A    between atoms: S_9  and  C_10
REMARK    6  A    between atoms: C_10  and  C_11
REMARK    7  A    between atoms: C_11  and  C_12
REMARK                            x       y       z     vdW  Elec       q    Type
REMARK                         _______ _______ _______ _____ _____    ______ ____
ROOT
ATOM      1  C   UNL     1       4.731   4.140  16.244  0.00  0.00    +0.000 C 
ENDROOT
BRANCH   1   2
ATOM      2  S   UNL     1       3.796   3.276  17.558  0.00  0.00    +0.000 S 
BRANCH   2   3
ATOM      3  C   UNL     1       2.300   4.309  17.599  0.00  0.00    +0.000 C 
BRANCH   3   8
ATOM      4  C   UNL     1       2.467   6.515  18.975  0.00  0.00    +0.000 A 
ATOM      5  N   UNL     1       2.211   6.770  20.300  0.00  0.00    +0.000 N 
ATOM      6  C   UNL     1       1.859   5.593  20.891  0.00  0.00    +0.000 A 
ATOM      7  N   UNL     1       1.836   4.609  20.025  0.00  0.00    +0.000 NA
ATOM      8  C   UNL     1       2.215   5.162  18.818  0.00  0.00    +0.000 A 
ATOM      9  H   UNL     1       2.282   7.666  20.762  0.00  0.00    +0.000 HD
BRANCH   4  11
ATOM     10  C   UNL     1       1.878   8.663  17.871  0.00  0.00    +0.000 C 
ATOM     11  C   UNL     1       2.923   7.568  18.029  0.00  0.00    +0.000 C 
ENDBRANCH   4  11
ENDBRANCH   3   8
ENDBRANCH   2   3
ENDBRANCH   1   2
BRANCH   1  12
ATOM     12  C   UNL     1       5.384   5.405  16.775  0.00  0.00    +0.000 C 
BRANCH  12  13
ATOM     13  C   UNL     1       6.892   5.493  16.661  0.00  0.00    +0.000 C 
ATOM     14  N   UNL     1       7.570   5.529  15.564  0.00  0.00    +0.000 NA
ATOM     15  N   UNL     1       7.650   5.537  17.797  0.00  0.00    +0.000 N 
ATOM     16  C   UNL     1       7.240   5.495  19.102  0.00  0.00    +0.000 C 
ATOM     17  N   UNL     1       8.266   5.550  19.991  0.00  0.00    +0.000 N 
ATOM     18  O   UNL     1       6.087   5.445  19.512  0.00  0.00    +0.000 OA
ATOM     19  H   UNL     1       6.938   5.437  14.755  0.00  0.00    +0.000 HD
ATOM     20  H   UNL     1       8.641   5.562  17.603  0.00  0.00    +0.000 HD
ATOM     21  H   UNL     1       9.233   5.432  19.729  0.00  0.00    +0.000 HD
ATOM     22  H   UNL     1       8.016   5.463  20.966  0.00  0.00    +0.000 HD
ENDBRANCH  12  13
ENDBRANCH   1  12
TORSDOF 6
ENDMDL
MODEL 7
REMARK VINA RESULT:      -6.2      1.963      5.123
REMARK  Name = 
REMARK  7 active torsions:
REMARK  status: ('A' for Active; 'I' for Inactive)
REMARK    1  A    between atoms: C_1  and  C_2
REMARK    2  A    between atoms: C_2  and  C_3
REMARK    3  A    between atoms: C_7  and  C_8
REMARK    4  A    between atoms: C_8  and  S_9
REMARK    5  A    between atoms: S_9  and  C_10
REMARK    6  A    between atoms: C_10  and  C_11
REMARK    7  A    between atoms: C_11  and  C_12
REMARK                            x       y       z     vdW  Elec       q    Type
REMARK                         _______ _______ _______ _____ _____    ______ ____
ROOT
ATOM      1  C   UNL     1       2.002   5.374  17.979  0.00  0.00    +0.000 C 
ENDROOT
BRANCH   1   2
ATOM      2  S   UNL     1       3.562   6.040  18.665  0.00  0.00    +0.000 S 
BRANCH   2   3
ATOM      3  C   UNL     1       4.344   6.628  17.132  0.00  0.00    +0.000 C 
BRANCH   3   8
ATOM      4  C   UNL     1       6.787   5.727  17.032  0.00  0.00    +0.000 A 
ATOM      5  N   UNL     1       7.337   4.697  16.310  0.00  0.00    +0.000 N 
ATOM      6  C   UNL     1       6.354   4.163  15.529  0.00  0.00    +0.000 A 
ATOM      7  N   UNL     1       5.204   4.759  15.731  0.00  0.00    +0.000 NA
ATOM      8  C   UNL     1       5.450   5.743  16.667  0.00  0.00    +0.000 A 
ATOM      9  H   UNL     1       8.300   4.392  16.338  0.00  0.00    +0.000 HD
BRANCH   4  11
ATOM     10  C   UNL     1       7.838   5.852  19.281  0.00  0.00    +0.000 C 
ATOM     11  C   UNL     1       7.585   6.569  17.963  0.00  0.00    +0.000 C 
ENDBRANCH   4  11
ENDBRANCH   3   8
ENDBRANCH   2   3
ENDBRANCH   1   2
BRANCH   1  12
ATOM     12  C   UNL     1       1.928   3.865  18.143  0.00  0.00    +0.000 C 
BRANCH  12  13
ATOM     13  C   UNL     1       1.848   3.336  19.560  0.00  0.00    +0.000 C 
ATOM     14  N   UNL     1       0.835   3.437  20.353  0.00  0.00    +0.000 NA
ATOM     15  N   UNL     1       2.924   2.689  20.098  0.00  0.00    +0.000 N 
ATOM     16  C   UNL     1       4.146   2.441  19.531  0.00  0.00    +0.000 C 
ATOM     17  N   UNL     1       4.997   1.776  20.355  0.00  0.00    +0.000 N 
ATOM     18  O   UNL     1       4.503   2.726  18.394  0.00  0.00    +0.000 OA
ATOM     19  H   UNL     1       0.086   3.981  19.900  0.00  0.00    +0.000 HD
ATOM     20  H   UNL     1       2.771   2.409  21.056  0.00  0.00    +0.000 HD
ATOM     21  H   UNL     1       4.830   1.653  21.342  0.00  0.00    +0.000 HD
ATOM     22  H   UNL     1       5.931   1.621  20.001  0.00  0.00    +0.000 HD
ENDBRANCH  12  13
ENDBRANCH   1  12
TORSDOF 6
ENDMDL
MODEL 8
REMARK VINA RESULT:      -6.1      2.608      5.899
REMARK  Name = 
REMARK  7 active torsions:
REMARK  status: ('A' for Active; 'I' for Inactive)
REMARK    1  A    between atoms: C_1  and  C_2
REMARK    2  A    between atoms: C_2  and  C_3
REMARK    3  A    between atoms: C_7  and  C_8
REMARK    4  A    between atoms: C_8  and  S_9
REMARK    5  A    between atoms: S_9  and  C_10
REMARK    6  A    between atoms: C_10  and  C_11
REMARK    7  A    between atoms: C_11  and  C_12
REMARK                            x       y       z     vdW  Elec       q    Type
REMARK                         _______ _______ _______ _____ _____    ______ ____
ROOT
ATOM      1  C   UNL     1       4.990   3.615  18.700  0.00  0.00    +0.000 C 
ENDROOT
BRANCH   1   2
ATOM      2  S   UNL     1       4.290   5.258  19.096  0.00  0.00    +0.000 S 
BRANCH   2   3
ATOM      3  C   UNL     1       4.173   5.952  17.419  0.00  0.00    +0.000 C 
BRANCH   3   8
ATOM      4  C   UNL     1       6.677   6.104  16.713  0.00  0.00    +0.000 A 
ATOM      5  N   UNL     1       7.359   5.502  15.684  0.00  0.00    +0.000 N 
ATOM      6  C   UNL     1       6.466   4.764  14.966  0.00  0.00    +0.000 A 
ATOM      7  N   UNL     1       5.265   4.823  15.489  0.00  0.00    +0.000 NA
ATOM      8  C   UNL     1       5.372   5.658  16.583  0.00  0.00    +0.000 A 
ATOM      9  H   UNL     1       8.346   5.597  15.483  0.00  0.00    +0.000 HD
BRANCH   4  11
ATOM     10  C   UNL     1       7.917   6.267  18.861  0.00  0.00    +0.000 C 
ATOM     11  C   UNL     1       7.333   7.025  17.679  0.00  0.00    +0.000 C 
ENDBRANCH   4  11
ENDBRANCH   3   8
ENDBRANCH   2   3
ENDBRANCH   1   2
BRANCH   1  12
ATOM     12  C   UNL     1       4.081   2.498  19.186  0.00  0.00    +0.000 C 
BRANCH  12  13
ATOM     13  C   UNL     1       2.596   2.674  18.947  0.00  0.00    +0.000 C 
ATOM     14  N   UNL     1       2.023   2.820  17.801  0.00  0.00    +0.000 NA
ATOM     15  N   UNL     1       1.741   2.691  20.013  0.00  0.00    +0.000 N 
ATOM     16  C   UNL     1       2.033   2.584  21.347  0.00  0.00    +0.000 C 
ATOM     17  N   UNL     1       0.936   2.650  22.145  0.00  0.00    +0.000 N 
ATOM     18  O   UNL     1       3.137   2.412  21.849  0.00  0.00    +0.000 OA
ATOM     19  H   UNL     1       2.732   2.852  17.054  0.00  0.00    +0.000 HD
ATOM     20  H   UNL     1       0.782   2.846  19.740  0.00  0.00    +0.000 HD
ATOM     21  H   UNL     1       0.028   2.946  21.817  0.00  0.00    +0.000 HD
ATOM     22  H   UNL     1       1.107   2.634  23.140  0.00  0.00    +0.000 HD
ENDBRANCH  12  13
ENDBRANCH   1  12
TORSDOF 6
ENDMDL
MODEL 9
REMARK VINA RESULT:      -6.1      2.328      5.961
REMARK  Name = 
REMARK  7 active torsions:
REMARK  status: ('A' for Active; 'I' for Inactive)
REMARK    1  A    between atoms: C_1  and  C_2
REMARK    2  A    between atoms: C_2  and  C_3
REMARK    3  A    between atoms: C_7  and  C_8
REMARK    4  A    between atoms: C_8  and  S_9
REMARK    5  A    between atoms: S_9  and  C_10
REMARK    6  A    between atoms: C_10  and  C_11
REMARK    7  A    between atoms: C_11  and  C_12
REMARK                            x       y       z     vdW  Elec       q    Type
REMARK                         _______ _______ _______ _____ _____    ______ ____
ROOT
ATOM      1  C   UNL     1       3.174   4.670  17.762  0.00  0.00    +0.000 C 
ENDROOT
BRANCH   1   2
ATOM      2  S   UNL     1       3.423   6.419  18.235  0.00  0.00    +0.000 S 
BRANCH   2   3
ATOM      3  C   UNL     1       4.758   6.861  17.081  0.00  0.00    +0.000 C 
BRANCH   3   8
ATOM      4  C   UNL     1       6.201   4.924  16.101  0.00  0.00    +0.000 A 
ATOM      5  N   UNL     1       7.315   4.293  16.597  0.00  0.00    +0.000 N 
ATOM      6  C   UNL     1       7.588   4.829  17.821  0.00  0.00    +0.000 A 
ATOM      7  N   UNL     1       6.745   5.786  18.124  0.00  0.00    +0.000 NA
ATOM      8  C   UNL     1       5.865   5.863  17.063  0.00  0.00    +0.000 A 
ATOM      9  H   UNL     1       7.836   3.554  16.146  0.00  0.00    +0.000 HD
BRANCH   4  11
ATOM     10  C   UNL     1       6.648   4.196  13.767  0.00  0.00    +0.000 C 
ATOM     11  C   UNL     1       5.588   4.561  14.796  0.00  0.00    +0.000 C 
ENDBRANCH   4  11
ENDBRANCH   3   8
ENDBRANCH   2   3
ENDBRANCH   1   2
BRANCH   1  12
ATOM     12  C   UNL     1       1.815   4.165  18.219  0.00  0.00    +0.000 C 
BRANCH  12  13
ATOM     13  C   UNL     1       1.731   2.709  18.628  0.00  0.00    +0.000 C 
ATOM     14  N   UNL     1       1.724   1.695  17.831  0.00  0.00    +0.000 NA
ATOM     15  N   UNL     1       1.649   2.387  19.953  0.00  0.00    +0.000 N 
ATOM     16  C   UNL     1       1.612   3.223  21.037  0.00  0.00    +0.000 C 
ATOM     17  N   UNL     1       1.518   2.566  22.222  0.00  0.00    +0.000 N 
ATOM     18  O   UNL     1       1.683   4.446  21.028  0.00  0.00    +0.000 OA
ATOM     19  H   UNL     1       1.733   2.016  16.852  0.00  0.00    +0.000 HD
ATOM     20  H   UNL     1       1.566   1.393  20.108  0.00  0.00    +0.000 HD
ATOM     21  H   UNL     1       1.298   1.583  22.295  0.00  0.00    +0.000 HD
ATOM     22  H   UNL     1       1.429   3.142  23.047  0.00  0.00    +0.000 HD
ENDBRANCH  12  13
ENDBRANCH   1  12
TORSDOF 6
ENDMDL
