MODEL 1
REMARK VINA RESULT:      -8.3      0.000      0.000
REMARK  Name = 
REMARK  7 active torsions:
REMARK  status: ('A' for Active; 'I' for Inactive)
REMARK    1  A    between atoms: C_1  and  C_2
REMARK    2  A    between atoms: C_2  and  C_3
REMARK    3  A    between atoms: C_3  and  N_4
REMARK    4  A    between atoms: C_5  and  C_6
REMARK    5  A    between atoms: C_17  and  C_18
REMARK    6  A    between atoms: N_20  and  N_21
REMARK    7  A    between atoms: C_22  and  C_23
REMARK                            x       y       z     vdW  Elec       q    Type
REMARK                         _______ _______ _______ _____ _____    ______ ____
ROOT
ATOM      1  N   UNL     1       2.431   6.609  19.830  0.00  0.00    +0.000 N 
ATOM      2  C   UNL     1       2.942   6.953  18.577  0.00  0.00    +0.000 A 
ATOM      3  N   UNL     1       2.457   8.139  18.240  0.00  0.00    +0.000 NA
ATOM      4  C   UNL     1       1.607   8.545  19.232  0.00  0.00    +0.000 A 
ATOM      5  C   UNL     1       0.843   9.719  19.328  0.00  0.00    +0.000 A 
ATOM      6  C   UNL     1       0.029   9.915  20.459  0.00  0.00    +0.000 A 
ATOM      7  C   UNL     1       0.018   8.951  21.481  0.00  0.00    +0.000 A 
ATOM      8  C   UNL     1       0.781   7.779  21.398  0.00  0.00    +0.000 A 
ATOM      9  C   UNL     1       1.567   7.607  20.249  0.00  0.00    +0.000 A 
ENDROOT
BRANCH   2  10
ATOM     10  C   UNL     1       3.906   6.190  17.732  0.00  0.00    +0.000 A 
ATOM     11  C   UNL     1       5.164   6.724  17.398  0.00  0.00    +0.000 A 
ATOM     12  C   UNL     1       6.061   6.086  16.538  0.00  0.00    +0.000 A 
ATOM     13  C   UNL     1       5.715   4.876  15.966  0.00  0.00    +0.000 A 
ATOM     14 CL   UNL     1       6.797   4.116  14.870  0.00  0.00    +0.000 Cl
ATOM     15  C   UNL     1       4.492   4.295  16.274  0.00  0.00    +0.000 A 
ATOM     16  C   UNL     1       3.596   4.938  17.154  0.00  0.00    +0.000 A 
ATOM     17 CL   UNL     1       2.132   4.070  17.480  0.00  0.00    +0.000 Cl
ENDBRANCH   2  10
BRANCH   6  18
ATOM     18  C   UNL     1      -0.804  11.143  20.636  0.00  0.00    +0.000 C 
ATOM     19  O   UNL     1      -1.107  11.804  19.644  0.00  0.00    +0.000 OA
ATOM     20  N   UNL     1      -1.144  11.463  21.940  0.00  0.00    +0.000 N 
ATOM     21  H   UNL     1      -0.760  10.945  22.726  0.00  0.00    +0.000 HD
BRANCH  20  22
ATOM     22  N   UNL     1      -1.876  12.589  22.194  0.00  0.00    +0.000 NA
ATOM     23  C   UNL     1      -3.116  12.410  22.523  0.00  0.00    +0.000 C 
BRANCH  23  24
ATOM     24  C   UNL     1      -3.993  13.553  22.859  0.00  0.00    +0.000 A 
ATOM     25  C   UNL     1      -3.517  14.866  22.753  0.00  0.00    +0.000 A 
ATOM     26  C   UNL     1      -4.331  15.937  23.126  0.00  0.00    +0.000 A 
ATOM     27  C   UNL     1      -5.619  15.697  23.606  0.00  0.00    +0.000 A 
ATOM     28  C   UNL     1      -6.092  14.388  23.696  0.00  0.00    +0.000 A 
ATOM     29 CL   UNL     1      -7.679  14.100  24.297  0.00  0.00    +0.000 Cl
ATOM     30  C   UNL     1      -5.289  13.311  23.319  0.00  0.00    +0.000 A 
ENDBRANCH  23  24
ENDBRANCH  20  22
ENDBRANCH   6  18
BRANCH   1  31
ATOM     31  C   UNL     1       2.667   5.397  20.597  0.00  0.00    +0.000 C 
BRANCH  31  33
ATOM     32  C   UNL     1       1.780   3.153  21.307  0.00  0.00    +0.000 C 
ATOM     33  C   UNL     1       1.426   4.500  20.698  0.00  0.00    +0.000 C 
ENDBRANCH  31  33
ENDBRANCH   1  31
TORSDOF 6
ENDMDL
MODEL 2
REMARK VINA RESULT:      -8.3      1.081      1.316
REMARK  Name = 
REMARK  7 active torsions:
REMARK  status: ('A' for Active; 'I' for Inactive)
REMARK    1  A    between atoms: C_1  and  C_2
REMARK    2  A    between atoms: C_2  and  C_3
REMARK    3  A    between atoms: C_3  and  N_4
REMARK    4  A    between atoms: C_5  and  C_6
REMARK    5  A    between atoms: C_17  and  C_18
REMARK    6  A    between atoms: N_20  and  N_21
REMARK    7  A    between atoms: C_22  and  C_23
REMARK                            x       y       z     vdW  Elec       q    Type
REMARK                         _______ _______ _______ _____ _____    ______ ____
ROOT
ATOM      1  N   UNL     1       2.494   6.432  19.860  0.00  0.00    +0.000 N 
ATOM      2  C   UNL     1       2.982   6.802  18.605  0.00  0.00    +0.000 A 
ATOM      3  N   UNL     1       2.507   8.003  18.310  0.00  0.00    +0.000 NA
ATOM      4  C   UNL     1       1.685   8.395  19.331  0.00  0.00    +0.000 A 
ATOM      5  C   UNL     1       0.942   9.577  19.476  0.00  0.00    +0.000 A 
ATOM      6  C   UNL     1       0.156   9.755  20.629  0.00  0.00    +0.000 A 
ATOM      7  C   UNL     1       0.153   8.764  21.626  0.00  0.00    +0.000 A 
ATOM      8  C   UNL     1       0.897   7.584  21.494  0.00  0.00    +0.000 A 
ATOM      9  C   UNL     1       1.655   7.431  20.325  0.00  0.00    +0.000 A 
ENDROOT
BRANCH   2  10
ATOM     10  C   UNL     1       3.915   6.048  17.719  0.00  0.00    +0.000 A 
ATOM     11  C   UNL     1       5.171   6.574  17.366  0.00  0.00    +0.000 A 
ATOM     12  C   UNL     1       6.040   5.947  16.469  0.00  0.00    +0.000 A 
ATOM     13  C   UNL     1       5.665   4.755  15.878  0.00  0.00    +0.000 A 
ATOM     14 CL   UNL     1       6.710   4.008  14.738  0.00  0.00    +0.000 Cl
ATOM     15  C   UNL     1       4.442   4.181  16.203  0.00  0.00    +0.000 A 
ATOM     16  C   UNL     1       3.576   4.813  17.119  0.00  0.00    +0.000 A 
ATOM     17 CL   UNL     1       2.110   3.955  17.462  0.00  0.00    +0.000 Cl
ENDBRANCH   2  10
BRANCH   6  18
ATOM     18  C   UNL     1      -0.655  10.989  20.857  0.00  0.00    +0.000 C 
ATOM     19  O   UNL     1      -1.012  11.653  19.885  0.00  0.00    +0.000 OA
ATOM     20  N   UNL     1      -0.911  11.312  22.179  0.00  0.00    +0.000 N 
ATOM     21  H   UNL     1      -0.483  10.790  22.940  0.00  0.00    +0.000 HD
BRANCH  20  22
ATOM     22  N   UNL     1      -1.617  12.443  22.478  0.00  0.00    +0.000 NA
ATOM     23  C   UNL     1      -2.777  12.273  23.027  0.00  0.00    +0.000 C 
BRANCH  23  24
ATOM     24  C   UNL     1      -3.612  13.425  23.431  0.00  0.00    +0.000 A 
ATOM     25  C   UNL     1      -4.975  13.458  23.111  0.00  0.00    +0.000 A 
ATOM     26  C   UNL     1      -5.745  14.573  23.445  0.00  0.00    +0.000 A 
ATOM     27  C   UNL     1      -5.154  15.656  24.097  0.00  0.00    +0.000 A 
ATOM     28  C   UNL     1      -3.799  15.611  24.426  0.00  0.00    +0.000 A 
ATOM     29 CL   UNL     1      -3.075  16.955  25.223  0.00  0.00    +0.000 Cl
ATOM     30  C   UNL     1      -3.022  14.498  24.103  0.00  0.00    +0.000 A 
ENDBRANCH  23  24
ENDBRANCH  20  22
ENDBRANCH   6  18
BRANCH   1  31
ATOM     31  C   UNL     1       2.729   5.197  20.589  0.00  0.00    +0.000 C 
BRANCH  31  33
ATOM     32  C   UNL     1       1.792   2.999  21.373  0.00  0.00    +0.000 C 
ATOM     33  C   UNL     1       1.463   4.345  20.748  0.00  0.00    +0.000 C 
ENDBRANCH  31  33
ENDBRANCH   1  31
TORSDOF 6
ENDMDL
MODEL 3
REMARK VINA RESULT:      -8.1      2.467      3.430
REMARK  Name = 
REMARK  7 active torsions:
REMARK  status: ('A' for Active; 'I' for Inactive)
REMARK    1  A    between atoms: C_1  and  C_2
REMARK    2  A    between atoms: C_2  and  C_3
REMARK    3  A    between atoms: C_3  and  N_4
REMARK    4  A    between atoms: C_5  and  C_6
REMARK    5  A    between atoms: C_17  and  C_18
REMARK    6  A    between atoms: N_20  and  N_21
REMARK    7  A    between atoms: C_22  and  C_23
REMARK                            x       y       z     vdW  Elec       q    Type
REMARK                         _______ _______ _______ _____ _____    ______ ____
ROOT
ATOM      1  N   UNL     1       3.770   4.769  18.512  0.00  0.00    +0.000 N 
ATOM      2  C   UNL     1       4.176   5.672  17.527  0.00  0.00    +0.000 A 
ATOM      3  N   UNL     1       3.653   6.857  17.806  0.00  0.00    +0.000 NA
ATOM      4  C   UNL     1       2.880   6.724  18.927  0.00  0.00    +0.000 A 
ATOM      5  C   UNL     1       2.115   7.687  19.603  0.00  0.00    +0.000 A 
ATOM      6  C   UNL     1       1.391   7.306  20.748  0.00  0.00    +0.000 A 
ATOM      7  C   UNL     1       1.472   5.981  21.211  0.00  0.00    +0.000 A 
ATOM      8  C   UNL     1       2.239   5.014  20.547  0.00  0.00    +0.000 A 
ATOM      9  C   UNL     1       2.932   5.423  19.399  0.00  0.00    +0.000 A 
ENDROOT
BRANCH   2  10
ATOM     10  C   UNL     1       5.077   5.426  16.364  0.00  0.00    +0.000 A 
ATOM     11  C   UNL     1       4.643   4.687  15.248  0.00  0.00    +0.000 A 
ATOM     12  C   UNL     1       5.478   4.357  14.177  0.00  0.00    +0.000 A 
ATOM     13  C   UNL     1       6.801   4.754  14.197  0.00  0.00    +0.000 A 
ATOM     14 CL   UNL     1       7.841   4.306  12.905  0.00  0.00    +0.000 Cl
ATOM     15  C   UNL     1       7.280   5.500  15.267  0.00  0.00    +0.000 A 
ATOM     16  C   UNL     1       6.428   5.842  16.338  0.00  0.00    +0.000 A 
ATOM     17 CL   UNL     1       7.152   6.815  17.575  0.00  0.00    +0.000 Cl
ENDBRANCH   2  10
BRANCH   6  18
ATOM     18  C   UNL     1       0.562   8.276  21.525  0.00  0.00    +0.000 C 
ATOM     19  O   UNL     1      -0.636   8.042  21.681  0.00  0.00    +0.000 OA
ATOM     20  N   UNL     1       1.219   9.406  21.984  0.00  0.00    +0.000 N 
ATOM     21  H   UNL     1       2.181   9.600  21.716  0.00  0.00    +0.000 HD
BRANCH  20  22
ATOM     22  N   UNL     1       0.527  10.361  22.674  0.00  0.00    +0.000 NA
ATOM     23  C   UNL     1      -0.313  11.072  21.992  0.00  0.00    +0.000 C 
BRANCH  23  24
ATOM     24  C   UNL     1      -1.147  12.107  22.641  0.00  0.00    +0.000 A 
ATOM     25  C   UNL     1      -2.409  11.781  23.154  0.00  0.00    +0.000 A 
ATOM     26  C   UNL     1      -3.214  12.774  23.714  0.00  0.00    +0.000 A 
ATOM     27  C   UNL     1      -2.760  14.092  23.762  0.00  0.00    +0.000 A 
ATOM     28  C   UNL     1      -1.496  14.409  23.264  0.00  0.00    +0.000 A 
ATOM     29 CL   UNL     1      -0.946  16.039  23.319  0.00  0.00    +0.000 Cl
ATOM     30  C   UNL     1      -0.680  13.422  22.707  0.00  0.00    +0.000 A 
ENDBRANCH  23  24
ENDBRANCH  20  22
ENDBRANCH   6  18
BRANCH   1  31
ATOM     31  C   UNL     1       4.079   3.353  18.617  0.00  0.00    +0.000 C 
BRANCH  31  33
ATOM     32  C   UNL     1       2.051   1.875  18.768  0.00  0.00    +0.000 C 
ATOM     33  C   UNL     1       3.099   2.465  17.839  0.00  0.00    +0.000 C 
ENDBRANCH  31  33
ENDBRANCH   1  31
TORSDOF 6
ENDMDL
MODEL 4
REMARK VINA RESULT:      -8.1      2.724      3.136
REMARK  Name = 
REMARK  7 active torsions:
REMARK  status: ('A' for Active; 'I' for Inactive)
REMARK    1  A    between atoms: C_1  and  C_2
REMARK    2  A    between atoms: C_2  and  C_3
REMARK    3  A    between atoms: C_3  and  N_4
REMARK    4  A    between atoms: C_5  and  C_6
REMARK    5  A    between atoms: C_17  and  C_18
REMARK    6  A    between atoms: N_20  and  N_21
REMARK    7  A    between atoms: C_22  and  C_23
REMARK                            x       y       z     vdW  Elec       q    Type
REMARK                         _______ _______ _______ _____ _____    ______ ____
ROOT
ATOM      1  N   UNL     1       2.347   6.648  19.922  0.00  0.00    +0.000 N 
ATOM      2  C   UNL     1       2.886   6.907  18.660  0.00  0.00    +0.000 A 
ATOM      3  N   UNL     1       2.502   8.118  18.284  0.00  0.00    +0.000 NA
ATOM      4  C   UNL     1       1.689   8.626  19.259  0.00  0.00    +0.000 A 
ATOM      5  C   UNL     1       1.027   9.862  19.315  0.00  0.00    +0.000 A 
ATOM      6  C   UNL     1       0.231  10.162  20.436  0.00  0.00    +0.000 A 
ATOM      7  C   UNL     1       0.138   9.235  21.489  0.00  0.00    +0.000 A 
ATOM      8  C   UNL     1       0.800   8.002  21.446  0.00  0.00    +0.000 A 
ATOM      9  C   UNL     1       1.570   7.727  20.306  0.00  0.00    +0.000 A 
ENDROOT
BRANCH   2  10
ATOM     10  C   UNL     1       3.783   6.039  17.843  0.00  0.00    +0.000 A 
ATOM     11  C   UNL     1       5.099   6.434  17.537  0.00  0.00    +0.000 A 
ATOM     12  C   UNL     1       5.944   5.697  16.703  0.00  0.00    +0.000 A 
ATOM     13  C   UNL     1       5.484   4.527  16.129  0.00  0.00    +0.000 A 
ATOM     14 CL   UNL     1       6.505   3.647  15.064  0.00  0.00    +0.000 Cl
ATOM     15  C   UNL     1       4.199   4.081  16.410  0.00  0.00    +0.000 A 
ATOM     16  C   UNL     1       3.356   4.822  17.265  0.00  0.00    +0.000 A 
ATOM     17 CL   UNL     1       1.800   4.118  17.559  0.00  0.00    +0.000 Cl
ENDBRANCH   2  10
BRANCH   6  18
ATOM     18  C   UNL     1      -0.497  11.460  20.571  0.00  0.00    +0.000 C 
ATOM     19  O   UNL     1      -1.375  11.563  21.427  0.00  0.00    +0.000 OA
ATOM     20  N   UNL     1      -0.139  12.453  19.674  0.00  0.00    +0.000 N 
ATOM     21  H   UNL     1       0.507  12.265  18.912  0.00  0.00    +0.000 HD
BRANCH  20  22
ATOM     22  N   UNL     1      -0.779  13.660  19.706  0.00  0.00    +0.000 NA
ATOM     23  C   UNL     1      -0.150  14.662  19.180  0.00  0.00    +0.000 C 
BRANCH  23  24
ATOM     24  C   UNL     1      -0.762  16.008  19.121  0.00  0.00    +0.000 A 
ATOM     25  C   UNL     1      -0.439  16.888  18.081  0.00  0.00    +0.000 A 
ATOM     26  C   UNL     1      -0.976  18.175  18.062  0.00  0.00    +0.000 A 
ATOM     27  C   UNL     1      -1.835  18.586  19.082  0.00  0.00    +0.000 A 
ATOM     28  C   UNL     1      -2.164  17.700  20.108  0.00  0.00    +0.000 A 
ATOM     29 CL   UNL     1      -3.218  18.216  21.368  0.00  0.00    +0.000 Cl
ATOM     30  C   UNL     1      -1.638  16.407  20.133  0.00  0.00    +0.000 A 
ENDBRANCH  23  24
ENDBRANCH  20  22
ENDBRANCH   6  18
BRANCH   1  31
ATOM     31  C   UNL     1       2.480   5.445  20.728  0.00  0.00    +0.000 C 
BRANCH  31  33
ATOM     32  C   UNL     1       1.540   3.179  21.280  0.00  0.00    +0.000 C 
ATOM     33  C   UNL     1       1.250   4.532  20.650  0.00  0.00    +0.000 C 
ENDBRANCH  31  33
ENDBRANCH   1  31
TORSDOF 6
ENDMDL
MODEL 5
REMARK VINA RESULT:      -7.7      1.696      1.863
REMARK  Name = 
REMARK  7 active torsions:
REMARK  status: ('A' for Active; 'I' for Inactive)
REMARK    1  A    between atoms: C_1  and  C_2
REMARK    2  A    between atoms: C_2  and  C_3
REMARK    3  A    between atoms: C_3  and  N_4
REMARK    4  A    between atoms: C_5  and  C_6
REMARK    5  A    between atoms: C_17  and  C_18
REMARK    6  A    between atoms: N_20  and  N_21
REMARK    7  A    between atoms: C_22  and  C_23
REMARK                            x       y       z     vdW  Elec       q    Type
REMARK                         _______ _______ _______ _____ _____    ______ ____
ROOT
ATOM      1  N   UNL     1       2.600   6.576  19.701  0.00  0.00    +0.000 N 
ATOM      2  C   UNL     1       3.087   6.967  18.453  0.00  0.00    +0.000 A 
ATOM      3  N   UNL     1       2.598   8.166  18.170  0.00  0.00    +0.000 NA
ATOM      4  C   UNL     1       1.767   8.535  19.193  0.00  0.00    +0.000 A 
ATOM      5  C   UNL     1       1.008   9.705  19.349  0.00  0.00    +0.000 A 
ATOM      6  C   UNL     1       0.216   9.858  20.501  0.00  0.00    +0.000 A 
ATOM      7  C   UNL     1       0.222   8.856  21.486  0.00  0.00    +0.000 A 
ATOM      8  C   UNL     1       0.982   7.687  21.343  0.00  0.00    +0.000 A 
ATOM      9  C   UNL     1       1.746   7.558  20.174  0.00  0.00    +0.000 A 
ENDROOT
BRANCH   2  10
ATOM     10  C   UNL     1       4.034   6.237  17.561  0.00  0.00    +0.000 A 
ATOM     11  C   UNL     1       5.240   6.825  17.138  0.00  0.00    +0.000 A 
ATOM     12  C   UNL     1       6.113   6.216  16.234  0.00  0.00    +0.000 A 
ATOM     13  C   UNL     1       5.793   4.979  15.706  0.00  0.00    +0.000 A 
ATOM     14 CL   UNL     1       6.842   4.252  14.556  0.00  0.00    +0.000 Cl
ATOM     15  C   UNL     1       4.623   4.344  16.101  0.00  0.00    +0.000 A 
ATOM     16  C   UNL     1       3.753   4.959  17.025  0.00  0.00    +0.000 A 
ATOM     17 CL   UNL     1       2.358   4.027  17.458  0.00  0.00    +0.000 Cl
ENDBRANCH   2  10
BRANCH   6  18
ATOM     18  C   UNL     1      -0.612  11.079  20.741  0.00  0.00    +0.000 C 
ATOM     19  O   UNL     1      -0.764  11.884  19.823  0.00  0.00    +0.000 OA
ATOM     20  N   UNL     1      -1.122  11.225  22.020  0.00  0.00    +0.000 N 
ATOM     21  H   UNL     1      -0.859  10.588  22.767  0.00  0.00    +0.000 HD
BRANCH  20  22
ATOM     22  N   UNL     1      -1.862  12.330  22.334  0.00  0.00    +0.000 NA
ATOM     23  C   UNL     1      -1.281  13.227  23.065  0.00  0.00    +0.000 C 
BRANCH  23  24
ATOM     24  C   UNL     1      -1.971  14.483  23.434  0.00  0.00    +0.000 A 
ATOM     25  C   UNL     1      -2.755  14.546  24.593  0.00  0.00    +0.000 A 
ATOM     26  C   UNL     1      -3.448  15.716  24.904  0.00  0.00    +0.000 A 
ATOM     27  C   UNL     1      -3.360  16.823  24.059  0.00  0.00    +0.000 A 
ATOM     28  C   UNL     1      -2.566  16.759  22.914  0.00  0.00    +0.000 A 
ATOM     29 CL   UNL     1      -2.469  18.125  21.872  0.00  0.00    +0.000 Cl
ATOM     30  C   UNL     1      -1.863  15.595  22.597  0.00  0.00    +0.000 A 
ENDBRANCH  23  24
ENDBRANCH  20  22
ENDBRANCH   6  18
BRANCH   1  31
ATOM     31  C   UNL     1       2.848   5.336  20.416  0.00  0.00    +0.000 C 
BRANCH  31  33
ATOM     32  C   UNL     1       1.881   3.219  21.370  0.00  0.00    +0.000 C 
ATOM     33  C   UNL     1       1.561   4.577  20.766  0.00  0.00    +0.000 C 
ENDBRANCH  31  33
ENDBRANCH   1  31
TORSDOF 6
ENDMDL
MODEL 6
REMARK VINA RESULT:      -7.7      2.529     11.796
REMARK  Name = 
REMARK  7 active torsions:
REMARK  status: ('A' for Active; 'I' for Inactive)
REMARK    1  A    between atoms: C_1  and  C_2
REMARK    2  A    between atoms: C_2  and  C_3
REMARK    3  A    between atoms: C_3  and  N_4
REMARK    4  A    between atoms: C_5  and  C_6
REMARK    5  A    between atoms: C_17  and  C_18
REMARK    6  A    between atoms: N_20  and  N_21
REMARK    7  A    between atoms: C_22  and  C_23
REMARK                            x       y       z     vdW  Elec       q    Type
REMARK                         _______ _______ _______ _____ _____    ______ ____
ROOT
ATOM      1  N   UNL     1      -4.120  12.243  19.182  0.00  0.00    +0.000 N 
ATOM      2  C   UNL     1      -3.810  13.062  20.269  0.00  0.00    +0.000 A 
ATOM      3  N   UNL     1      -2.510  12.965  20.508  0.00  0.00    +0.000 NA
ATOM      4  C   UNL     1      -1.985  12.063  19.623  0.00  0.00    +0.000 A 
ATOM      5  C   UNL     1      -0.663  11.613  19.486  0.00  0.00    +0.000 A 
ATOM      6  C   UNL     1      -0.361  10.666  18.491  0.00  0.00    +0.000 A 
ATOM      7  C   UNL     1      -1.379  10.213  17.634  0.00  0.00    +0.000 A 
ATOM      8  C   UNL     1      -2.701  10.661  17.758  0.00  0.00    +0.000 A 
ATOM      9  C   UNL     1      -2.970  11.590  18.773  0.00  0.00    +0.000 A 
ENDROOT
BRANCH   2  10
ATOM     10  C   UNL     1      -4.722  13.953  21.044  0.00  0.00    +0.000 A 
ATOM     11  C   UNL     1      -5.402  15.018  20.424  0.00  0.00    +0.000 A 
ATOM     12  C   UNL     1      -6.194  15.931  21.124  0.00  0.00    +0.000 A 
ATOM     13  C   UNL     1      -6.324  15.810  22.495  0.00  0.00    +0.000 A 
ATOM     14 CL   UNL     1      -7.257  16.962  23.363  0.00  0.00    +0.000 Cl
ATOM     15  C   UNL     1      -5.688  14.768  23.157  0.00  0.00    +0.000 A 
ATOM     16  C   UNL     1      -4.900  13.841  22.442  0.00  0.00    +0.000 A 
ATOM     17 CL   UNL     1      -4.209  12.569  23.395  0.00  0.00    +0.000 Cl
ENDBRANCH   2  10
BRANCH   6  18
ATOM     18  C   UNL     1       1.024  10.147  18.279  0.00  0.00    +0.000 C 
ATOM     19  O   UNL     1       1.965  10.939  18.301  0.00  0.00    +0.000 OA
ATOM     20  N   UNL     1       1.132   8.788  18.033  0.00  0.00    +0.000 N 
ATOM     21  H   UNL     1       0.306   8.209  17.907  0.00  0.00    +0.000 HD
BRANCH  20  22
ATOM     22  N   UNL     1       2.359   8.237  17.795  0.00  0.00    +0.000 NA
ATOM     23  C   UNL     1       2.452   6.952  17.930  0.00  0.00    +0.000 C 
BRANCH  23  24
ATOM     24  C   UNL     1       3.721   6.242  17.659  0.00  0.00    +0.000 A 
ATOM     25  C   UNL     1       3.736   4.848  17.519  0.00  0.00    +0.000 A 
ATOM     26  C   UNL     1       4.944   4.179  17.319  0.00  0.00    +0.000 A 
ATOM     27  C   UNL     1       6.137   4.899  17.261  0.00  0.00    +0.000 A 
ATOM     28  C   UNL     1       6.114   6.289  17.386  0.00  0.00    +0.000 A 
ATOM     29 CL   UNL     1       7.592   7.170  17.321  0.00  0.00    +0.000 Cl
ATOM     30  C   UNL     1       4.911   6.969  17.579  0.00  0.00    +0.000 A 
ENDBRANCH  23  24
ENDBRANCH  20  22
ENDBRANCH   6  18
BRANCH   1  31
ATOM     31  C   UNL     1      -5.419  12.013  18.570  0.00  0.00    +0.000 C 
BRANCH  31  33
ATOM     32  C   UNL     1      -7.035  11.226  20.328  0.00  0.00    +0.000 C 
ATOM     33  C   UNL     1      -6.155  10.805  19.163  0.00  0.00    +0.000 C 
ENDBRANCH  31  33
ENDBRANCH   1  31
TORSDOF 6
ENDMDL
MODEL 7
REMARK VINA RESULT:      -7.6      2.112      2.941
REMARK  Name = 
REMARK  7 active torsions:
REMARK  status: ('A' for Active; 'I' for Inactive)
REMARK    1  A    between atoms: C_1  and  C_2
REMARK    2  A    between atoms: C_2  and  C_3
REMARK    3  A    between atoms: C_3  and  N_4
REMARK    4  A    between atoms: C_5  and  C_6
REMARK    5  A    between atoms: C_17  and  C_18
REMARK    6  A    between atoms: N_20  and  N_21
REMARK    7  A    between atoms: C_22  and  C_23
REMARK                            x       y       z     vdW  Elec       q    Type
REMARK                         _______ _______ _______ _____ _____    ______ ____
ROOT
ATOM      1  N   UNL     1       3.862   5.136  18.547  0.00  0.00    +0.000 N 
ATOM      2  C   UNL     1       4.199   5.882  17.417  0.00  0.00    +0.000 A 
ATOM      3  N   UNL     1       3.612   7.067  17.508  0.00  0.00    +0.000 NA
ATOM      4  C   UNL     1       2.866   7.080  18.655  0.00  0.00    +0.000 A 
ATOM      5  C   UNL     1       2.055   8.099  19.181  0.00  0.00    +0.000 A 
ATOM      6  C   UNL     1       1.373   7.875  20.390  0.00  0.00    +0.000 A 
ATOM      7  C   UNL     1       1.538   6.652  21.064  0.00  0.00    +0.000 A 
ATOM      8  C   UNL     1       2.350   5.632  20.551  0.00  0.00    +0.000 A 
ATOM      9  C   UNL     1       3.001   5.881  19.334  0.00  0.00    +0.000 A 
ENDROOT
BRANCH   2  10
ATOM     10  C   UNL     1       5.095   5.496  16.288  0.00  0.00    +0.000 A 
ATOM     11  C   UNL     1       4.608   4.771  15.186  0.00  0.00    +0.000 A 
ATOM     12  C   UNL     1       5.426   4.311  14.151  0.00  0.00    +0.000 A 
ATOM     13  C   UNL     1       6.785   4.558  14.195  0.00  0.00    +0.000 A 
ATOM     14 CL   UNL     1       7.799   3.951  12.948  0.00  0.00    +0.000 Cl
ATOM     15  C   UNL     1       7.318   5.285  15.253  0.00  0.00    +0.000 A 
ATOM     16  C   UNL     1       6.484   5.758  16.287  0.00  0.00    +0.000 A 
ATOM     17 CL   UNL     1       7.283   6.688  17.512  0.00  0.00    +0.000 Cl
ENDBRANCH   2  10
BRANCH   6  18
ATOM     18  C   UNL     1       0.500   8.914  21.016  0.00  0.00    +0.000 C 
ATOM     19  O   UNL     1      -0.321   9.502  20.313  0.00  0.00    +0.000 OA
ATOM     20  N   UNL     1       0.720   9.162  22.361  0.00  0.00    +0.000 N 
ATOM     21  H   UNL     1       1.497   8.731  22.855  0.00  0.00    +0.000 HD
BRANCH  20  22
ATOM     22  N   UNL     1      -0.012  10.121  23.003  0.00  0.00    +0.000 NA
ATOM     23  C   UNL     1      -0.427  11.112  22.280  0.00  0.00    +0.000 C 
BRANCH  23  24
ATOM     24  C   UNL     1      -1.262  12.188  22.858  0.00  0.00    +0.000 A 
ATOM     25  C   UNL     1      -0.793  13.507  22.892  0.00  0.00    +0.000 A 
ATOM     26  C   UNL     1      -1.561  14.507  23.490  0.00  0.00    +0.000 A 
ATOM     27  C   UNL     1      -2.796  14.191  24.055  0.00  0.00    +0.000 A 
ATOM     28  C   UNL     1      -3.265  12.878  24.005  0.00  0.00    +0.000 A 
ATOM     29 CL   UNL     1      -4.787  12.493  24.713  0.00  0.00    +0.000 Cl
ATOM     30  C   UNL     1      -2.508  11.871  23.404  0.00  0.00    +0.000 A 
ENDBRANCH  23  24
ENDBRANCH  20  22
ENDBRANCH   6  18
BRANCH   1  31
ATOM     31  C   UNL     1       4.255   3.776  18.879  0.00  0.00    +0.000 C 
BRANCH  31  33
ATOM     32  C   UNL     1       2.177   2.424  18.457  0.00  0.00    +0.000 C 
ATOM     33  C   UNL     1       3.589   2.724  17.982  0.00  0.00    +0.000 C 
ENDBRANCH  31  33
ENDBRANCH   1  31
TORSDOF 6
ENDMDL
MODEL 8
REMARK VINA RESULT:      -7.5      2.057      2.157
REMARK  Name = 
REMARK  7 active torsions:
REMARK  status: ('A' for Active; 'I' for Inactive)
REMARK    1  A    between atoms: C_1  and  C_2
REMARK    2  A    between atoms: C_2  and  C_3
REMARK    3  A    between atoms: C_3  and  N_4
REMARK    4  A    between atoms: C_5  and  C_6
REMARK    5  A    between atoms: C_17  and  C_18
REMARK    6  A    between atoms: N_20  and  N_21
REMARK    7  A    between atoms: C_22  and  C_23
REMARK                            x       y       z     vdW  Elec       q    Type
REMARK                         _______ _______ _______ _____ _____    ______ ____
ROOT
ATOM      1  N   UNL     1       2.716   6.628  19.599  0.00  0.00    +0.000 N 
ATOM      2  C   UNL     1       3.158   6.924  18.308  0.00  0.00    +0.000 A 
ATOM      3  N   UNL     1       2.620   8.078  17.937  0.00  0.00    +0.000 NA
ATOM      4  C   UNL     1       1.805   8.507  18.948  0.00  0.00    +0.000 A 
ATOM      5  C   UNL     1       1.010   9.662  19.024  0.00  0.00    +0.000 A 
ATOM      6  C   UNL     1       0.243   9.890  20.181  0.00  0.00    +0.000 A 
ATOM      7  C   UNL     1       0.309   8.977  21.248  0.00  0.00    +0.000 A 
ATOM      8  C   UNL     1       1.104   7.826  21.185  0.00  0.00    +0.000 A 
ATOM      9  C   UNL     1       1.841   7.619  20.010  0.00  0.00    +0.000 A 
ENDROOT
BRANCH   2  10
ATOM     10  C   UNL     1       4.105   6.149  17.455  0.00  0.00    +0.000 A 
ATOM     11  C   UNL     1       5.324   6.706  17.027  0.00  0.00    +0.000 A 
ATOM     12  C   UNL     1       6.200   6.053  16.157  0.00  0.00    +0.000 A 
ATOM     13  C   UNL     1       5.871   4.801  15.670  0.00  0.00    +0.000 A 
ATOM     14 CL   UNL     1       6.923   4.019  14.561  0.00  0.00    +0.000 Cl
ATOM     15  C   UNL     1       4.687   4.196  16.073  0.00  0.00    +0.000 A 
ATOM     16  C   UNL     1       3.814   4.856  16.963  0.00  0.00    +0.000 A 
ATOM     17 CL   UNL     1       2.401   3.958  17.413  0.00  0.00    +0.000 Cl
ENDBRANCH   2  10
BRANCH   6  18
ATOM     18  C   UNL     1      -0.620  11.100  20.338  0.00  0.00    +0.000 C 
ATOM     19  O   UNL     1      -0.305  11.950  21.170  0.00  0.00    +0.000 OA
ATOM     20  N   UNL     1      -1.751  11.147  19.541  0.00  0.00    +0.000 N 
ATOM     21  H   UNL     1      -2.020  10.355  18.962  0.00  0.00    +0.000 HD
BRANCH  20  22
ATOM     22  N   UNL     1      -2.613  12.202  19.646  0.00  0.00    +0.000 NA
ATOM     23  C   UNL     1      -3.865  11.950  19.435  0.00  0.00    +0.000 C 
BRANCH  23  24
ATOM     24  C   UNL     1      -4.893  13.006  19.561  0.00  0.00    +0.000 A 
ATOM     25  C   UNL     1      -6.006  13.016  18.710  0.00  0.00    +0.000 A 
ATOM     26  C   UNL     1      -6.943  14.047  18.797  0.00  0.00    +0.000 A 
ATOM     27  C   UNL     1      -6.769  15.068  19.731  0.00  0.00    +0.000 A 
ATOM     28  C   UNL     1      -5.666  15.045  20.585  0.00  0.00    +0.000 A 
ATOM     29 CL   UNL     1      -5.454  16.313  21.730  0.00  0.00    +0.000 Cl
ATOM     30  C   UNL     1      -4.727  14.015  20.512  0.00  0.00    +0.000 A 
ENDBRANCH  23  24
ENDBRANCH  20  22
ENDBRANCH   6  18
BRANCH   1  31
ATOM     31  C   UNL     1       3.025   5.462  20.411  0.00  0.00    +0.000 C 
BRANCH  31  33
ATOM     32  C   UNL     1       2.077   3.526  21.705  0.00  0.00    +0.000 C 
ATOM     33  C   UNL     1       1.832   4.512  20.574  0.00  0.00    +0.000 C 
ENDBRANCH  31  33
ENDBRANCH   1  31
TORSDOF 6
ENDMDL
MODEL 9
REMARK VINA RESULT:      -7.3      2.089     11.644
REMARK  Name = 
REMARK  7 active torsions:
REMARK  status: ('A' for Active; 'I' for Inactive)
REMARK    1  A    between atoms: C_1  and  C_2
REMARK    2  A    between atoms: C_2  and  C_3
REMARK    3  A    between atoms: C_3  and  N_4
REMARK    4  A    between atoms: C_5  and  C_6
REMARK    5  A    between atoms: C_17  and  C_18
REMARK    6  A    between atoms: N_20  and  N_21
REMARK    7  A    between atoms: C_22  and  C_23
REMARK                            x       y       z     vdW  Elec       q    Type
REMARK                         _______ _______ _______ _____ _____    ______ ____
ROOT
ATOM      1  N   UNL     1      -2.480  12.754  21.862  0.00  0.00    +0.000 N 
ATOM      2  C   UNL     1      -3.283  13.238  20.828  0.00  0.00    +0.000 A 
ATOM      3  N   UNL     1      -2.872  12.695  19.691  0.00  0.00    +0.000 NA
ATOM      4  C   UNL     1      -1.789  11.906  19.968  0.00  0.00    +0.000 A 
ATOM      5  C   UNL     1      -1.000  11.137  19.098  0.00  0.00    +0.000 A 
ATOM      6  C   UNL     1       0.078  10.401  19.623  0.00  0.00    +0.000 A 
ATOM      7  C   UNL     1       0.325  10.423  21.007  0.00  0.00    +0.000 A 
ATOM      8  C   UNL     1      -0.462  11.182  21.884  0.00  0.00    +0.000 A 
ATOM      9  C   UNL     1      -1.516  11.918  21.325  0.00  0.00    +0.000 A 
ENDROOT
BRANCH   2  10
ATOM     10  C   UNL     1      -4.447  14.167  20.919  0.00  0.00    +0.000 A 
ATOM     11  C   UNL     1      -4.264  15.559  21.008  0.00  0.00    +0.000 A 
ATOM     12  C   UNL     1      -5.317  16.460  21.184  0.00  0.00    +0.000 A 
ATOM     13  C   UNL     1      -6.610  15.984  21.291  0.00  0.00    +0.000 A 
ATOM     14 CL   UNL     1      -7.899  17.087  21.558  0.00  0.00    +0.000 Cl
ATOM     15  C   UNL     1      -6.851  14.620  21.194  0.00  0.00    +0.000 A 
ATOM     16  C   UNL     1      -5.785  13.717  21.002  0.00  0.00    +0.000 A 
ATOM     17 CL   UNL     1      -6.244  12.053  20.852  0.00  0.00    +0.000 Cl
ENDBRANCH   2  10
BRANCH   6  18
ATOM     18  C   UNL     1       0.958   9.553  18.762  0.00  0.00    +0.000 C 
ATOM     19  O   UNL     1       0.893   9.680  17.540  0.00  0.00    +0.000 OA
ATOM     20  N   UNL     1       1.766   8.646  19.427  0.00  0.00    +0.000 N 
ATOM     21  H   UNL     1       1.683   8.504  20.431  0.00  0.00    +0.000 HD
BRANCH  20  22
ATOM     22  N   UNL     1       2.576   7.808  18.714  0.00  0.00    +0.000 NA
ATOM     23  C   UNL     1       2.387   6.538  18.882  0.00  0.00    +0.000 C 
BRANCH  23  24
ATOM     24  C   UNL     1       3.178   5.538  18.132  0.00  0.00    +0.000 A 
ATOM     25  C   UNL     1       2.781   4.195  18.108  0.00  0.00    +0.000 A 
ATOM     26  C   UNL     1       3.561   3.247  17.446  0.00  0.00    +0.000 A 
ATOM     27  C   UNL     1       4.739   3.639  16.808  0.00  0.00    +0.000 A 
ATOM     28  C   UNL     1       5.122   4.980  16.823  0.00  0.00    +0.000 A 
ATOM     29 CL   UNL     1       6.580   5.454  16.041  0.00  0.00    +0.000 Cl
ATOM     30  C   UNL     1       4.344   5.938  17.477  0.00  0.00    +0.000 A 
ENDBRANCH  23  24
ENDBRANCH  20  22
ENDBRANCH   6  18
BRANCH   1  31
ATOM     31  C   UNL     1      -2.543  13.078  23.278  0.00  0.00    +0.000 C 
BRANCH  31  33
ATOM     32  C   UNL     1      -4.780  12.715  24.368  0.00  0.00    +0.000 C 
ATOM     33  C   UNL     1      -3.418  12.105  24.078  0.00  0.00    +0.000 C 
ENDBRANCH  31  33
ENDBRANCH   1  31
TORSDOF 6
ENDMDL
