MODEL 1
REMARK VINA RESULT:      -7.3      0.000      0.000
REMARK  Name = 
REMARK  16 active torsions:
REMARK  status: ('A' for Active; 'I' for Inactive)
REMARK    1  A    between atoms: C_1  and  C_2
REMARK    2  A    between atoms: C_2  and  C_3
REMARK    3  A    between atoms: C_3  and  C_4
REMARK    4  A    between atoms: C_4  and  C_5
REMARK    5  A    between atoms: C_4  and  N_19
REMARK    6  A    between atoms: C_5  and  N_6
REMARK    7  A    between atoms: N_6  and  C_7
REMARK    8  A    between atoms: C_7  and  C_8
REMARK    9  A    between atoms: C_7  and  C_11
REMARK   10  A    between atoms: C_8  and  N_9
REMARK   11  A    between atoms: N_9  and  C_10
REMARK   12  A    between atoms: C_11  and  C_12
REMARK   13  A    between atoms: C_15  and  O_16
REMARK   14  A    between atoms: N_19  and  C_20
REMARK   15  A    between atoms: C_20  and  C_21
REMARK   16  A    between atoms: C_21  and  C_22
REMARK                            x       y       z     vdW  Elec       q    Type
REMARK                         _______ _______ _______ _____ _____    ______ ____
ROOT
ATOM      1  C   UNL     1       1.148   9.725  19.594  0.00  0.00    +0.000 C 
ENDROOT
BRANCH   1   2
ATOM      2  N   UNL     1       1.783   8.704  18.732  0.00  0.00    +0.000 NA
ATOM      3  H   UNL     1       2.610   9.148  18.324  0.00  0.00    +0.000 HD
BRANCH   2   4
ATOM      4  C   UNL     1       2.280   7.529  19.462  0.00  0.00    +0.000 C 
BRANCH   4   5
ATOM      5  C   UNL     1       2.872   6.419  18.579  0.00  0.00    +0.000 C 
BRANCH   5   6
ATOM      6  C   UNL     1       2.569   4.980  19.061  0.00  0.00    +0.000 C 
ATOM      7  C   UNL     1       1.648   4.984  20.312  0.00  0.00    +0.000 C 
ATOM      8  C   UNL     1       1.328   3.549  20.757  0.00  0.00    +0.000 C 
ATOM      9  C   UNL     1       0.605   2.814  19.618  0.00  0.00    +0.000 C 
ATOM     10  C   UNL     1       1.498   2.777  18.368  0.00  0.00    +0.000 C 
ATOM     11  C   UNL     1       2.806   2.043  18.701  0.00  0.00    +0.000 C 
ATOM     12  C   UNL     1       3.542   2.770  19.837  0.00  0.00    +0.000 C 
ATOM     13  C   UNL     1       2.643   2.823  21.083  0.00  0.00    +0.000 C 
ATOM     14  C   UNL     1       3.867   4.206  19.394  0.00  0.00    +0.000 C 
ATOM     15  C   UNL     1       1.824   4.216  17.933  0.00  0.00    +0.000 C 
ENDBRANCH   5   6
ENDBRANCH   4   5
ENDBRANCH   2   4
ENDBRANCH   1   2
BRANCH   1  16
ATOM     16  C   UNL     1       0.567   9.045  20.859  0.00  0.00    +0.000 C 
BRANCH  16  18
ATOM     17  C   UNL     1      -0.183   9.459  23.240  0.00  0.00    +0.000 C 
ATOM     18  C   UNL     1       0.907   9.684  22.205  0.00  0.00    +0.000 C 
ENDBRANCH  16  18
ENDBRANCH   1  16
BRANCH   1  19
ATOM     19  C   UNL     1       0.114  10.623  18.848  0.00  0.00    +0.000 C 
BRANCH  19  20
ATOM     20  N   UNL     1      -1.282  10.187  19.002  0.00  0.00    +0.000 NA
ATOM     21  H   UNL     1      -1.442   9.806  19.938  0.00  0.00    +0.000 HD
BRANCH  20  22
ATOM     22  C   UNL     1      -2.244  11.299  18.852  0.00  0.00    +0.000 C 
BRANCH  22  23
ATOM     23  C   UNL     1      -2.297  11.715  17.349  0.00  0.00    +0.000 C 
BRANCH  23  24
ATOM     24  N   UNL     1      -3.695  11.768  16.868  0.00  0.00    +0.000 NA
ATOM     25  C   UNL     1      -4.582  11.063  17.785  0.00  0.00    +0.000 C 
ATOM     26  H   UNL     1      -3.745  11.321  15.952  0.00  0.00    +0.000 HD
ENDBRANCH  23  24
ENDBRANCH  22  23
BRANCH  22  27
ATOM     27  C   UNL     1      -1.831  12.480  19.753  0.00  0.00    +0.000 C 
BRANCH  27  28
ATOM     28  C   UNL     1      -2.644  12.592  21.021  0.00  0.00    +0.000 A 
ATOM     29  C   UNL     1      -4.008  12.918  20.974  0.00  0.00    +0.000 A 
ATOM     30  C   UNL     1      -4.752  13.032  22.149  0.00  0.00    +0.000 A 
ATOM     31  C   UNL     1      -4.136  12.796  23.372  0.00  0.00    +0.000 A 
ATOM     32  C   UNL     1      -2.790  12.443  23.434  0.00  0.00    +0.000 A 
ATOM     33  C   UNL     1      -2.045  12.342  22.263  0.00  0.00    +0.000 A 
BRANCH  31  34
ATOM     34  O   UNL     1      -4.822  12.892  24.542  0.00  0.00    +0.000 OA
ATOM     35  H   UNL     1      -5.276  12.049  24.704  0.00  0.00    +0.000 HD
ENDBRANCH  31  34
ENDBRANCH  27  28
ENDBRANCH  22  27
ENDBRANCH  20  22
ENDBRANCH  19  20
ENDBRANCH   1  19
TORSDOF 14
ENDMDL
MODEL 2
REMARK VINA RESULT:      -7.2      0.904      1.751
REMARK  Name = 
REMARK  16 active torsions:
REMARK  status: ('A' for Active; 'I' for Inactive)
REMARK    1  A    between atoms: C_1  and  C_2
REMARK    2  A    between atoms: C_2  and  C_3
REMARK    3  A    between atoms: C_3  and  C_4
REMARK    4  A    between atoms: C_4  and  C_5
REMARK    5  A    between atoms: C_4  and  N_19
REMARK    6  A    between atoms: C_5  and  N_6
REMARK    7  A    between atoms: N_6  and  C_7
REMARK    8  A    between atoms: C_7  and  C_8
REMARK    9  A    between atoms: C_7  and  C_11
REMARK   10  A    between atoms: C_8  and  N_9
REMARK   11  A    between atoms: N_9  and  C_10
REMARK   12  A    between atoms: C_11  and  C_12
REMARK   13  A    between atoms: C_15  and  O_16
REMARK   14  A    between atoms: N_19  and  C_20
REMARK   15  A    between atoms: C_20  and  C_21
REMARK   16  A    between atoms: C_21  and  C_22
REMARK                            x       y       z     vdW  Elec       q    Type
REMARK                         _______ _______ _______ _____ _____    ______ ____
ROOT
ATOM      1  C   UNL     1       1.327   9.546  19.389  0.00  0.00    +0.000 C 
ENDROOT
BRANCH   1   2
ATOM      2  N   UNL     1       1.891   8.184  19.514  0.00  0.00    +0.000 NA
ATOM      3  H   UNL     1       1.142   7.597  19.892  0.00  0.00    +0.000 HD
BRANCH   2   4
ATOM      4  C   UNL     1       2.269   7.572  18.232  0.00  0.00    +0.000 C 
BRANCH   4   5
ATOM      5  C   UNL     1       3.415   6.552  18.314  0.00  0.00    +0.000 C 
BRANCH   5   6
ATOM      6  C   UNL     1       2.976   5.116  18.690  0.00  0.00    +0.000 C 
ATOM      7  C   UNL     1       4.133   4.099  18.491  0.00  0.00    +0.000 C 
ATOM      8  C   UNL     1       3.693   2.686  18.901  0.00  0.00    +0.000 C 
ATOM      9  C   UNL     1       3.294   2.690  20.384  0.00  0.00    +0.000 C 
ATOM     10  C   UNL     1       2.137   3.674  20.614  0.00  0.00    +0.000 C 
ATOM     11  C   UNL     1       0.932   3.249  19.761  0.00  0.00    +0.000 C 
ATOM     12  C   UNL     1       1.316   3.244  18.273  0.00  0.00    +0.000 C 
ATOM     13  C   UNL     1       2.485   2.271  18.046  0.00  0.00    +0.000 C 
ATOM     14  C   UNL     1       1.755   4.658  17.858  0.00  0.00    +0.000 C 
ATOM     15  C   UNL     1       2.580   5.086  20.191  0.00  0.00    +0.000 C 
ENDBRANCH   5   6
ENDBRANCH   4   5
ENDBRANCH   2   4
ENDBRANCH   1   2
BRANCH   1  16
ATOM     16  C   UNL     1       0.751   9.994  20.756  0.00  0.00    +0.000 C 
BRANCH  16  18
ATOM     17  C   UNL     1      -0.043   9.444  23.095  0.00  0.00    +0.000 C 
ATOM     18  C   UNL     1       0.669   8.933  21.853  0.00  0.00    +0.000 C 
ENDBRANCH  16  18
ENDBRANCH   1  16
BRANCH   1  19
ATOM     19  C   UNL     1       0.316   9.703  18.212  0.00  0.00    +0.000 C 
BRANCH  19  20
ATOM     20  N   UNL     1      -0.254  11.054  18.088  0.00  0.00    +0.000 NA
ATOM     21  H   UNL     1      -0.391  11.300  17.105  0.00  0.00    +0.000 HD
BRANCH  20  22
ATOM     22  C   UNL     1      -1.584  11.168  18.720  0.00  0.00    +0.000 C 
BRANCH  22  23
ATOM     23  C   UNL     1      -2.677  10.883  17.644  0.00  0.00    +0.000 C 
BRANCH  23  24
ATOM     24  N   UNL     1      -2.311  11.497  16.348  0.00  0.00    +0.000 NA
ATOM     25  C   UNL     1      -2.829  10.706  15.239  0.00  0.00    +0.000 C 
ATOM     26  H   UNL     1      -1.294  11.535  16.278  0.00  0.00    +0.000 HD
ENDBRANCH  23  24
ENDBRANCH  22  23
BRANCH  22  27
ATOM     27  C   UNL     1      -1.755  12.569  19.342  0.00  0.00    +0.000 C 
BRANCH  27  28
ATOM     28  C   UNL     1      -2.617  12.584  20.582  0.00  0.00    +0.000 A 
ATOM     29  C   UNL     1      -3.989  12.866  20.501  0.00  0.00    +0.000 A 
ATOM     30  C   UNL     1      -4.779  12.890  21.650  0.00  0.00    +0.000 A 
ATOM     31  C   UNL     1      -4.201  12.609  22.882  0.00  0.00    +0.000 A 
ATOM     32  C   UNL     1      -2.847  12.298  22.977  0.00  0.00    +0.000 A 
ATOM     33  C   UNL     1      -2.056  12.286  21.832  0.00  0.00    +0.000 A 
BRANCH  31  34
ATOM     34  O   UNL     1      -4.932  12.618  24.028  0.00  0.00    +0.000 OA
ATOM     35  H   UNL     1      -4.322  12.621  24.784  0.00  0.00    +0.000 HD
ENDBRANCH  31  34
ENDBRANCH  27  28
ENDBRANCH  22  27
ENDBRANCH  20  22
ENDBRANCH  19  20
ENDBRANCH   1  19
TORSDOF 14
ENDMDL
MODEL 3
REMARK VINA RESULT:      -7.0      6.697     10.517
REMARK  Name = 
REMARK  16 active torsions:
REMARK  status: ('A' for Active; 'I' for Inactive)
REMARK    1  A    between atoms: C_1  and  C_2
REMARK    2  A    between atoms: C_2  and  C_3
REMARK    3  A    between atoms: C_3  and  C_4
REMARK    4  A    between atoms: C_4  and  C_5
REMARK    5  A    between atoms: C_4  and  N_19
REMARK    6  A    between atoms: C_5  and  N_6
REMARK    7  A    between atoms: N_6  and  C_7
REMARK    8  A    between atoms: C_7  and  C_8
REMARK    9  A    between atoms: C_7  and  C_11
REMARK   10  A    between atoms: C_8  and  N_9
REMARK   11  A    between atoms: N_9  and  C_10
REMARK   12  A    between atoms: C_11  and  C_12
REMARK   13  A    between atoms: C_15  and  O_16
REMARK   14  A    between atoms: N_19  and  C_20
REMARK   15  A    between atoms: C_20  and  C_21
REMARK   16  A    between atoms: C_21  and  C_22
REMARK                            x       y       z     vdW  Elec       q    Type
REMARK                         _______ _______ _______ _____ _____    ______ ____
ROOT
ATOM      1  C   UNL     1       7.078   6.939  17.370  0.00  0.00    +0.000 C 
ENDROOT
BRANCH   1   2
ATOM      2  N   UNL     1       8.094   7.974  17.077  0.00  0.00    +0.000 NA
ATOM      3  H   UNL     1       7.739   8.505  16.278  0.00  0.00    +0.000 HD
BRANCH   2   4
ATOM      4  C   UNL     1       8.279   8.954  18.157  0.00  0.00    +0.000 C 
BRANCH   4   5
ATOM      5  C   UNL     1       8.252  10.424  17.710  0.00  0.00    +0.000 C 
BRANCH   5   6
ATOM      6  C   UNL     1       9.301  11.328  18.402  0.00  0.00    +0.000 C 
ATOM      7  C   UNL     1       8.802  12.795  18.507  0.00  0.00    +0.000 C 
ATOM      8  C   UNL     1       9.838  13.672  19.227  0.00  0.00    +0.000 C 
ATOM      9  C   UNL     1      10.064  13.129  20.645  0.00  0.00    +0.000 C 
ATOM     10  C   UNL     1      10.576  11.682  20.577  0.00  0.00    +0.000 C 
ATOM     11  C   UNL     1      11.900  11.649  19.799  0.00  0.00    +0.000 C 
ATOM     12  C   UNL     1      11.688  12.186  18.376  0.00  0.00    +0.000 C 
ATOM     13  C   UNL     1      11.160  13.629  18.443  0.00  0.00    +0.000 C 
ATOM     14  C   UNL     1      10.653  11.309  17.651  0.00  0.00    +0.000 C 
ATOM     15  C   UNL     1       9.540  10.810  19.846  0.00  0.00    +0.000 C 
ENDBRANCH   5   6
ENDBRANCH   4   5
ENDBRANCH   2   4
ENDBRANCH   1   2
BRANCH   1  16
ATOM     16  C   UNL     1       7.291   5.725  16.431  0.00  0.00    +0.000 C 
BRANCH  16  18
ATOM     17  C   UNL     1       5.733   3.793  15.938  0.00  0.00    +0.000 C 
ATOM     18  C   UNL     1       6.745   4.379  16.908  0.00  0.00    +0.000 C 
ENDBRANCH  16  18
ENDBRANCH   1  16
BRANCH   1  19
ATOM     19  C   UNL     1       5.613   7.474  17.363  0.00  0.00    +0.000 C 
BRANCH  19  20
ATOM     20  N   UNL     1       4.670   6.651  18.136  0.00  0.00    +0.000 NA
ATOM     21  H   UNL     1       4.708   6.892  19.128  0.00  0.00    +0.000 HD
BRANCH  20  22
ATOM     22  C   UNL     1       3.266   6.860  17.724  0.00  0.00    +0.000 C 
BRANCH  22  23
ATOM     23  C   UNL     1       2.896   8.358  17.951  0.00  0.00    +0.000 C 
BRANCH  23  24
ATOM     24  N   UNL     1       1.463   8.593  17.669  0.00  0.00    +0.000 NA
ATOM     25  C   UNL     1       0.949   9.685  18.487  0.00  0.00    +0.000 C 
ATOM     26  H   UNL     1       0.941   7.745  17.888  0.00  0.00    +0.000 HD
ENDBRANCH  23  24
ENDBRANCH  22  23
BRANCH  22  27
ATOM     27  C   UNL     1       2.337   5.921  18.519  0.00  0.00    +0.000 C 
BRANCH  27  28
ATOM     28  C   UNL     1       2.773   4.474  18.501  0.00  0.00    +0.000 A 
ATOM     29  C   UNL     1       2.305   3.595  17.512  0.00  0.00    +0.000 A 
ATOM     30  C   UNL     1       2.701   2.257  17.506  0.00  0.00    +0.000 A 
ATOM     31  C   UNL     1       3.585   1.803  18.477  0.00  0.00    +0.000 A 
ATOM     32  C   UNL     1       4.081   2.669  19.448  0.00  0.00    +0.000 A 
ATOM     33  C   UNL     1       3.676   4.000  19.462  0.00  0.00    +0.000 A 
BRANCH  31  34
ATOM     34  O   UNL     1       4.000   0.509  18.509  0.00  0.00    +0.000 OA
ATOM     35  H   UNL     1       4.130   0.249  19.436  0.00  0.00    +0.000 HD
ENDBRANCH  31  34
ENDBRANCH  27  28
ENDBRANCH  22  27
ENDBRANCH  20  22
ENDBRANCH  19  20
ENDBRANCH   1  19
TORSDOF 14
ENDMDL
MODEL 4
REMARK VINA RESULT:      -7.0      4.503      7.773
REMARK  Name = 
REMARK  16 active torsions:
REMARK  status: ('A' for Active; 'I' for Inactive)
REMARK    1  A    between atoms: C_1  and  C_2
REMARK    2  A    between atoms: C_2  and  C_3
REMARK    3  A    between atoms: C_3  and  C_4
REMARK    4  A    between atoms: C_4  and  C_5
REMARK    5  A    between atoms: C_4  and  N_19
REMARK    6  A    between atoms: C_5  and  N_6
REMARK    7  A    between atoms: N_6  and  C_7
REMARK    8  A    between atoms: C_7  and  C_8
REMARK    9  A    between atoms: C_7  and  C_11
REMARK   10  A    between atoms: C_8  and  N_9
REMARK   11  A    between atoms: N_9  and  C_10
REMARK   12  A    between atoms: C_11  and  C_12
REMARK   13  A    between atoms: C_15  and  O_16
REMARK   14  A    between atoms: N_19  and  C_20
REMARK   15  A    between atoms: C_20  and  C_21
REMARK   16  A    between atoms: C_21  and  C_22
REMARK                            x       y       z     vdW  Elec       q    Type
REMARK                         _______ _______ _______ _____ _____    ______ ____
ROOT
ATOM      1  C   UNL     1       5.846   4.453  14.661  0.00  0.00    +0.000 C 
ENDROOT
BRANCH   1   2
ATOM      2  N   UNL     1       5.821   3.431  15.731  0.00  0.00    +0.000 NA
ATOM      3  H   UNL     1       6.523   3.718  16.417  0.00  0.00    +0.000 HD
BRANCH   2   4
ATOM      4  C   UNL     1       4.549   3.363  16.465  0.00  0.00    +0.000 C 
BRANCH   4   5
ATOM      5  C   UNL     1       4.686   3.306  17.994  0.00  0.00    +0.000 C 
BRANCH   5   6
ATOM      6  C   UNL     1       3.344   3.200  18.759  0.00  0.00    +0.000 C 
ATOM      7  C   UNL     1       2.982   1.720  19.062  0.00  0.00    +0.000 C 
ATOM      8  C   UNL     1       1.667   1.632  19.852  0.00  0.00    +0.000 C 
ATOM      9  C   UNL     1       1.823   2.381  21.183  0.00  0.00    +0.000 C 
ATOM     10  C   UNL     1       2.166   3.855  20.919  0.00  0.00    +0.000 C 
ATOM     11  C   UNL     1       1.037   4.499  20.099  0.00  0.00    +0.000 C 
ATOM     12  C   UNL     1       0.871   3.762  18.762  0.00  0.00    +0.000 C 
ATOM     13  C   UNL     1       0.545   2.282  19.026  0.00  0.00    +0.000 C 
ATOM     14  C   UNL     1       2.184   3.849  17.967  0.00  0.00    +0.000 C 
ATOM     15  C   UNL     1       3.478   3.937  20.119  0.00  0.00    +0.000 C 
ENDBRANCH   5   6
ENDBRANCH   4   5
ENDBRANCH   2   4
ENDBRANCH   1   2
BRANCH   1  16
ATOM     16  C   UNL     1       6.737   3.958  13.494  0.00  0.00    +0.000 C 
BRANCH  16  18
ATOM     17  C   UNL     1       5.573   2.445  11.832  0.00  0.00    +0.000 C 
ATOM     18  C   UNL     1       6.077   3.849  12.119  0.00  0.00    +0.000 C 
ENDBRANCH  16  18
ENDBRANCH   1  16
BRANCH   1  19
ATOM     19  C   UNL     1       6.223   5.880  15.162  0.00  0.00    +0.000 C 
BRANCH  19  20
ATOM     20  N   UNL     1       5.065   6.746  15.435  0.00  0.00    +0.000 NA
ATOM     21  H   UNL     1       4.192   6.224  15.340  0.00  0.00    +0.000 HD
BRANCH  20  22
ATOM     22  C   UNL     1       5.067   7.277  16.814  0.00  0.00    +0.000 C 
BRANCH  22  23
ATOM     23  C   UNL     1       6.474   7.033  17.443  0.00  0.00    +0.000 C 
BRANCH  23  24
ATOM     24  N   UNL     1       6.393   6.052  18.547  0.00  0.00    +0.000 NA
ATOM     25  C   UNL     1       7.715   5.792  19.103  0.00  0.00    +0.000 C 
ATOM     26  H   UNL     1       6.012   5.178  18.183  0.00  0.00    +0.000 HD
ENDBRANCH  23  24
ENDBRANCH  22  23
BRANCH  22  27
ATOM     27  C   UNL     1       3.953   6.603  17.641  0.00  0.00    +0.000 C 
BRANCH  27  28
ATOM     28  C   UNL     1       2.958   7.577  18.228  0.00  0.00    +0.000 A 
ATOM     29  C   UNL     1       2.464   7.402  19.530  0.00  0.00    +0.000 A 
ATOM     30  C   UNL     1       1.536   8.297  20.063  0.00  0.00    +0.000 A 
ATOM     31  C   UNL     1       1.118   9.382  19.301  0.00  0.00    +0.000 A 
ATOM     32  C   UNL     1       1.621   9.585  18.019  0.00  0.00    +0.000 A 
ATOM     33  C   UNL     1       2.537   8.686  17.482  0.00  0.00    +0.000 A 
BRANCH  31  34
ATOM     34  O   UNL     1       0.218  10.280  19.781  0.00  0.00    +0.000 OA
ATOM     35  H   UNL     1       0.685  11.109  19.980  0.00  0.00    +0.000 HD
ENDBRANCH  31  34
ENDBRANCH  27  28
ENDBRANCH  22  27
ENDBRANCH  20  22
ENDBRANCH  19  20
ENDBRANCH   1  19
TORSDOF 14
ENDMDL
MODEL 5
REMARK VINA RESULT:      -7.0      2.952      5.475
REMARK  Name = 
REMARK  16 active torsions:
REMARK  status: ('A' for Active; 'I' for Inactive)
REMARK    1  A    between atoms: C_1  and  C_2
REMARK    2  A    between atoms: C_2  and  C_3
REMARK    3  A    between atoms: C_3  and  C_4
REMARK    4  A    between atoms: C_4  and  C_5
REMARK    5  A    between atoms: C_4  and  N_19
REMARK    6  A    between atoms: C_5  and  N_6
REMARK    7  A    between atoms: N_6  and  C_7
REMARK    8  A    between atoms: C_7  and  C_8
REMARK    9  A    between atoms: C_7  and  C_11
REMARK   10  A    between atoms: C_8  and  N_9
REMARK   11  A    between atoms: N_9  and  C_10
REMARK   12  A    between atoms: C_11  and  C_12
REMARK   13  A    between atoms: C_15  and  O_16
REMARK   14  A    between atoms: N_19  and  C_20
REMARK   15  A    between atoms: C_20  and  C_21
REMARK   16  A    between atoms: C_21  and  C_22
REMARK                            x       y       z     vdW  Elec       q    Type
REMARK                         _______ _______ _______ _____ _____    ______ ____
ROOT
ATOM      1  C   UNL     1       2.327   5.504  19.904  0.00  0.00    +0.000 C 
ENDROOT
BRANCH   1   2
ATOM      2  N   UNL     1       1.731   4.841  18.723  0.00  0.00    +0.000 NA
ATOM      3  H   UNL     1       1.608   5.570  18.016  0.00  0.00    +0.000 HD
BRANCH   2   4
ATOM      4  C   UNL     1       2.598   3.827  18.104  0.00  0.00    +0.000 C 
BRANCH   4   5
ATOM      5  C   UNL     1       4.075   3.896  18.521  0.00  0.00    +0.000 C 
BRANCH   5   6
ATOM      6  C   UNL     1       4.991   4.652  17.529  0.00  0.00    +0.000 C 
ATOM      7  C   UNL     1       4.830   6.191  17.670  0.00  0.00    +0.000 C 
ATOM      8  C   UNL     1       5.771   6.927  16.705  0.00  0.00    +0.000 C 
ATOM      9  C   UNL     1       7.225   6.555  17.030  0.00  0.00    +0.000 C 
ATOM     10  C   UNL     1       7.424   5.039  16.883  0.00  0.00    +0.000 C 
ATOM     11  C   UNL     1       7.099   4.623  15.440  0.00  0.00    +0.000 C 
ATOM     12  C   UNL     1       5.646   4.986  15.101  0.00  0.00    +0.000 C 
ATOM     13  C   UNL     1       5.442   6.501  15.265  0.00  0.00    +0.000 C 
ATOM     14  C   UNL     1       4.701   4.248  16.064  0.00  0.00    +0.000 C 
ATOM     15  C   UNL     1       6.472   4.305  17.844  0.00  0.00    +0.000 C 
ENDBRANCH   5   6
ENDBRANCH   4   5
ENDBRANCH   2   4
ENDBRANCH   1   2
BRANCH   1  16
ATOM     16  C   UNL     1       1.818   4.816  21.195  0.00  0.00    +0.000 C 
BRANCH  16  18
ATOM     17  C   UNL     1       2.029   2.331  21.627  0.00  0.00    +0.000 C 
ATOM     18  C   UNL     1       1.172   3.440  21.036  0.00  0.00    +0.000 C 
ENDBRANCH  16  18
ENDBRANCH   1  16
BRANCH   1  19
ATOM     19  C   UNL     1       2.143   7.053  19.916  0.00  0.00    +0.000 C 
BRANCH  19  20
ATOM     20  N   UNL     1       1.531   7.574  21.149  0.00  0.00    +0.000 NA
ATOM     21  H   UNL     1       2.197   7.544  21.924  0.00  0.00    +0.000 HD
BRANCH  20  22
ATOM     22  C   UNL     1       1.123   8.988  21.025  0.00  0.00    +0.000 C 
BRANCH  22  23
ATOM     23  C   UNL     1      -0.154   9.219  21.891  0.00  0.00    +0.000 C 
BRANCH  23  24
ATOM     24  N   UNL     1       0.076  10.284  22.892  0.00  0.00    +0.000 NA
ATOM     25  C   UNL     1      -1.040  11.221  22.913  0.00  0.00    +0.000 C 
ATOM     26  H   UNL     1       0.926  10.791  22.643  0.00  0.00    +0.000 HD
ENDBRANCH  23  24
ENDBRANCH  22  23
BRANCH  22  27
ATOM     27  C   UNL     1       0.872   9.338  19.544  0.00  0.00    +0.000 C 
BRANCH  27  28
ATOM     28  C   UNL     1       0.447  10.770  19.320  0.00  0.00    +0.000 A 
ATOM     29  C   UNL     1       1.285  11.834  19.685  0.00  0.00    +0.000 A 
ATOM     30  C   UNL     1       0.883  13.156  19.487  0.00  0.00    +0.000 A 
ATOM     31  C   UNL     1      -0.351  13.413  18.901  0.00  0.00    +0.000 A 
ATOM     32  C   UNL     1      -1.182  12.368  18.506  0.00  0.00    +0.000 A 
ATOM     33  C   UNL     1      -0.787  11.050  18.715  0.00  0.00    +0.000 A 
BRANCH  31  34
ATOM     34  O   UNL     1      -0.783  14.684  18.687  0.00  0.00    +0.000 OA
ATOM     35  H   UNL     1      -1.367  14.685  17.910  0.00  0.00    +0.000 HD
ENDBRANCH  31  34
ENDBRANCH  27  28
ENDBRANCH  22  27
ENDBRANCH  20  22
ENDBRANCH  19  20
ENDBRANCH   1  19
TORSDOF 14
ENDMDL
MODEL 6
REMARK VINA RESULT:      -7.0      2.758      5.271
REMARK  Name = 
REMARK  16 active torsions:
REMARK  status: ('A' for Active; 'I' for Inactive)
REMARK    1  A    between atoms: C_1  and  C_2
REMARK    2  A    between atoms: C_2  and  C_3
REMARK    3  A    between atoms: C_3  and  C_4
REMARK    4  A    between atoms: C_4  and  C_5
REMARK    5  A    between atoms: C_4  and  N_19
REMARK    6  A    between atoms: C_5  and  N_6
REMARK    7  A    between atoms: N_6  and  C_7
REMARK    8  A    between atoms: C_7  and  C_8
REMARK    9  A    between atoms: C_7  and  C_11
REMARK   10  A    between atoms: C_8  and  N_9
REMARK   11  A    between atoms: N_9  and  C_10
REMARK   12  A    between atoms: C_11  and  C_12
REMARK   13  A    between atoms: C_15  and  O_16
REMARK   14  A    between atoms: N_19  and  C_20
REMARK   15  A    between atoms: C_20  and  C_21
REMARK   16  A    between atoms: C_21  and  C_22
REMARK                            x       y       z     vdW  Elec       q    Type
REMARK                         _______ _______ _______ _____ _____    ______ ____
ROOT
ATOM      1  C   UNL     1       4.687   6.381  17.189  0.00  0.00    +0.000 C 
ENDROOT
BRANCH   1   2
ATOM      2  N   UNL     1       5.825   6.228  18.121  0.00  0.00    +0.000 NA
ATOM      3  H   UNL     1       5.870   7.093  18.665  0.00  0.00    +0.000 HD
BRANCH   2   4
ATOM      4  C   UNL     1       5.653   5.148  19.104  0.00  0.00    +0.000 C 
BRANCH   4   5
ATOM      5  C   UNL     1       4.974   3.881  18.562  0.00  0.00    +0.000 C 
BRANCH   5   6
ATOM      6  C   UNL     1       3.553   3.622  19.118  0.00  0.00    +0.000 C 
ATOM      7  C   UNL     1       2.462   3.962  18.065  0.00  0.00    +0.000 C 
ATOM      8  C   UNL     1       1.060   3.667  18.619  0.00  0.00    +0.000 C 
ATOM      9  C   UNL     1       0.956   2.175  18.967  0.00  0.00    +0.000 C 
ATOM     10  C   UNL     1       2.012   1.807  20.021  0.00  0.00    +0.000 C 
ATOM     11  C   UNL     1       1.777   2.645  21.287  0.00  0.00    +0.000 C 
ATOM     12  C   UNL     1       1.882   4.141  20.955  0.00  0.00    +0.000 C 
ATOM     13  C   UNL     1       0.837   4.506  19.887  0.00  0.00    +0.000 C 
ATOM     14  C   UNL     1       3.286   4.442  20.402  0.00  0.00    +0.000 C 
ATOM     15  C   UNL     1       3.414   2.115  19.466  0.00  0.00    +0.000 C 
ENDBRANCH   5   6
ENDBRANCH   4   5
ENDBRANCH   2   4
ENDBRANCH   1   2
BRANCH   1  16
ATOM     16  C   UNL     1       5.210   6.393  15.731  0.00  0.00    +0.000 C 
BRANCH  16  18
ATOM     17  C   UNL     1       6.943   4.866  14.696  0.00  0.00    +0.000 C 
ATOM     18  C   UNL     1       5.483   5.035  15.083  0.00  0.00    +0.000 C 
ENDBRANCH  16  18
ENDBRANCH   1  16
BRANCH   1  19
ATOM     19  C   UNL     1       3.760   7.591  17.521  0.00  0.00    +0.000 C 
BRANCH  19  20
ATOM     20  N   UNL     1       2.759   7.311  18.563  0.00  0.00    +0.000 NA
ATOM     21  H   UNL     1       3.201   6.905  19.390  0.00  0.00    +0.000 HD
BRANCH  20  22
ATOM     22  C   UNL     1       2.074   8.533  19.033  0.00  0.00    +0.000 C 
BRANCH  22  23
ATOM     23  C   UNL     1       1.149   8.159  20.232  0.00  0.00    +0.000 C 
BRANCH  23  24
ATOM     24  N   UNL     1       1.816   8.451  21.521  0.00  0.00    +0.000 NA
ATOM     25  C   UNL     1       0.942   9.233  22.387  0.00  0.00    +0.000 C 
ATOM     26  H   UNL     1       2.664   8.988  21.337  0.00  0.00    +0.000 HD
ENDBRANCH  23  24
ENDBRANCH  22  23
BRANCH  22  27
ATOM     27  C   UNL     1       1.274   9.168  17.878  0.00  0.00    +0.000 C 
BRANCH  27  28
ATOM     28  C   UNL     1       0.291  10.224  18.326  0.00  0.00    +0.000 A 
ATOM     29  C   UNL     1       0.722  11.345  19.051  0.00  0.00    +0.000 A 
ATOM     30  C   UNL     1      -0.192  12.312  19.473  0.00  0.00    +0.000 A 
ATOM     31  C   UNL     1      -1.536  12.169  19.150  0.00  0.00    +0.000 A 
ATOM     32  C   UNL     1      -1.975  11.077  18.406  0.00  0.00    +0.000 A 
ATOM     33  C   UNL     1      -1.066  10.106  17.995  0.00  0.00    +0.000 A 
BRANCH  31  34
ATOM     34  O   UNL     1      -2.460  13.087  19.537  0.00  0.00    +0.000 OA
ATOM     35  H   UNL     1      -2.628  12.974  20.488  0.00  0.00    +0.000 HD
ENDBRANCH  31  34
ENDBRANCH  27  28
ENDBRANCH  22  27
ENDBRANCH  20  22
ENDBRANCH  19  20
ENDBRANCH   1  19
TORSDOF 14
ENDMDL
MODEL 7
REMARK VINA RESULT:      -6.9      2.977      4.678
REMARK  Name = 
REMARK  16 active torsions:
REMARK  status: ('A' for Active; 'I' for Inactive)
REMARK    1  A    between atoms: C_1  and  C_2
REMARK    2  A    between atoms: C_2  and  C_3
REMARK    3  A    between atoms: C_3  and  C_4
REMARK    4  A    between atoms: C_4  and  C_5
REMARK    5  A    between atoms: C_4  and  N_19
REMARK    6  A    between atoms: C_5  and  N_6
REMARK    7  A    between atoms: N_6  and  C_7
REMARK    8  A    between atoms: C_7  and  C_8
REMARK    9  A    between atoms: C_7  and  C_11
REMARK   10  A    between atoms: C_8  and  N_9
REMARK   11  A    between atoms: N_9  and  C_10
REMARK   12  A    between atoms: C_11  and  C_12
REMARK   13  A    between atoms: C_15  and  O_16
REMARK   14  A    between atoms: N_19  and  C_20
REMARK   15  A    between atoms: C_20  and  C_21
REMARK   16  A    between atoms: C_21  and  C_22
REMARK                            x       y       z     vdW  Elec       q    Type
REMARK                         _______ _______ _______ _____ _____    ______ ____
ROOT
ATOM      1  C   UNL     1       1.702   8.008  20.557  0.00  0.00    +0.000 C 
ENDROOT
BRANCH   1   2
ATOM      2  N   UNL     1       2.039   6.568  20.583  0.00  0.00    +0.000 NA
ATOM      3  H   UNL     1       1.162   6.071  20.756  0.00  0.00    +0.000 HD
BRANCH   2   4
ATOM      4  C   UNL     1       2.547   6.049  19.305  0.00  0.00    +0.000 C 
BRANCH   4   5
ATOM      5  C   UNL     1       3.702   5.043  19.428  0.00  0.00    +0.000 C 
BRANCH   5   6
ATOM      6  C   UNL     1       4.855   5.257  18.417  0.00  0.00    +0.000 C 
ATOM      7  C   UNL     1       4.954   4.076  17.413  0.00  0.00    +0.000 C 
ATOM      8  C   UNL     1       6.079   4.320  16.395  0.00  0.00    +0.000 C 
ATOM      9  C   UNL     1       5.783   5.606  15.611  0.00  0.00    +0.000 C 
ATOM     10  C   UNL     1       5.695   6.800  16.574  0.00  0.00    +0.000 C 
ATOM     11  C   UNL     1       7.031   6.950  17.318  0.00  0.00    +0.000 C 
ATOM     12  C   UNL     1       7.338   5.671  18.111  0.00  0.00    +0.000 C 
ATOM     13  C   UNL     1       7.410   4.473  17.149  0.00  0.00    +0.000 C 
ATOM     14  C   UNL     1       6.216   5.425  19.133  0.00  0.00    +0.000 C 
ATOM     15  C   UNL     1       4.574   6.546  17.598  0.00  0.00    +0.000 C 
ENDBRANCH   5   6
ENDBRANCH   4   5
ENDBRANCH   2   4
ENDBRANCH   1   2
BRANCH   1  16
ATOM     16  C   UNL     1       0.521   8.280  21.523  0.00  0.00    +0.000 C 
BRANCH  16  18
ATOM     17  C   UNL     1      -0.558   9.903  23.138  0.00  0.00    +0.000 C 
ATOM     18  C   UNL     1       0.748   9.328  22.613  0.00  0.00    +0.000 C 
ENDBRANCH  16  18
ENDBRANCH   1  16
BRANCH   1  19
ATOM     19  C   UNL     1       1.467   8.574  19.123  0.00  0.00    +0.000 C 
BRANCH  19  20
ATOM     20  N   UNL     1       1.809   9.997  18.976  0.00  0.00    +0.000 NA
ATOM     21  H   UNL     1       2.499  10.130  18.235  0.00  0.00    +0.000 HD
BRANCH  20  22
ATOM     22  C   UNL     1       0.645  10.823  18.594  0.00  0.00    +0.000 C 
BRANCH  22  23
ATOM     23  C   UNL     1       0.880  12.282  19.093  0.00  0.00    +0.000 C 
BRANCH  23  24
ATOM     24  N   UNL     1       1.043  12.315  20.563  0.00  0.00    +0.000 NA
ATOM     25  C   UNL     1       1.217  13.684  21.032  0.00  0.00    +0.000 C 
ATOM     26  H   UNL     1       1.871  11.774  20.814  0.00  0.00    +0.000 HD
ENDBRANCH  23  24
ENDBRANCH  22  23
BRANCH  22  27
ATOM     27  C   UNL     1      -0.646  10.223  19.187  0.00  0.00    +0.000 C 
BRANCH  27  28
ATOM     28  C   UNL     1      -1.888  10.540  18.387  0.00  0.00    +0.000 A 
ATOM     29  C   UNL     1      -2.138   9.899  17.164  0.00  0.00    +0.000 A 
ATOM     30  C   UNL     1      -3.280  10.203  16.423  0.00  0.00    +0.000 A 
ATOM     31  C   UNL     1      -4.187  11.134  16.917  0.00  0.00    +0.000 A 
ATOM     32  C   UNL     1      -3.968  11.757  18.143  0.00  0.00    +0.000 A 
ATOM     33  C   UNL     1      -2.823  11.463  18.876  0.00  0.00    +0.000 A 
BRANCH  31  34
ATOM     34  O   UNL     1      -5.314  11.459  16.231  0.00  0.00    +0.000 OA
ATOM     35  H   UNL     1      -5.087  12.128  15.564  0.00  0.00    +0.000 HD
ENDBRANCH  31  34
ENDBRANCH  27  28
ENDBRANCH  22  27
ENDBRANCH  20  22
ENDBRANCH  19  20
ENDBRANCH   1  19
TORSDOF 14
ENDMDL
MODEL 8
REMARK VINA RESULT:      -6.9      2.990      5.584
REMARK  Name = 
REMARK  16 active torsions:
REMARK  status: ('A' for Active; 'I' for Inactive)
REMARK    1  A    between atoms: C_1  and  C_2
REMARK    2  A    between atoms: C_2  and  C_3
REMARK    3  A    between atoms: C_3  and  C_4
REMARK    4  A    between atoms: C_4  and  C_5
REMARK    5  A    between atoms: C_4  and  N_19
REMARK    6  A    between atoms: C_5  and  N_6
REMARK    7  A    between atoms: N_6  and  C_7
REMARK    8  A    between atoms: C_7  and  C_8
REMARK    9  A    between atoms: C_7  and  C_11
REMARK   10  A    between atoms: C_8  and  N_9
REMARK   11  A    between atoms: N_9  and  C_10
REMARK   12  A    between atoms: C_11  and  C_12
REMARK   13  A    between atoms: C_15  and  O_16
REMARK   14  A    between atoms: N_19  and  C_20
REMARK   15  A    between atoms: C_20  and  C_21
REMARK   16  A    between atoms: C_21  and  C_22
REMARK                            x       y       z     vdW  Elec       q    Type
REMARK                         _______ _______ _______ _____ _____    ______ ____
ROOT
ATOM      1  C   UNL     1       1.926   4.840  19.649  0.00  0.00    +0.000 C 
ENDROOT
BRANCH   1   2
ATOM      2  N   UNL     1       1.533   4.858  18.223  0.00  0.00    +0.000 NA
ATOM      3  H   UNL     1       1.834   5.764  17.854  0.00  0.00    +0.000 HD
BRANCH   2   4
ATOM      4  C   UNL     1       2.214   3.847  17.401  0.00  0.00    +0.000 C 
BRANCH   4   5
ATOM      5  C   UNL     1       3.562   3.361  17.955  0.00  0.00    +0.000 C 
BRANCH   5   6
ATOM      6  C   UNL     1       4.787   4.183  17.485  0.00  0.00    +0.000 C 
ATOM      7  C   UNL     1       5.617   3.405  16.427  0.00  0.00    +0.000 C 
ATOM      8  C   UNL     1       6.808   4.247  15.944  0.00  0.00    +0.000 C 
ATOM      9  C   UNL     1       6.287   5.543  15.304  0.00  0.00    +0.000 C 
ATOM     10  C   UNL     1       5.475   6.345  16.332  0.00  0.00    +0.000 C 
ATOM     11  C   UNL     1       6.373   6.691  17.530  0.00  0.00    +0.000 C 
ATOM     12  C   UNL     1       6.898   5.403  18.182  0.00  0.00    +0.000 C 
ATOM     13  C   UNL     1       7.697   4.591  17.149  0.00  0.00    +0.000 C 
ATOM     14  C   UNL     1       5.708   4.559  18.669  0.00  0.00    +0.000 C 
ATOM     15  C   UNL     1       4.289   5.494  16.820  0.00  0.00    +0.000 C 
ENDBRANCH   5   6
ENDBRANCH   4   5
ENDBRANCH   2   4
ENDBRANCH   1   2
BRANCH   1  16
ATOM     16  C   UNL     1       0.851   4.087  20.472  0.00  0.00    +0.000 C 
BRANCH  16  18
ATOM     17  C   UNL     1       2.714   2.706  21.485  0.00  0.00    +0.000 C 
ATOM     18  C   UNL     1       1.254   2.737  21.065  0.00  0.00    +0.000 C 
ENDBRANCH  16  18
ENDBRANCH   1  16
BRANCH   1  19
ATOM     19  C   UNL     1       2.270   6.247  20.225  0.00  0.00    +0.000 C 
BRANCH  19  20
ATOM     20  N   UNL     1       2.486   7.279  19.199  0.00  0.00    +0.000 NA
ATOM     21  H   UNL     1       2.091   6.987  18.303  0.00  0.00    +0.000 HD
BRANCH  20  22
ATOM     22  C   UNL     1       1.823   8.557  19.533  0.00  0.00    +0.000 C 
BRANCH  22  23
ATOM     23  C   UNL     1       0.952   8.351  20.810  0.00  0.00    +0.000 C 
BRANCH  23  24
ATOM     24  N   UNL     1       1.214   9.417  21.803  0.00  0.00    +0.000 NA
ATOM     25  C   UNL     1       0.149   9.469  22.796  0.00  0.00    +0.000 C 
ATOM     26  H   UNL     1       1.256  10.314  21.318  0.00  0.00    +0.000 HD
ENDBRANCH  23  24
ENDBRANCH  22  23
BRANCH  22  27
ATOM     27  C   UNL     1       0.974   9.040  18.339  0.00  0.00    +0.000 C 
BRANCH  27  28
ATOM     28  C   UNL     1       0.503  10.469  18.466  0.00  0.00    +0.000 A 
ATOM     29  C   UNL     1       1.414  11.506  18.719  0.00  0.00    +0.000 A 
ATOM     30  C   UNL     1       0.973  12.824  18.846  0.00  0.00    +0.000 A 
ATOM     31  C   UNL     1      -0.379  13.108  18.698  0.00  0.00    +0.000 A 
ATOM     32  C   UNL     1      -1.292  12.095  18.418  0.00  0.00    +0.000 A 
ATOM     33  C   UNL     1      -0.854  10.779  18.303  0.00  0.00    +0.000 A 
BRANCH  31  34
ATOM     34  O   UNL     1      -0.853  14.377  18.811  0.00  0.00    +0.000 OA
ATOM     35  H   UNL     1      -0.881  14.614  19.753  0.00  0.00    +0.000 HD
ENDBRANCH  31  34
ENDBRANCH  27  28
ENDBRANCH  22  27
ENDBRANCH  20  22
ENDBRANCH  19  20
ENDBRANCH   1  19
TORSDOF 14
ENDMDL
MODEL 9
REMARK VINA RESULT:      -6.9      7.377      9.854
REMARK  Name = 
REMARK  16 active torsions:
REMARK  status: ('A' for Active; 'I' for Inactive)
REMARK    1  A    between atoms: C_1  and  C_2
REMARK    2  A    between atoms: C_2  and  C_3
REMARK    3  A    between atoms: C_3  and  C_4
REMARK    4  A    between atoms: C_4  and  C_5
REMARK    5  A    between atoms: C_4  and  N_19
REMARK    6  A    between atoms: C_5  and  N_6
REMARK    7  A    between atoms: N_6  and  C_7
REMARK    8  A    between atoms: C_7  and  C_8
REMARK    9  A    between atoms: C_7  and  C_11
REMARK   10  A    between atoms: C_8  and  N_9
REMARK   11  A    between atoms: N_9  and  C_10
REMARK   12  A    between atoms: C_11  and  C_12
REMARK   13  A    between atoms: C_15  and  O_16
REMARK   14  A    between atoms: N_19  and  C_20
REMARK   15  A    between atoms: C_20  and  C_21
REMARK   16  A    between atoms: C_21  and  C_22
REMARK                            x       y       z     vdW  Elec       q    Type
REMARK                         _______ _______ _______ _____ _____    ______ ____
ROOT
ATOM      1  C   UNL     1       7.110   7.218  17.702  0.00  0.00    +0.000 C 
ENDROOT
BRANCH   1   2
ATOM      2  N   UNL     1       7.610   6.294  18.743  0.00  0.00    +0.000 NA
ATOM      3  H   UNL     1       8.047   6.879  19.460  0.00  0.00    +0.000 HD
BRANCH   2   4
ATOM      4  C   UNL     1       6.553   5.541  19.433  0.00  0.00    +0.000 C 
BRANCH   4   5
ATOM      5  C   UNL     1       6.090   4.265  18.712  0.00  0.00    +0.000 C 
BRANCH   5   6
ATOM      6  C   UNL     1       4.566   4.002  18.778  0.00  0.00    +0.000 C 
ATOM      7  C   UNL     1       4.206   3.057  19.958  0.00  0.00    +0.000 C 
ATOM      8  C   UNL     1       2.687   2.835  20.032  0.00  0.00    +0.000 C 
ATOM      9  C   UNL     1       1.987   4.183  20.253  0.00  0.00    +0.000 C 
ATOM     10  C   UNL     1       2.310   5.138  19.093  0.00  0.00    +0.000 C 
ATOM     11  C   UNL     1       1.821   4.517  17.775  0.00  0.00    +0.000 C 
ATOM     12  C   UNL     1       2.517   3.168  17.539  0.00  0.00    +0.000 C 
ATOM     13  C   UNL     1       2.208   2.218  18.709  0.00  0.00    +0.000 C 
ATOM     14  C   UNL     1       4.037   3.387  17.462  0.00  0.00    +0.000 C 
ATOM     15  C   UNL     1       3.832   5.349  19.016  0.00  0.00    +0.000 C 
ENDBRANCH   5   6
ENDBRANCH   4   5
ENDBRANCH   2   4
ENDBRANCH   1   2
BRANCH   1  16
ATOM     16  C   UNL     1       7.029   6.473  16.346  0.00  0.00    +0.000 C 
BRANCH  16  18
ATOM     17  C   UNL     1       5.604   5.047  14.816  0.00  0.00    +0.000 C 
ATOM     18  C   UNL     1       5.631   6.224  15.777  0.00  0.00    +0.000 C 
ENDBRANCH  16  18
ENDBRANCH   1  16
BRANCH   1  19
ATOM     19  C   UNL     1       7.899   8.561  17.620  0.00  0.00    +0.000 C 
BRANCH  19  20
ATOM     20  N   UNL     1       8.646   8.893  18.844  0.00  0.00    +0.000 NA
ATOM     21  H   UNL     1       9.291   8.139  19.090  0.00  0.00    +0.000 HD
BRANCH  20  22
ATOM     22  C   UNL     1       9.481  10.101  18.687  0.00  0.00    +0.000 C 
BRANCH  22  23
ATOM     23  C   UNL     1      10.020  10.523  20.089  0.00  0.00    +0.000 C 
BRANCH  23  24
ATOM     24  N   UNL     1       8.946  10.458  21.106  0.00  0.00    +0.000 NA
ATOM     25  C   UNL     1       8.769  11.753  21.751  0.00  0.00    +0.000 C 
ATOM     26  H   UNL     1       9.205   9.770  21.814  0.00  0.00    +0.000 HD
ENDBRANCH  23  24
ENDBRANCH  22  23
BRANCH  22  27
ATOM     27  C   UNL     1       8.660  11.231  18.033  0.00  0.00    +0.000 C 
BRANCH  27  28
ATOM     28  C   UNL     1       9.447  12.499  17.798  0.00  0.00    +0.000 A 
ATOM     29  C   UNL     1      10.679  12.466  17.128  0.00  0.00    +0.000 A 
ATOM     30  C   UNL     1      11.408  13.638  16.924  0.00  0.00    +0.000 A 
ATOM     31  C   UNL     1      10.892  14.849  17.370  0.00  0.00    +0.000 A 
ATOM     32  C   UNL     1       9.658  14.902  18.012  0.00  0.00    +0.000 A 
ATOM     33  C   UNL     1       8.936  13.732  18.227  0.00  0.00    +0.000 A 
BRANCH  31  34
ATOM     34  O   UNL     1      11.566  16.016  17.191  0.00  0.00    +0.000 OA
ATOM     35  H   UNL     1      12.518  15.821  17.156  0.00  0.00    +0.000 HD
ENDBRANCH  31  34
ENDBRANCH  27  28
ENDBRANCH  22  27
ENDBRANCH  20  22
ENDBRANCH  19  20
ENDBRANCH   1  19
TORSDOF 14
ENDMDL
