MODEL 1
REMARK VINA RESULT:      -7.7      0.000      0.000
REMARK  Name = 
REMARK  7 active torsions:
REMARK  status: ('A' for Active; 'I' for Inactive)
REMARK    1  A    between atoms: C_1  and  C_2
REMARK    2  A    between atoms: C_2  and  O_3
REMARK    3  A    between atoms: O_3  and  C_4
REMARK    4  A    between atoms: C_9  and  N_10
REMARK    5  A    between atoms: N_13  and  C_14
REMARK    6  A    between atoms: C_17  and  O_18
REMARK    7  A    between atoms: O_18  and  C_19
REMARK                            x       y       z     vdW  Elec       q    Type
REMARK                         _______ _______ _______ _____ _____    ______ ____
ROOT
ATOM      1  N   UNL     1       2.846   6.581  18.595  0.00  0.00    +0.000 N 
ATOM      2  C   UNL     1       2.157   7.188  19.620  0.00  0.00    +0.000 C 
ATOM      3  O   UNL     1       2.074   6.659  20.726  0.00  0.00    +0.000 OA
ATOM      4  N   UNL     1       1.619   8.406  19.268  0.00  0.00    +0.000 N 
ATOM      5  H   UNL     1       2.699   6.912  17.653  0.00  0.00    +0.000 HD
ATOM      6  H   UNL     1       1.492   8.585  18.284  0.00  0.00    +0.000 HD
ENDROOT
BRANCH   1  12
ATOM      7  C   UNL     1       6.740   4.290  16.371  0.00  0.00    +0.000 C 
ATOM      8  O   UNL     1       7.898   4.477  16.720  0.00  0.00    +0.000 OA
ATOM      9  N   UNL     1       5.640   4.803  17.031  0.00  0.00    +0.000 N 
ATOM     10  C   UNL     1       5.840   5.687  18.167  0.00  0.00    +0.000 C 
ATOM     11  C   UNL     1       4.880   5.340  19.293  0.00  0.00    +0.000 C 
ATOM     12  C   UNL     1       3.431   5.259  18.814  0.00  0.00    +0.000 C 
ATOM     13  C   UNL     1       3.294   4.362  17.574  0.00  0.00    +0.000 C 
ATOM     14  C   UNL     1       4.286   4.747  16.489  0.00  0.00    +0.000 C 
BRANCH   7  15
ATOM     15  O   UNL     1       6.386   3.608  15.252  0.00  0.00    +0.000 OA
BRANCH  15  17
ATOM     16  C   UNL     1       5.901   3.596  12.922  0.00  0.00    +0.000 C 
ATOM     17  C   UNL     1       6.750   4.222  14.012  0.00  0.00    +0.000 C 
ENDBRANCH  15  17
ENDBRANCH   7  15
ENDBRANCH   1  12
BRANCH   4  18
ATOM     18  C   UNL     1       0.973   9.278  20.179  0.00  0.00    +0.000 A 
ATOM     19  C   UNL     1       1.049  10.669  20.059  0.00  0.00    +0.000 A 
ATOM     20  C   UNL     1       0.476  11.504  21.020  0.00  0.00    +0.000 A 
ATOM     21  C   UNL     1      -0.206  10.966  22.106  0.00  0.00    +0.000 A 
ATOM     22  C   UNL     1      -0.298   9.578  22.217  0.00  0.00    +0.000 A 
ATOM     23  F   UNL     1      -0.858   9.012  23.294  0.00  0.00    +0.000 F 
ATOM     24  C   UNL     1       0.256   8.736  21.244  0.00  0.00    +0.000 A 
BRANCH  21  25
ATOM     25  O   UNL     1      -0.626  11.890  23.012  0.00  0.00    +0.000 OA
BRANCH  25  26
ATOM     26  C   UNL     1      -1.995  12.257  23.052  0.00  0.00    +0.000 C 
ATOM     27  F   UNL     1      -2.556  12.474  21.848  0.00  0.00    +0.000 F 
ATOM     28  F   UNL     1      -2.690  11.305  23.710  0.00  0.00    +0.000 F 
ATOM     29  F   UNL     1      -2.096  13.408  23.759  0.00  0.00    +0.000 F 
ENDBRANCH  25  26
ENDBRANCH  21  25
ENDBRANCH   4  18
TORSDOF 6
ENDMDL
MODEL 2
REMARK VINA RESULT:      -7.6      0.815      1.307
REMARK  Name = 
REMARK  7 active torsions:
REMARK  status: ('A' for Active; 'I' for Inactive)
REMARK    1  A    between atoms: C_1  and  C_2
REMARK    2  A    between atoms: C_2  and  O_3
REMARK    3  A    between atoms: O_3  and  C_4
REMARK    4  A    between atoms: C_9  and  N_10
REMARK    5  A    between atoms: N_13  and  C_14
REMARK    6  A    between atoms: C_17  and  O_18
REMARK    7  A    between atoms: O_18  and  C_19
REMARK                            x       y       z     vdW  Elec       q    Type
REMARK                         _______ _______ _______ _____ _____    ______ ____
ROOT
ATOM      1  N   UNL     1       2.768   6.379  18.771  0.00  0.00    +0.000 N 
ATOM      2  C   UNL     1       2.136   6.931  19.862  0.00  0.00    +0.000 C 
ATOM      3  O   UNL     1       2.112   6.344  20.942  0.00  0.00    +0.000 OA
ATOM      4  N   UNL     1       1.581   8.165  19.604  0.00  0.00    +0.000 N 
ATOM      5  H   UNL     1       2.571   6.758  17.857  0.00  0.00    +0.000 HD
ATOM      6  H   UNL     1       1.402   8.394  18.639  0.00  0.00    +0.000 HD
ENDROOT
BRANCH   1  12
ATOM      7  C   UNL     1       6.658   4.282  16.356  0.00  0.00    +0.000 C 
ATOM      8  O   UNL     1       7.818   4.451  16.710  0.00  0.00    +0.000 OA
ATOM      9  N   UNL     1       5.561   4.738  17.061  0.00  0.00    +0.000 N 
ATOM     10  C   UNL     1       5.764   5.539  18.257  0.00  0.00    +0.000 C 
ATOM     11  C   UNL     1       4.816   5.105  19.362  0.00  0.00    +0.000 C 
ATOM     12  C   UNL     1       3.363   5.048  18.889  0.00  0.00    +0.000 C 
ATOM     13  C   UNL     1       3.221   4.243  17.588  0.00  0.00    +0.000 C 
ATOM     14  C   UNL     1       4.203   4.713  16.526  0.00  0.00    +0.000 C 
BRANCH   7  15
ATOM     15  O   UNL     1       6.299   3.680  15.194  0.00  0.00    +0.000 OA
BRANCH  15  17
ATOM     16  C   UNL     1       6.099   3.599  12.824  0.00  0.00    +0.000 C 
ATOM     17  C   UNL     1       6.636   4.393  14.000  0.00  0.00    +0.000 C 
ENDBRANCH  15  17
ENDBRANCH   7  15
ENDBRANCH   1  12
BRANCH   4  18
ATOM     18  C   UNL     1       0.986   8.986  20.592  0.00  0.00    +0.000 A 
ATOM     19  C   UNL     1       0.176   8.465  21.605  0.00  0.00    +0.000 A 
ATOM     20  C   UNL     1      -0.467   9.307  22.514  0.00  0.00    +0.000 A 
ATOM     21  C   UNL     1      -0.293  10.685  22.445  0.00  0.00    +0.000 A 
ATOM     22  C   UNL     1       0.530  11.205  21.446  0.00  0.00    +0.000 A 
ATOM     23  F   UNL     1       0.650  12.529  21.277  0.00  0.00    +0.000 F 
ATOM     24  C   UNL     1       1.196  10.364  20.545  0.00  0.00    +0.000 A 
BRANCH  21  25
ATOM     25  O   UNL     1      -1.054  11.387  23.327  0.00  0.00    +0.000 OA
BRANCH  25  26
ATOM     26  C   UNL     1      -2.207  12.072  22.867  0.00  0.00    +0.000 C 
ATOM     27  F   UNL     1      -2.519  11.845  21.577  0.00  0.00    +0.000 F 
ATOM     28  F   UNL     1      -3.257  11.748  23.651  0.00  0.00    +0.000 F 
ATOM     29  F   UNL     1      -1.982  13.401  23.002  0.00  0.00    +0.000 F 
ENDBRANCH  25  26
ENDBRANCH  21  25
ENDBRANCH   4  18
TORSDOF 6
ENDMDL
MODEL 3
REMARK VINA RESULT:      -7.6      7.344      8.857
REMARK  Name = 
REMARK  7 active torsions:
REMARK  status: ('A' for Active; 'I' for Inactive)
REMARK    1  A    between atoms: C_1  and  C_2
REMARK    2  A    between atoms: C_2  and  O_3
REMARK    3  A    between atoms: O_3  and  C_4
REMARK    4  A    between atoms: C_9  and  N_10
REMARK    5  A    between atoms: N_13  and  C_14
REMARK    6  A    between atoms: C_17  and  O_18
REMARK    7  A    between atoms: O_18  and  C_19
REMARK                            x       y       z     vdW  Elec       q    Type
REMARK                         _______ _______ _______ _____ _____    ______ ____
ROOT
ATOM      1  N   UNL     1       7.837   6.910  18.314  0.00  0.00    +0.000 N 
ATOM      2  C   UNL     1       8.222   8.219  18.127  0.00  0.00    +0.000 C 
ATOM      3  O   UNL     1       7.967   8.809  17.080  0.00  0.00    +0.000 OA
ATOM      4  N   UNL     1       8.876   8.755  19.215  0.00  0.00    +0.000 N 
ATOM      5  H   UNL     1       8.258   6.386  19.067  0.00  0.00    +0.000 HD
ATOM      6  H   UNL     1       9.285   8.106  19.869  0.00  0.00    +0.000 HD
ENDROOT
BRANCH   1  12
ATOM      7  C   UNL     1       3.362   4.610  18.119  0.00  0.00    +0.000 C 
ATOM      8  O   UNL     1       2.322   5.216  17.893  0.00  0.00    +0.000 OA
ATOM      9  N   UNL     1       4.618   5.182  18.060  0.00  0.00    +0.000 N 
ATOM     10  C   UNL     1       4.741   6.606  17.795  0.00  0.00    +0.000 C 
ATOM     11  C   UNL     1       5.865   6.872  16.807  0.00  0.00    +0.000 C 
ATOM     12  C   UNL     1       7.174   6.200  17.222  0.00  0.00    +0.000 C 
ATOM     13  C   UNL     1       6.967   4.713  17.551  0.00  0.00    +0.000 C 
ATOM     14  C   UNL     1       5.824   4.508  18.532  0.00  0.00    +0.000 C 
BRANCH   7  15
ATOM     15  O   UNL     1       3.414   3.314  18.518  0.00  0.00    +0.000 OA
BRANCH  15  17
ATOM     16  C   UNL     1       1.425   2.062  18.895  0.00  0.00    +0.000 C 
ATOM     17  C   UNL     1       2.487   2.433  17.876  0.00  0.00    +0.000 C 
ENDBRANCH  15  17
ENDBRANCH   7  15
ENDBRANCH   1  12
BRANCH   4  18
ATOM     18  C   UNL     1       9.259  10.114  19.315  0.00  0.00    +0.000 A 
ATOM     19  C   UNL     1       9.267  10.797  20.535  0.00  0.00    +0.000 A 
ATOM     20  C   UNL     1       9.566  12.160  20.593  0.00  0.00    +0.000 A 
ATOM     21  C   UNL     1       9.888  12.861  19.435  0.00  0.00    +0.000 A 
ATOM     22  C   UNL     1       9.898  12.176  18.220  0.00  0.00    +0.000 A 
ATOM     23  F   UNL     1      10.104  12.827  17.068  0.00  0.00    +0.000 F 
ATOM     24  C   UNL     1       9.621  10.804  18.159  0.00  0.00    +0.000 A 
BRANCH  21  25
ATOM     25  O   UNL     1      10.059  14.197  19.624  0.00  0.00    +0.000 OA
BRANCH  25  26
ATOM     26  C   UNL     1      11.370  14.723  19.755  0.00  0.00    +0.000 C 
ATOM     27  F   UNL     1      11.552  15.521  20.823  0.00  0.00    +0.000 F 
ATOM     28  F   UNL     1      12.253  13.703  19.796  0.00  0.00    +0.000 F 
ATOM     29  F   UNL     1      11.635  15.458  18.649  0.00  0.00    +0.000 F 
ENDBRANCH  25  26
ENDBRANCH  21  25
ENDBRANCH   4  18
TORSDOF 6
ENDMDL
MODEL 4
REMARK VINA RESULT:      -7.5      6.943      8.822
REMARK  Name = 
REMARK  7 active torsions:
REMARK  status: ('A' for Active; 'I' for Inactive)
REMARK    1  A    between atoms: C_1  and  C_2
REMARK    2  A    between atoms: C_2  and  O_3
REMARK    3  A    between atoms: O_3  and  C_4
REMARK    4  A    between atoms: C_9  and  N_10
REMARK    5  A    between atoms: N_13  and  C_14
REMARK    6  A    between atoms: C_17  and  O_18
REMARK    7  A    between atoms: O_18  and  C_19
REMARK                            x       y       z     vdW  Elec       q    Type
REMARK                         _______ _______ _______ _____ _____    ______ ____
ROOT
ATOM      1  N   UNL     1       6.984   6.954  17.482  0.00  0.00    +0.000 N 
ATOM      2  C   UNL     1       7.906   7.681  18.201  0.00  0.00    +0.000 C 
ATOM      3  O   UNL     1       8.648   7.133  19.013  0.00  0.00    +0.000 OA
ATOM      4  N   UNL     1       7.902   9.024  17.893  0.00  0.00    +0.000 N 
ATOM      5  H   UNL     1       6.242   7.449  17.009  0.00  0.00    +0.000 HD
ATOM      6  H   UNL     1       7.071   9.391  17.455  0.00  0.00    +0.000 HD
ENDROOT
BRANCH   1  12
ATOM      7  C   UNL     1       2.885   4.062  17.918  0.00  0.00    +0.000 C 
ATOM      8  O   UNL     1       2.310   3.588  16.947  0.00  0.00    +0.000 OA
ATOM      9  N   UNL     1       4.078   4.756  17.848  0.00  0.00    +0.000 N 
ATOM     10  C   UNL     1       4.670   5.026  16.548  0.00  0.00    +0.000 C 
ATOM     11  C   UNL     1       6.170   4.788  16.583  0.00  0.00    +0.000 C 
ATOM     12  C   UNL     1       6.847   5.522  17.741  0.00  0.00    +0.000 C 
ATOM     13  C   UNL     1       6.138   5.249  19.076  0.00  0.00    +0.000 C 
ATOM     14  C   UNL     1       4.640   5.490  18.977  0.00  0.00    +0.000 C 
BRANCH   7  15
ATOM     15  O   UNL     1       2.396   4.023  19.184  0.00  0.00    +0.000 OA
BRANCH  15  17
ATOM     16  C   UNL     1       1.322   2.878  20.972  0.00  0.00    +0.000 C 
ATOM     17  C   UNL     1       2.148   2.716  19.710  0.00  0.00    +0.000 C 
ENDBRANCH  15  17
ENDBRANCH   7  15
ENDBRANCH   1  12
BRANCH   4  18
ATOM     18  C   UNL     1       8.837   9.955  18.405  0.00  0.00    +0.000 A 
ATOM     19  C   UNL     1       9.034  10.136  19.777  0.00  0.00    +0.000 A 
ATOM     20  C   UNL     1       9.899  11.121  20.255  0.00  0.00    +0.000 A 
ATOM     21  C   UNL     1      10.605  11.930  19.370  0.00  0.00    +0.000 A 
ATOM     22  C   UNL     1      10.422  11.740  18.000  0.00  0.00    +0.000 A 
ATOM     23  F   UNL     1      11.002  12.557  17.111  0.00  0.00    +0.000 F 
ATOM     24  C   UNL     1       9.573  10.737  17.514  0.00  0.00    +0.000 A 
BRANCH  21  25
ATOM     25  O   UNL     1      11.332  12.909  19.971  0.00  0.00    +0.000 OA
BRANCH  25  26
ATOM     26  C   UNL     1      10.855  14.244  19.958  0.00  0.00    +0.000 C 
ATOM     27  F   UNL     1      11.072  14.931  21.095  0.00  0.00    +0.000 F 
ATOM     28  F   UNL     1      11.410  14.903  18.918  0.00  0.00    +0.000 F 
ATOM     29  F   UNL     1       9.516  14.205  19.757  0.00  0.00    +0.000 F 
ENDBRANCH  25  26
ENDBRANCH  21  25
ENDBRANCH   4  18
TORSDOF 6
ENDMDL
MODEL 5
REMARK VINA RESULT:      -7.5      6.996      8.795
REMARK  Name = 
REMARK  7 active torsions:
REMARK  status: ('A' for Active; 'I' for Inactive)
REMARK    1  A    between atoms: C_1  and  C_2
REMARK    2  A    between atoms: C_2  and  O_3
REMARK    3  A    between atoms: O_3  and  C_4
REMARK    4  A    between atoms: C_9  and  N_10
REMARK    5  A    between atoms: N_13  and  C_14
REMARK    6  A    between atoms: C_17  and  O_18
REMARK    7  A    between atoms: O_18  and  C_19
REMARK                            x       y       z     vdW  Elec       q    Type
REMARK                         _______ _______ _______ _____ _____    ______ ____
ROOT
ATOM      1  N   UNL     1       6.993   6.825  17.104  0.00  0.00    +0.000 N 
ATOM      2  C   UNL     1       7.749   7.696  17.855  0.00  0.00    +0.000 C 
ATOM      3  O   UNL     1       8.464   7.287  18.767  0.00  0.00    +0.000 OA
ATOM      4  N   UNL     1       7.620   9.009  17.460  0.00  0.00    +0.000 N 
ATOM      5  H   UNL     1       6.249   7.199  16.534  0.00  0.00    +0.000 HD
ATOM      6  H   UNL     1       6.800   9.249  16.925  0.00  0.00    +0.000 HD
ENDROOT
BRANCH   1  12
ATOM      7  C   UNL     1       3.196   3.589  17.789  0.00  0.00    +0.000 C 
ATOM      8  O   UNL     1       2.651   3.009  16.858  0.00  0.00    +0.000 OA
ATOM      9  N   UNL     1       4.316   4.387  17.654  0.00  0.00    +0.000 N 
ATOM     10  C   UNL     1       4.857   4.638  16.329  0.00  0.00    +0.000 C 
ATOM     11  C   UNL     1       6.373   4.544  16.342  0.00  0.00    +0.000 C 
ATOM     12  C   UNL     1       6.997   5.402  17.443  0.00  0.00    +0.000 C 
ATOM     13  C   UNL     1       6.341   5.139  18.807  0.00  0.00    +0.000 C 
ATOM     14  C   UNL     1       4.825   5.233  18.729  0.00  0.00    +0.000 C 
BRANCH   7  15
ATOM     15  O   UNL     1       2.734   3.575  19.065  0.00  0.00    +0.000 OA
BRANCH  15  17
ATOM     16  C   UNL     1       0.954   3.415  20.637  0.00  0.00    +0.000 C 
ATOM     17  C   UNL     1       1.328   3.792  19.215  0.00  0.00    +0.000 C 
ENDBRANCH  15  17
ENDBRANCH   7  15
ENDBRANCH   1  12
BRANCH   4  18
ATOM     18  C   UNL     1       8.386  10.074  17.994  0.00  0.00    +0.000 A 
ATOM     19  C   UNL     1       9.275   9.892  19.057  0.00  0.00    +0.000 A 
ATOM     20  C   UNL     1       9.953  10.974  19.619  0.00  0.00    +0.000 A 
ATOM     21  C   UNL     1       9.775  12.258  19.114  0.00  0.00    +0.000 A 
ATOM     22  C   UNL     1       8.901  12.439  18.042  0.00  0.00    +0.000 A 
ATOM     23  F   UNL     1       8.620  13.667  17.585  0.00  0.00    +0.000 F 
ATOM     24  C   UNL     1       8.236  11.353  17.459  0.00  0.00    +0.000 A 
BRANCH  21  25
ATOM     25  O   UNL     1      10.419  13.227  19.819  0.00  0.00    +0.000 OA
BRANCH  25  26
ATOM     26  C   UNL     1      11.500  13.924  19.222  0.00  0.00    +0.000 C 
ATOM     27  F   UNL     1      12.279  13.175  18.420  0.00  0.00    +0.000 F 
ATOM     28  F   UNL     1      11.019  14.979  18.530  0.00  0.00    +0.000 F 
ATOM     29  F   UNL     1      12.284  14.403  20.217  0.00  0.00    +0.000 F 
ENDBRANCH  25  26
ENDBRANCH  21  25
ENDBRANCH   4  18
TORSDOF 6
ENDMDL
MODEL 6
REMARK VINA RESULT:      -7.5      1.362      1.585
REMARK  Name = 
REMARK  7 active torsions:
REMARK  status: ('A' for Active; 'I' for Inactive)
REMARK    1  A    between atoms: C_1  and  C_2
REMARK    2  A    between atoms: C_2  and  O_3
REMARK    3  A    between atoms: O_3  and  C_4
REMARK    4  A    between atoms: C_9  and  N_10
REMARK    5  A    between atoms: N_13  and  C_14
REMARK    6  A    between atoms: C_17  and  O_18
REMARK    7  A    between atoms: O_18  and  C_19
REMARK                            x       y       z     vdW  Elec       q    Type
REMARK                         _______ _______ _______ _____ _____    ______ ____
ROOT
ATOM      1  N   UNL     1       3.281   5.789  19.928  0.00  0.00    +0.000 N 
ATOM      2  C   UNL     1       2.301   6.741  19.761  0.00  0.00    +0.000 C 
ATOM      3  O   UNL     1       1.555   6.715  18.784  0.00  0.00    +0.000 OA
ATOM      4  N   UNL     1       2.256   7.662  20.784  0.00  0.00    +0.000 N 
ATOM      5  H   UNL     1       4.017   5.967  20.595  0.00  0.00    +0.000 HD
ATOM      6  H   UNL     1       3.085   7.761  21.349  0.00  0.00    +0.000 HD
ENDROOT
BRANCH   1  12
ATOM      7  C   UNL     1       7.192   4.887  16.886  0.00  0.00    +0.000 C 
ATOM      8  O   UNL     1       8.153   4.214  17.235  0.00  0.00    +0.000 OA
ATOM      9  N   UNL     1       6.049   5.055  17.644  0.00  0.00    +0.000 N 
ATOM     10  C   UNL     1       5.986   4.476  18.976  0.00  0.00    +0.000 C 
ATOM     11  C   UNL     1       4.632   3.831  19.217  0.00  0.00    +0.000 C 
ATOM     12  C   UNL     1       3.474   4.775  18.892  0.00  0.00    +0.000 C 
ATOM     13  C   UNL     1       3.630   5.405  17.499  0.00  0.00    +0.000 C 
ATOM     14  C   UNL     1       5.007   6.021  17.312  0.00  0.00    +0.000 C 
BRANCH   7  15
ATOM     15  O   UNL     1       7.147   5.608  15.737  0.00  0.00    +0.000 OA
BRANCH  15  17
ATOM     16  C   UNL     1       5.851   4.318  14.214  0.00  0.00    +0.000 C 
ATOM     17  C   UNL     1       7.238   4.848  14.528  0.00  0.00    +0.000 C 
ENDBRANCH  15  17
ENDBRANCH   7  15
ENDBRANCH   1  12
BRANCH   4  18
ATOM     18  C   UNL     1       1.260   8.662  20.905  0.00  0.00    +0.000 A 
ATOM     19  C   UNL     1       0.929   9.514  19.847  0.00  0.00    +0.000 A 
ATOM     20  C   UNL     1       0.005  10.546  20.019  0.00  0.00    +0.000 A 
ATOM     21  C   UNL     1      -0.625  10.732  21.246  0.00  0.00    +0.000 A 
ATOM     22  C   UNL     1      -0.309   9.871  22.297  0.00  0.00    +0.000 A 
ATOM     23  F   UNL     1      -0.813  10.070  23.521  0.00  0.00    +0.000 F 
ATOM     24  C   UNL     1       0.600   8.819  22.123  0.00  0.00    +0.000 A 
BRANCH  21  25
ATOM     25  O   UNL     1      -1.423  11.832  21.300  0.00  0.00    +0.000 OA
BRANCH  25  26
ATOM     26  C   UNL     1      -0.939  13.019  21.906  0.00  0.00    +0.000 C 
ATOM     27  F   UNL     1       0.396  13.176  21.849  0.00  0.00    +0.000 F 
ATOM     28  F   UNL     1      -1.545  14.084  21.338  0.00  0.00    +0.000 F 
ATOM     29  F   UNL     1      -1.290  12.991  23.213  0.00  0.00    +0.000 F 
ENDBRANCH  25  26
ENDBRANCH  21  25
ENDBRANCH   4  18
TORSDOF 6
ENDMDL
MODEL 7
REMARK VINA RESULT:      -7.5      0.906      1.074
REMARK  Name = 
REMARK  7 active torsions:
REMARK  status: ('A' for Active; 'I' for Inactive)
REMARK    1  A    between atoms: C_1  and  C_2
REMARK    2  A    between atoms: C_2  and  O_3
REMARK    3  A    between atoms: O_3  and  C_4
REMARK    4  A    between atoms: C_9  and  N_10
REMARK    5  A    between atoms: N_13  and  C_14
REMARK    6  A    between atoms: C_17  and  O_18
REMARK    7  A    between atoms: O_18  and  C_19
REMARK                            x       y       z     vdW  Elec       q    Type
REMARK                         _______ _______ _______ _____ _____    ______ ____
ROOT
ATOM      1  N   UNL     1       3.133   6.768  18.772  0.00  0.00    +0.000 N 
ATOM      2  C   UNL     1       2.141   7.232  19.606  0.00  0.00    +0.000 C 
ATOM      3  O   UNL     1       1.674   6.517  20.490  0.00  0.00    +0.000 OA
ATOM      4  N   UNL     1       1.775   8.534  19.346  0.00  0.00    +0.000 N 
ATOM      5  H   UNL     1       3.325   7.277  17.922  0.00  0.00    +0.000 HD
ATOM      6  H   UNL     1       1.998   8.900  18.434  0.00  0.00    +0.000 HD
ENDROOT
BRANCH   1  12
ATOM      7  C   UNL     1       6.831   4.276  16.432  0.00  0.00    +0.000 C 
ATOM      8  O   UNL     1       7.996   4.328  16.806  0.00  0.00    +0.000 OA
ATOM      9  N   UNL     1       5.773   4.845  17.116  0.00  0.00    +0.000 N 
ATOM     10  C   UNL     1       6.037   5.626  18.313  0.00  0.00    +0.000 C 
ATOM     11  C   UNL     1       5.030   5.296  19.402  0.00  0.00    +0.000 C 
ATOM     12  C   UNL     1       3.587   5.385  18.904  0.00  0.00    +0.000 C 
ATOM     13  C   UNL     1       3.387   4.592  17.603  0.00  0.00    +0.000 C 
ATOM     14  C   UNL     1       4.429   4.954  16.557  0.00  0.00    +0.000 C 
BRANCH   7  15
ATOM     15  O   UNL     1       6.432   3.709  15.265  0.00  0.00    +0.000 OA
BRANCH  15  17
ATOM     16  C   UNL     1       6.223   3.665  12.895  0.00  0.00    +0.000 C 
ATOM     17  C   UNL     1       6.839   4.392  14.076  0.00  0.00    +0.000 C 
ENDBRANCH  15  17
ENDBRANCH   7  15
ENDBRANCH   1  12
BRANCH   4  18
ATOM     18  C   UNL     1       0.868   9.274  20.143  0.00  0.00    +0.000 A 
ATOM     19  C   UNL     1      -0.073  10.146  19.587  0.00  0.00    +0.000 A 
ATOM     20  C   UNL     1      -0.896  10.927  20.399  0.00  0.00    +0.000 A 
ATOM     21  C   UNL     1      -0.813  10.835  21.785  0.00  0.00    +0.000 A 
ATOM     22  C   UNL     1       0.112   9.952  22.341  0.00  0.00    +0.000 A 
ATOM     23  F   UNL     1       0.299   9.900  23.667  0.00  0.00    +0.000 F 
ATOM     24  C   UNL     1       0.925   9.149  21.531  0.00  0.00    +0.000 A 
BRANCH  21  25
ATOM     25  O   UNL     1      -1.601  11.722  22.449  0.00  0.00    +0.000 OA
BRANCH  25  26
ATOM     26  C   UNL     1      -1.143  13.048  22.655  0.00  0.00    +0.000 C 
ATOM     27  F   UNL     1       0.148  13.253  22.334  0.00  0.00    +0.000 F 
ATOM     28  F   UNL     1      -1.924  13.900  21.958  0.00  0.00    +0.000 F 
ATOM     29  F   UNL     1      -1.284  13.337  23.971  0.00  0.00    +0.000 F 
ENDBRANCH  25  26
ENDBRANCH  21  25
ENDBRANCH   4  18
TORSDOF 6
ENDMDL
MODEL 8
REMARK VINA RESULT:      -7.5      4.915     10.392
REMARK  Name = 
REMARK  7 active torsions:
REMARK  status: ('A' for Active; 'I' for Inactive)
REMARK    1  A    between atoms: C_1  and  C_2
REMARK    2  A    between atoms: C_2  and  O_3
REMARK    3  A    between atoms: O_3  and  C_4
REMARK    4  A    between atoms: C_9  and  N_10
REMARK    5  A    between atoms: N_13  and  C_14
REMARK    6  A    between atoms: C_17  and  O_18
REMARK    7  A    between atoms: O_18  and  C_19
REMARK                            x       y       z     vdW  Elec       q    Type
REMARK                         _______ _______ _______ _____ _____    ______ ____
ROOT
ATOM      1  N   UNL     1       1.208   9.372  19.230  0.00  0.00    +0.000 N 
ATOM      2  C   UNL     1       1.938   8.566  18.386  0.00  0.00    +0.000 C 
ATOM      3  O   UNL     1       2.186   8.917  17.235  0.00  0.00    +0.000 OA
ATOM      4  N   UNL     1       2.347   7.390  18.975  0.00  0.00    +0.000 N 
ATOM      5  H   UNL     1       0.822   8.967  20.070  0.00  0.00    +0.000 HD
ATOM      6  H   UNL     1       1.839   7.085  19.791  0.00  0.00    +0.000 HD
ENDROOT
BRANCH   1  12
ATOM      7  C   UNL     1      -0.495  13.443  21.656  0.00  0.00    +0.000 C 
ATOM      8  O   UNL     1       0.250  14.326  22.060  0.00  0.00    +0.000 OA
ATOM      9  N   UNL     1      -0.082  12.375  20.883  0.00  0.00    +0.000 N 
ATOM     10  C   UNL     1       1.331  12.220  20.580  0.00  0.00    +0.000 C 
ATOM     11  C   UNL     1       1.529  11.832  19.124  0.00  0.00    +0.000 C 
ATOM     12  C   UNL     1       0.669  10.633  18.722  0.00  0.00    +0.000 C 
ATOM     13  C   UNL     1      -0.800  10.829  19.125  0.00  0.00    +0.000 C 
ATOM     14  C   UNL     1      -0.935  11.228  20.586  0.00  0.00    +0.000 C 
BRANCH   7  15
ATOM     15  O   UNL     1      -1.814  13.362  21.968  0.00  0.00    +0.000 OA
BRANCH  15  17
ATOM     16  C   UNL     1      -3.267  12.413  23.596  0.00  0.00    +0.000 C 
ATOM     17  C   UNL     1      -2.121  13.380  23.365  0.00  0.00    +0.000 C 
ENDBRANCH  15  17
ENDBRANCH   7  15
ENDBRANCH   1  12
BRANCH   4  18
ATOM     18  C   UNL     1       3.211   6.455  18.356  0.00  0.00    +0.000 A 
ATOM     19  C   UNL     1       4.558   6.736  18.108  0.00  0.00    +0.000 A 
ATOM     20  C   UNL     1       5.365   5.830  17.419  0.00  0.00    +0.000 A 
ATOM     21  C   UNL     1       4.849   4.613  16.984  0.00  0.00    +0.000 A 
ATOM     22  C   UNL     1       3.510   4.324  17.246  0.00  0.00    +0.000 A 
ATOM     23  F   UNL     1       2.942   3.212  16.762  0.00  0.00    +0.000 F 
ATOM     24  C   UNL     1       2.701   5.219  17.957  0.00  0.00    +0.000 A 
BRANCH  21  25
ATOM     25  O   UNL     1       5.717   3.874  16.243  0.00  0.00    +0.000 OA
BRANCH  25  26
ATOM     26  C   UNL     1       6.105   4.331  14.958  0.00  0.00    +0.000 C 
ATOM     27  F   UNL     1       5.299   5.270  14.427  0.00  0.00    +0.000 F 
ATOM     28  F   UNL     1       7.369   4.801  15.017  0.00  0.00    +0.000 F 
ATOM     29  F   UNL     1       6.096   3.268  14.118  0.00  0.00    +0.000 F 
ENDBRANCH  25  26
ENDBRANCH  21  25
ENDBRANCH   4  18
TORSDOF 6
ENDMDL
MODEL 9
REMARK VINA RESULT:      -7.5      6.383      8.202
REMARK  Name = 
REMARK  7 active torsions:
REMARK  status: ('A' for Active; 'I' for Inactive)
REMARK    1  A    between atoms: C_1  and  C_2
REMARK    2  A    between atoms: C_2  and  O_3
REMARK    3  A    between atoms: O_3  and  C_4
REMARK    4  A    between atoms: C_9  and  N_10
REMARK    5  A    between atoms: N_13  and  C_14
REMARK    6  A    between atoms: C_17  and  O_18
REMARK    7  A    between atoms: O_18  and  C_19
REMARK                            x       y       z     vdW  Elec       q    Type
REMARK                         _______ _______ _______ _____ _____    ______ ____
ROOT
ATOM      1  N   UNL     1       6.997   6.768  17.035  0.00  0.00    +0.000 N 
ATOM      2  C   UNL     1       7.723   7.603  17.854  0.00  0.00    +0.000 C 
ATOM      3  O   UNL     1       8.341   7.160  18.819  0.00  0.00    +0.000 OA
ATOM      4  N   UNL     1       7.682   8.923  17.460  0.00  0.00    +0.000 N 
ATOM      5  H   UNL     1       6.319   7.177  16.407  0.00  0.00    +0.000 HD
ATOM      6  H   UNL     1       6.920   9.199  16.861  0.00  0.00    +0.000 HD
ENDROOT
BRANCH   1  12
ATOM      7  C   UNL     1       3.008   3.796  17.819  0.00  0.00    +0.000 C 
ATOM      8  O   UNL     1       2.395   3.265  16.902  0.00  0.00    +0.000 OA
ATOM      9  N   UNL     1       4.176   4.516  17.654  0.00  0.00    +0.000 N 
ATOM     10  C   UNL     1       4.689   4.743  16.313  0.00  0.00    +0.000 C 
ATOM     11  C   UNL     1       6.195   4.545  16.274  0.00  0.00    +0.000 C 
ATOM     12  C   UNL     1       6.913   5.345  17.361  0.00  0.00    +0.000 C 
ATOM     13  C   UNL     1       6.285   5.113  18.744  0.00  0.00    +0.000 C 
ATOM     14  C   UNL     1       4.778   5.312  18.718  0.00  0.00    +0.000 C 
BRANCH   7  15
ATOM     15  O   UNL     1       2.589   3.800  19.110  0.00  0.00    +0.000 OA
BRANCH  15  17
ATOM     16  C   UNL     1       1.350   2.824  20.891  0.00  0.00    +0.000 C 
ATOM     17  C   UNL     1       2.107   2.547  19.606  0.00  0.00    +0.000 C 
ENDBRANCH  15  17
ENDBRANCH   7  15
ENDBRANCH   1  12
BRANCH   4  18
ATOM     18  C   UNL     1       8.444   9.951  18.065  0.00  0.00    +0.000 A 
ATOM     19  C   UNL     1       9.233   9.726  19.197  0.00  0.00    +0.000 A 
ATOM     20  C   UNL     1       9.906  10.777  19.823  0.00  0.00    +0.000 A 
ATOM     21  C   UNL     1       9.824  12.070  19.316  0.00  0.00    +0.000 A 
ATOM     22  C   UNL     1       9.051  12.292  18.177  0.00  0.00    +0.000 A 
ATOM     23  F   UNL     1       8.860  13.533  17.709  0.00  0.00    +0.000 F 
ATOM     24  C   UNL     1       8.392  11.238  17.531  0.00  0.00    +0.000 A 
BRANCH  21  25
ATOM     25  O   UNL     1      10.446  13.007  20.080  0.00  0.00    +0.000 OA
BRANCH  25  26
ATOM     26  C   UNL     1       9.814  13.483  21.256  0.00  0.00    +0.000 C 
ATOM     27  F   UNL     1       9.792  12.607  22.278  0.00  0.00    +0.000 F 
ATOM     28  F   UNL     1      10.416  14.625  21.652  0.00  0.00    +0.000 F 
ATOM     29  F   UNL     1       8.529  13.778  20.947  0.00  0.00    +0.000 F 
ENDBRANCH  25  26
ENDBRANCH  21  25
ENDBRANCH   4  18
TORSDOF 6
ENDMDL
