MODEL 1
REMARK VINA RESULT:      -7.7      0.000      0.000
REMARK  Name = 
REMARK  4 active torsions:
REMARK  status: ('A' for Active; 'I' for Inactive)
REMARK    1  A    between atoms: N_1  and  C_2
REMARK    2  A    between atoms: C_10  and  N_11
REMARK    3  A    between atoms: N_11  and  C_12
REMARK    4  A    between atoms: C_15  and  N_16
REMARK                            x       y       z     vdW  Elec       q    Type
REMARK                         _______ _______ _______ _____ _____    ______ ____
ROOT
ATOM      1  N   UNL     1       3.252   6.105  19.613  0.00  0.00    +0.000 N 
ATOM      2  H   UNL     1       3.516   5.889  20.570  0.00  0.00    +0.000 HD
ENDROOT
BRANCH   1  11
ATOM      3  C   UNL     1       3.099   4.551  17.742  0.00  0.00    +0.000 A 
ATOM      4  O   UNL     1       3.931   4.012  16.814  0.00  0.00    +0.000 OA
ATOM      5  C   UNL     1       5.190   4.445  17.111  0.00  0.00    +0.000 A 
ATOM      6  C   UNL     1       6.350   4.136  16.422  0.00  0.00    +0.000 A 
ATOM      7  N   UNL     1       7.533   4.618  16.884  0.00  0.00    +0.000 NA
ATOM      8  C   UNL     1       7.539   5.363  18.014  0.00  0.00    +0.000 A 
ATOM      9  C   UNL     1       6.407   5.706  18.739  0.00  0.00    +0.000 A 
ATOM     10  C   UNL     1       5.174   5.252  18.242  0.00  0.00    +0.000 A 
ATOM     11  C   UNL     1       3.796   5.375  18.604  0.00  0.00    +0.000 A 
BRANCH   3  12
ATOM     12  N   UNL     1       1.801   4.227  17.632  0.00  0.00    +0.000 N 
ATOM     13  H   UNL     1       1.425   3.595  18.334  0.00  0.00    +0.000 HD
ATOM     14  H   UNL     1       1.403   4.090  16.710  0.00  0.00    +0.000 HD
ENDBRANCH   3  12
ENDBRANCH   1  11
BRANCH   1  15
ATOM     15  C   UNL     1       2.367   7.196  19.500  0.00  0.00    +0.000 A 
ATOM     16  C   UNL     1       2.298   7.967  18.336  0.00  0.00    +0.000 A 
ATOM     17  C   UNL     1       1.645   9.204  18.322  0.00  0.00    +0.000 A 
ATOM     18  C   UNL     1       1.022   9.722  19.461  0.00  0.00    +0.000 A 
ATOM     19  C   UNL     1       0.997   8.877  20.584  0.00  0.00    +0.000 A 
ATOM     20  C   UNL     1       1.659   7.639  20.611  0.00  0.00    +0.000 A 
BRANCH  18  21
ATOM     21  N   UNL     1       0.499  10.998  19.498  0.00  0.00    +0.000 N 
ATOM     22  C   UNL     1      -0.936  11.304  19.382  0.00  0.00    +0.000 C 
ATOM     23  C   UNL     1      -1.169  12.318  18.252  0.00  0.00    +0.000 C 
ATOM     24  O   UNL     1      -0.390  13.511  18.448  0.00  0.00    +0.000 OA
ATOM     25  C   UNL     1       1.009  13.184  18.472  0.00  0.00    +0.000 C 
ATOM     26  C   UNL     1       1.353  12.195  19.599  0.00  0.00    +0.000 C 
ENDBRANCH  18  21
ENDBRANCH   1  15
TORSDOF 4
ENDMDL
MODEL 2
REMARK VINA RESULT:      -7.6      2.061      3.616
REMARK  Name = 
REMARK  4 active torsions:
REMARK  status: ('A' for Active; 'I' for Inactive)
REMARK    1  A    between atoms: N_1  and  C_2
REMARK    2  A    between atoms: C_10  and  N_11
REMARK    3  A    between atoms: N_11  and  C_12
REMARK    4  A    between atoms: C_15  and  N_16
REMARK                            x       y       z     vdW  Elec       q    Type
REMARK                         _______ _______ _______ _____ _____    ______ ____
ROOT
ATOM      1  N   UNL     1       3.211   6.819  17.370  0.00  0.00    +0.000 N 
ATOM      2  H   UNL     1       3.263   7.233  16.444  0.00  0.00    +0.000 HD
ENDROOT
BRANCH   1  11
ATOM      3  C   UNL     1       4.972   5.133  17.376  0.00  0.00    +0.000 A 
ATOM      4  O   UNL     1       5.101   3.817  17.685  0.00  0.00    +0.000 OA
ATOM      5  C   UNL     1       3.855   3.360  18.001  0.00  0.00    +0.000 A 
ATOM      6  C   UNL     1       3.523   2.070  18.377  0.00  0.00    +0.000 A 
ATOM      7  N   UNL     1       2.218   1.774  18.614  0.00  0.00    +0.000 NA
ATOM      8  C   UNL     1       1.287   2.742  18.451  0.00  0.00    +0.000 A 
ATOM      9  C   UNL     1       1.566   4.051  18.083  0.00  0.00    +0.000 A 
ATOM     10  C   UNL     1       2.917   4.379  17.882  0.00  0.00    +0.000 A 
ATOM     11  C   UNL     1       3.666   5.549  17.545  0.00  0.00    +0.000 A 
BRANCH   3  12
ATOM     12  N   UNL     1       6.098   5.769  17.016  0.00  0.00    +0.000 N 
ATOM     13  H   UNL     1       6.376   5.692  16.042  0.00  0.00    +0.000 HD
ATOM     14  H   UNL     1       6.880   5.790  17.660  0.00  0.00    +0.000 HD
ENDBRANCH   3  12
ENDBRANCH   1  11
BRANCH   1  15
ATOM     15  C   UNL     1       2.613   7.655  18.334  0.00  0.00    +0.000 A 
ATOM     16  C   UNL     1       2.462   7.250  19.663  0.00  0.00    +0.000 A 
ATOM     17  C   UNL     1       1.623   7.943  20.543  0.00  0.00    +0.000 A 
ATOM     18  C   UNL     1       0.911   9.077  20.142  0.00  0.00    +0.000 A 
ATOM     19  C   UNL     1       1.173   9.537  18.840  0.00  0.00    +0.000 A 
ATOM     20  C   UNL     1       2.004   8.842  17.947  0.00  0.00    +0.000 A 
BRANCH  18  21
ATOM     21  N   UNL     1      -0.023   9.684  20.955  0.00  0.00    +0.000 N 
ATOM     22  C   UNL     1      -0.542  11.044  20.740  0.00  0.00    +0.000 C 
ATOM     23  C   UNL     1      -0.360  11.886  22.012  0.00  0.00    +0.000 C 
ATOM     24  O   UNL     1      -0.978  11.259  23.149  0.00  0.00    +0.000 OA
ATOM     25  C   UNL     1      -0.389   9.970  23.380  0.00  0.00    +0.000 C 
ATOM     26  C   UNL     1      -0.551   9.035  22.168  0.00  0.00    +0.000 C 
ENDBRANCH  18  21
ENDBRANCH   1  15
TORSDOF 4
ENDMDL
MODEL 3
REMARK VINA RESULT:      -7.6      1.654      2.990
REMARK  Name = 
REMARK  4 active torsions:
REMARK  status: ('A' for Active; 'I' for Inactive)
REMARK    1  A    between atoms: N_1  and  C_2
REMARK    2  A    between atoms: C_10  and  N_11
REMARK    3  A    between atoms: N_11  and  C_12
REMARK    4  A    between atoms: C_15  and  N_16
REMARK                            x       y       z     vdW  Elec       q    Type
REMARK                         _______ _______ _______ _____ _____    ______ ____
ROOT
ATOM      1  N   UNL     1       3.811   6.707  18.091  0.00  0.00    +0.000 N 
ATOM      2  H   UNL     1       4.422   7.137  17.403  0.00  0.00    +0.000 HD
ENDROOT
BRANCH   1  11
ATOM      3  C   UNL     1       5.308   4.995  18.967  0.00  0.00    +0.000 A 
ATOM      4  O   UNL     1       5.230   3.697  19.359  0.00  0.00    +0.000 OA
ATOM      5  C   UNL     1       3.957   3.281  19.098  0.00  0.00    +0.000 A 
ATOM      6  C   UNL     1       3.437   2.021  19.341  0.00  0.00    +0.000 A 
ATOM      7  N   UNL     1       2.154   1.762  18.975  0.00  0.00    +0.000 NA
ATOM      8  C   UNL     1       1.438   2.734  18.367  0.00  0.00    +0.000 A 
ATOM      9  C   UNL     1       1.907   4.015  18.106  0.00  0.00    +0.000 A 
ATOM     10  C   UNL     1       3.216   4.307  18.523  0.00  0.00    +0.000 A 
ATOM     11  C   UNL     1       4.085   5.442  18.509  0.00  0.00    +0.000 A 
BRANCH   3  12
ATOM     12  N   UNL     1       6.502   5.589  19.127  0.00  0.00    +0.000 N 
ATOM     13  H   UNL     1       6.959   5.932  18.287  0.00  0.00    +0.000 HD
ATOM     14  H   UNL     1       7.147   5.223  19.817  0.00  0.00    +0.000 HD
ENDBRANCH   3  12
ENDBRANCH   1  11
BRANCH   1  15
ATOM     15  C   UNL     1       2.722   7.517  18.470  0.00  0.00    +0.000 A 
ATOM     16  C   UNL     1       2.213   8.504  17.622  0.00  0.00    +0.000 A 
ATOM     17  C   UNL     1       1.338   9.488  18.094  0.00  0.00    +0.000 A 
ATOM     18  C   UNL     1       0.922   9.525  19.429  0.00  0.00    +0.000 A 
ATOM     19  C   UNL     1       1.348   8.454  20.233  0.00  0.00    +0.000 A 
ATOM     20  C   UNL     1       2.235   7.468  19.770  0.00  0.00    +0.000 A 
BRANCH  18  21
ATOM     21  N   UNL     1       0.176  10.567  19.938  0.00  0.00    +0.000 N 
ATOM     22  C   UNL     1      -1.029  11.110  19.291  0.00  0.00    +0.000 C 
ATOM     23  C   UNL     1      -0.885  12.627  19.097  0.00  0.00    +0.000 C 
ATOM     24  O   UNL     1      -0.610  13.292  20.343  0.00  0.00    +0.000 OA
ATOM     25  C   UNL     1       0.616  12.796  20.903  0.00  0.00    +0.000 C 
ATOM     26  C   UNL     1       0.559  11.281  21.168  0.00  0.00    +0.000 C 
ENDBRANCH  18  21
ENDBRANCH   1  15
TORSDOF 4
ENDMDL
MODEL 4
REMARK VINA RESULT:      -7.6      1.850      3.277
REMARK  Name = 
REMARK  4 active torsions:
REMARK  status: ('A' for Active; 'I' for Inactive)
REMARK    1  A    between atoms: N_1  and  C_2
REMARK    2  A    between atoms: C_10  and  N_11
REMARK    3  A    between atoms: N_11  and  C_12
REMARK    4  A    between atoms: C_15  and  N_16
REMARK                            x       y       z     vdW  Elec       q    Type
REMARK                         _______ _______ _______ _____ _____    ______ ____
ROOT
ATOM      1  N   UNL     1       3.664   6.657  18.019  0.00  0.00    +0.000 N 
ATOM      2  H   UNL     1       4.229   7.005  17.250  0.00  0.00    +0.000 HD
ENDROOT
BRANCH   1  11
ATOM      3  C   UNL     1       5.126   4.960  18.981  0.00  0.00    +0.000 A 
ATOM      4  O   UNL     1       5.020   3.685  19.437  0.00  0.00    +0.000 OA
ATOM      5  C   UNL     1       3.739   3.282  19.194  0.00  0.00    +0.000 A 
ATOM      6  C   UNL     1       3.194   2.046  19.497  0.00  0.00    +0.000 A 
ATOM      7  N   UNL     1       1.907   1.795  19.142  0.00  0.00    +0.000 NA
ATOM      8  C   UNL     1       1.211   2.751  18.486  0.00  0.00    +0.000 A 
ATOM      9  C   UNL     1       1.706   4.007  18.163  0.00  0.00    +0.000 A 
ATOM     10  C   UNL     1       3.021   4.293  18.568  0.00  0.00    +0.000 A 
ATOM     11  C   UNL     1       3.912   5.408  18.499  0.00  0.00    +0.000 A 
BRANCH   3  12
ATOM     12  N   UNL     1       6.330   5.537  19.114  0.00  0.00    +0.000 N 
ATOM     13  H   UNL     1       6.624   6.162  18.368  0.00  0.00    +0.000 HD
ATOM     14  H   UNL     1       7.091   5.004  19.518  0.00  0.00    +0.000 HD
ENDBRANCH   3  12
ENDBRANCH   1  11
BRANCH   1  15
ATOM     15  C   UNL     1       2.657   7.550  18.436  0.00  0.00    +0.000 A 
ATOM     16  C   UNL     1       2.225   8.599  17.621  0.00  0.00    +0.000 A 
ATOM     17  C   UNL     1       1.449   9.645  18.132  0.00  0.00    +0.000 A 
ATOM     18  C   UNL     1       1.058   9.684  19.474  0.00  0.00    +0.000 A 
ATOM     19  C   UNL     1       1.398   8.559  20.245  0.00  0.00    +0.000 A 
ATOM     20  C   UNL     1       2.187   7.511  19.743  0.00  0.00    +0.000 A 
BRANCH  18  21
ATOM     21  N   UNL     1       0.415  10.774  20.021  0.00  0.00    +0.000 N 
ATOM     22  C   UNL     1       0.406  11.089  21.459  0.00  0.00    +0.000 C 
ATOM     23  C   UNL     1      -1.039  11.248  21.956  0.00  0.00    +0.000 C 
ATOM     24  O   UNL     1      -1.749  12.241  21.195  0.00  0.00    +0.000 OA
ATOM     25  C   UNL     1      -1.794  11.858  19.811  0.00  0.00    +0.000 C 
ATOM     26  C   UNL     1      -0.386  11.706  19.208  0.00  0.00    +0.000 C 
ENDBRANCH  18  21
ENDBRANCH   1  15
TORSDOF 4
ENDMDL
MODEL 5
REMARK VINA RESULT:      -7.5      0.921      1.716
REMARK  Name = 
REMARK  4 active torsions:
REMARK  status: ('A' for Active; 'I' for Inactive)
REMARK    1  A    between atoms: N_1  and  C_2
REMARK    2  A    between atoms: C_10  and  N_11
REMARK    3  A    between atoms: N_11  and  C_12
REMARK    4  A    between atoms: C_15  and  N_16
REMARK                            x       y       z     vdW  Elec       q    Type
REMARK                         _______ _______ _______ _____ _____    ______ ____
ROOT
ATOM      1  N   UNL     1       3.128   6.007  19.439  0.00  0.00    +0.000 N 
ATOM      2  H   UNL     1       3.134   5.646  20.389  0.00  0.00    +0.000 HD
ENDROOT
BRANCH   1  11
ATOM      3  C   UNL     1       3.059   4.371  17.633  0.00  0.00    +0.000 A 
ATOM      4  O   UNL     1       3.916   3.846  16.721  0.00  0.00    +0.000 OA
ATOM      5  C   UNL     1       5.149   4.365  16.991  0.00  0.00    +0.000 A 
ATOM      6  C   UNL     1       6.322   4.098  16.306  0.00  0.00    +0.000 A 
ATOM      7  N   UNL     1       7.476   4.668  16.740  0.00  0.00    +0.000 NA
ATOM      8  C   UNL     1       7.444   5.457  17.839  0.00  0.00    +0.000 A 
ATOM      9  C   UNL     1       6.297   5.762  18.558  0.00  0.00    +0.000 A 
ATOM     10  C   UNL     1       5.090   5.215  18.089  0.00  0.00    +0.000 A 
ATOM     11  C   UNL     1       3.710   5.269  18.455  0.00  0.00    +0.000 A 
BRANCH   3  12
ATOM     12  N   UNL     1       1.782   3.966  17.546  0.00  0.00    +0.000 N 
ATOM     13  H   UNL     1       1.362   3.590  18.391  0.00  0.00    +0.000 HD
ATOM     14  H   UNL     1       1.466   3.509  16.699  0.00  0.00    +0.000 HD
ENDBRANCH   3  12
ENDBRANCH   1  11
BRANCH   1  15
ATOM     15  C   UNL     1       2.531   7.278  19.317  0.00  0.00    +0.000 A 
ATOM     16  C   UNL     1       1.810   7.853  20.367  0.00  0.00    +0.000 A 
ATOM     17  C   UNL     1       0.985   8.964  20.160  0.00  0.00    +0.000 A 
ATOM     18  C   UNL     1       0.854   9.559  18.901  0.00  0.00    +0.000 A 
ATOM     19  C   UNL     1       1.681   9.042  17.889  0.00  0.00    +0.000 A 
ATOM     20  C   UNL     1       2.503   7.921  18.086  0.00  0.00    +0.000 A 
BRANCH  18  21
ATOM     21  N   UNL     1      -0.060  10.562  18.654  0.00  0.00    +0.000 N 
ATOM     22  C   UNL     1      -0.081  11.850  19.366  0.00  0.00    +0.000 C 
ATOM     23  C   UNL     1      -1.473  12.100  19.965  0.00  0.00    +0.000 C 
ATOM     24  O   UNL     1      -2.497  12.038  18.956  0.00  0.00    +0.000 OA
ATOM     25  C   UNL     1      -2.502  10.739  18.343  0.00  0.00    +0.000 C 
ATOM     26  C   UNL     1      -1.154  10.407  17.679  0.00  0.00    +0.000 C 
ENDBRANCH  18  21
ENDBRANCH   1  15
TORSDOF 4
ENDMDL
MODEL 6
REMARK VINA RESULT:      -7.5      1.207      1.668
REMARK  Name = 
REMARK  4 active torsions:
REMARK  status: ('A' for Active; 'I' for Inactive)
REMARK    1  A    between atoms: N_1  and  C_2
REMARK    2  A    between atoms: C_10  and  N_11
REMARK    3  A    between atoms: N_11  and  C_12
REMARK    4  A    between atoms: C_15  and  N_16
REMARK                            x       y       z     vdW  Elec       q    Type
REMARK                         _______ _______ _______ _____ _____    ______ ____
ROOT
ATOM      1  N   UNL     1       2.600   5.850  18.496  0.00  0.00    +0.000 N 
ATOM      2  H   UNL     1       1.812   5.302  18.165  0.00  0.00    +0.000 HD
ENDROOT
BRANCH   1  11
ATOM      3  C   UNL     1       4.093   4.129  19.361  0.00  0.00    +0.000 A 
ATOM      4  O   UNL     1       5.388   3.752  19.205  0.00  0.00    +0.000 OA
ATOM      5  C   UNL     1       5.972   4.672  18.383  0.00  0.00    +0.000 A 
ATOM      6  C   UNL     1       7.290   4.676  17.958  0.00  0.00    +0.000 A 
ATOM      7  N   UNL     1       7.720   5.698  17.174  0.00  0.00    +0.000 NA
ATOM      8  C   UNL     1       6.854   6.687  16.855  0.00  0.00    +0.000 A 
ATOM      9  C   UNL     1       5.524   6.729  17.248  0.00  0.00    +0.000 A 
ATOM     10  C   UNL     1       5.057   5.652  18.020  0.00  0.00    +0.000 A 
ATOM     11  C   UNL     1       3.815   5.250  18.603  0.00  0.00    +0.000 A 
BRANCH   3  12
ATOM     12  N   UNL     1       3.343   3.352  20.159  0.00  0.00    +0.000 N 
ATOM     13  H   UNL     1       3.807   2.940  20.964  0.00  0.00    +0.000 HD
ATOM     14  H   UNL     1       2.642   2.750  19.744  0.00  0.00    +0.000 HD
ENDBRANCH   3  12
ENDBRANCH   1  11
BRANCH   1  15
ATOM     15  C   UNL     1       2.266   7.176  18.838  0.00  0.00    +0.000 A 
ATOM     16  C   UNL     1       1.874   7.522  20.134  0.00  0.00    +0.000 A 
ATOM     17  C   UNL     1       1.272   8.755  20.407  0.00  0.00    +0.000 A 
ATOM     18  C   UNL     1       1.048   9.703  19.403  0.00  0.00    +0.000 A 
ATOM     19  C   UNL     1       1.562   9.385  18.134  0.00  0.00    +0.000 A 
ATOM     20  C   UNL     1       2.156   8.146  17.849  0.00  0.00    +0.000 A 
BRANCH  18  21
ATOM     21  N   UNL     1       0.332  10.860  19.631  0.00  0.00    +0.000 N 
ATOM     22  C   UNL     1      -1.037  11.089  19.143  0.00  0.00    +0.000 C 
ATOM     23  C   UNL     1      -1.099  12.398  18.340  0.00  0.00    +0.000 C 
ATOM     24  O   UNL     1      -0.621  13.512  19.115  0.00  0.00    +0.000 OA
ATOM     25  C   UNL     1       0.744  13.290  19.502  0.00  0.00    +0.000 C 
ATOM     26  C   UNL     1       0.907  12.013  20.345  0.00  0.00    +0.000 C 
ENDBRANCH  18  21
ENDBRANCH   1  15
TORSDOF 4
ENDMDL
MODEL 7
REMARK VINA RESULT:      -7.5      1.833      3.357
REMARK  Name = 
REMARK  4 active torsions:
REMARK  status: ('A' for Active; 'I' for Inactive)
REMARK    1  A    between atoms: N_1  and  C_2
REMARK    2  A    between atoms: C_10  and  N_11
REMARK    3  A    between atoms: N_11  and  C_12
REMARK    4  A    between atoms: C_15  and  N_16
REMARK                            x       y       z     vdW  Elec       q    Type
REMARK                         _______ _______ _______ _____ _____    ______ ____
ROOT
ATOM      1  N   UNL     1       3.308   6.669  17.815  0.00  0.00    +0.000 N 
ATOM      2  H   UNL     1       3.536   6.890  16.850  0.00  0.00    +0.000 HD
ENDROOT
BRANCH   1  11
ATOM      3  C   UNL     1       4.910   5.052  18.686  0.00  0.00    +0.000 A 
ATOM      4  O   UNL     1       4.892   3.788  19.181  0.00  0.00    +0.000 OA
ATOM      5  C   UNL     1       3.611   3.334  19.064  0.00  0.00    +0.000 A 
ATOM      6  C   UNL     1       3.140   2.090  19.446  0.00  0.00    +0.000 A 
ATOM      7  N   UNL     1       1.837   1.784  19.214  0.00  0.00    +0.000 NA
ATOM      8  C   UNL     1       1.051   2.696  18.598  0.00  0.00    +0.000 A 
ATOM      9  C   UNL     1       1.469   3.959  18.200  0.00  0.00    +0.000 A 
ATOM     10  C   UNL     1       2.803   4.302  18.479  0.00  0.00    +0.000 A 
ATOM     11  C   UNL     1       3.643   5.445  18.303  0.00  0.00    +0.000 A 
BRANCH   3  12
ATOM     12  N   UNL     1       6.099   5.674  18.696  0.00  0.00    +0.000 N 
ATOM     13  H   UNL     1       6.845   5.228  19.223  0.00  0.00    +0.000 HD
ATOM     14  H   UNL     1       6.126   6.687  18.735  0.00  0.00    +0.000 HD
ENDBRANCH   3  12
ENDBRANCH   1  11
BRANCH   1  15
ATOM     15  C   UNL     1       2.618   7.699  18.486  0.00  0.00    +0.000 A 
ATOM     16  C   UNL     1       2.199   7.558  19.811  0.00  0.00    +0.000 A 
ATOM     17  C   UNL     1       1.278   8.444  20.380  0.00  0.00    +0.000 A 
ATOM     18  C   UNL     1       0.745   9.517  19.658  0.00  0.00    +0.000 A 
ATOM     19  C   UNL     1       1.273   9.712  18.370  0.00  0.00    +0.000 A 
ATOM     20  C   UNL     1       2.189   8.821  17.788  0.00  0.00    +0.000 A 
BRANCH  18  21
ATOM     21  N   UNL     1      -0.266  10.310  20.159  0.00  0.00    +0.000 N 
ATOM     22  C   UNL     1      -1.231  11.041  19.322  0.00  0.00    +0.000 C 
ATOM     23  C   UNL     1      -1.235  12.530  19.698  0.00  0.00    +0.000 C 
ATOM     24  O   UNL     1      -1.505  12.717  21.098  0.00  0.00    +0.000 OA
ATOM     25  C   UNL     1      -0.495  12.062  21.883  0.00  0.00    +0.000 C 
ATOM     26  C   UNL     1      -0.435  10.550  21.603  0.00  0.00    +0.000 C 
ENDBRANCH  18  21
ENDBRANCH   1  15
TORSDOF 4
ENDMDL
MODEL 8
REMARK VINA RESULT:      -7.5      2.423      8.337
REMARK  Name = 
REMARK  4 active torsions:
REMARK  status: ('A' for Active; 'I' for Inactive)
REMARK    1  A    between atoms: N_1  and  C_2
REMARK    2  A    between atoms: C_10  and  N_11
REMARK    3  A    between atoms: N_11  and  C_12
REMARK    4  A    between atoms: C_15  and  N_16
REMARK                            x       y       z     vdW  Elec       q    Type
REMARK                         _______ _______ _______ _____ _____    ______ ____
ROOT
ATOM      1  N   UNL     1       1.172  10.225  18.060  0.00  0.00    +0.000 N 
ATOM      2  H   UNL     1       1.675  10.621  17.270  0.00  0.00    +0.000 HD
ENDROOT
BRANCH   1  11
ATOM      3  C   UNL     1       0.045  11.811  19.528  0.00  0.00    +0.000 A 
ATOM      4  O   UNL     1      -1.210  12.300  19.704  0.00  0.00    +0.000 OA
ATOM      5  C   UNL     1      -2.022  11.624  18.841  0.00  0.00    +0.000 A 
ATOM      6  C   UNL     1      -3.386  11.802  18.686  0.00  0.00    +0.000 A 
ATOM      7  N   UNL     1      -4.053  11.008  17.808  0.00  0.00    +0.000 NA
ATOM      8  C   UNL     1      -3.367  10.058  17.134  0.00  0.00    +0.000 A 
ATOM      9  C   UNL     1      -2.000   9.841  17.246  0.00  0.00    +0.000 A 
ATOM     10  C   UNL     1      -1.294  10.688  18.116  0.00  0.00    +0.000 A 
ATOM     11  C   UNL     1       0.066  10.868  18.519  0.00  0.00    +0.000 A 
BRANCH   3  12
ATOM     12  N   UNL     1       1.001  12.341  20.308  0.00  0.00    +0.000 N 
ATOM     13  H   UNL     1       0.718  12.647  21.235  0.00  0.00    +0.000 HD
ATOM     14  H   UNL     1       1.711  12.929  19.887  0.00  0.00    +0.000 HD
ENDBRANCH   3  12
ENDBRANCH   1  11
BRANCH   1  15
ATOM     15  C   UNL     1       1.765   9.058  18.583  0.00  0.00    +0.000 A 
ATOM     16  C   UNL     1       2.499   8.185  17.777  0.00  0.00    +0.000 A 
ATOM     17  C   UNL     1       2.838   6.900  18.217  0.00  0.00    +0.000 A 
ATOM     18  C   UNL     1       2.471   6.436  19.484  0.00  0.00    +0.000 A 
ATOM     19  C   UNL     1       1.842   7.373  20.322  0.00  0.00    +0.000 A 
ATOM     20  C   UNL     1       1.489   8.659  19.885  0.00  0.00    +0.000 A 
BRANCH  18  21
ATOM     21  N   UNL     1       2.674   5.129  19.876  0.00  0.00    +0.000 N 
ATOM     22  C   UNL     1       3.580   4.195  19.188  0.00  0.00    +0.000 C 
ATOM     23  C   UNL     1       2.826   2.912  18.807  0.00  0.00    +0.000 C 
ATOM     24  O   UNL     1       2.215   2.302  19.957  0.00  0.00    +0.000 OA
ATOM     25  C   UNL     1       1.275   3.211  20.552  0.00  0.00    +0.000 C 
ATOM     26  C   UNL     1       1.944   4.522  21.002  0.00  0.00    +0.000 C 
ENDBRANCH  18  21
ENDBRANCH   1  15
TORSDOF 4
ENDMDL
MODEL 9
REMARK VINA RESULT:      -7.5      1.574      3.113
REMARK  Name = 
REMARK  4 active torsions:
REMARK  status: ('A' for Active; 'I' for Inactive)
REMARK    1  A    between atoms: N_1  and  C_2
REMARK    2  A    between atoms: C_10  and  N_11
REMARK    3  A    between atoms: N_11  and  C_12
REMARK    4  A    between atoms: C_15  and  N_16
REMARK                            x       y       z     vdW  Elec       q    Type
REMARK                         _______ _______ _______ _____ _____    ______ ____
ROOT
ATOM      1  N   UNL     1       3.208   6.362  20.133  0.00  0.00    +0.000 N 
ATOM      2  H   UNL     1       3.676   6.580  21.008  0.00  0.00    +0.000 HD
ENDROOT
BRANCH   1  11
ATOM      3  C   UNL     1       4.756   4.881  18.971  0.00  0.00    +0.000 A 
ATOM      4  O   UNL     1       4.747   3.625  18.453  0.00  0.00    +0.000 OA
ATOM      5  C   UNL     1       3.476   3.149  18.591  0.00  0.00    +0.000 A 
ATOM      6  C   UNL     1       3.016   1.904  18.196  0.00  0.00    +0.000 A 
ATOM      7  N   UNL     1       1.702   1.608  18.368  0.00  0.00    +0.000 NA
ATOM      8  C   UNL     1       0.883   2.546  18.897  0.00  0.00    +0.000 A 
ATOM      9  C   UNL     1       1.292   3.805  19.316  0.00  0.00    +0.000 A 
ATOM     10  C   UNL     1       2.659   4.103  19.186  0.00  0.00    +0.000 A 
ATOM     11  C   UNL     1       3.520   5.202  19.496  0.00  0.00    +0.000 A 
BRANCH   3  12
ATOM     12  N   UNL     1       5.927   5.535  18.914  0.00  0.00    +0.000 N 
ATOM     13  H   UNL     1       5.886   6.529  18.706  0.00  0.00    +0.000 HD
ATOM     14  H   UNL     1       6.733   5.070  18.514  0.00  0.00    +0.000 HD
ENDBRANCH   3  12
ENDBRANCH   1  11
BRANCH   1  15
ATOM     15  C   UNL     1       2.317   7.365  19.701  0.00  0.00    +0.000 A 
ATOM     16  C   UNL     1       2.349   7.860  18.394  0.00  0.00    +0.000 A 
ATOM     17  C   UNL     1       1.677   9.036  18.046  0.00  0.00    +0.000 A 
ATOM     18  C   UNL     1       0.932   9.763  18.980  0.00  0.00    +0.000 A 
ATOM     19  C   UNL     1       0.813   9.182  20.254  0.00  0.00    +0.000 A 
ATOM     20  C   UNL     1       1.493   8.008  20.615  0.00  0.00    +0.000 A 
BRANCH  18  21
ATOM     21  N   UNL     1       0.383  10.993  18.686  0.00  0.00    +0.000 N 
ATOM     22  C   UNL     1       1.121  12.265  18.766  0.00  0.00    +0.000 C 
ATOM     23  C   UNL     1       0.365  13.259  19.661  0.00  0.00    +0.000 C 
ATOM     24  O   UNL     1      -0.983  13.459  19.200  0.00  0.00    +0.000 OA
ATOM     25  C   UNL     1      -1.697  12.213  19.216  0.00  0.00    +0.000 C 
ATOM     26  C   UNL     1      -1.034  11.155  18.316  0.00  0.00    +0.000 C 
ENDBRANCH  18  21
ENDBRANCH   1  15
TORSDOF 4
ENDMDL
