MODEL 1
REMARK VINA RESULT:      -6.1      0.000      0.000
REMARK  Name = 
REMARK  8 active torsions:
REMARK  status: ('A' for Active; 'I' for Inactive)
REMARK    1  A    between atoms: C_1  and  C_2
REMARK    2  A    between atoms: C_2  and  O_3
REMARK    3  A    between atoms: O_3  and  C_4
REMARK    4  A    between atoms: C_6  and  C_7
REMARK    5  A    between atoms: C_7  and  O_9
REMARK    6  A    between atoms: C_11  and  O_12
REMARK    7  A    between atoms: O_12  and  C_13
REMARK    8  A    between atoms: C_13  and  C_14
REMARK                            x       y       z     vdW  Elec       q    Type
REMARK                         _______ _______ _______ _____ _____    ______ ____
ROOT
ATOM      1  C   UNL     1       4.269   4.078  18.885  0.00  0.00    +0.000 A 
ATOM      2  C   UNL     1       5.394   4.695  19.449  0.00  0.00    +0.000 A 
ATOM      3  C   UNL     1       6.369   5.251  18.631  0.00  0.00    +0.000 A 
ATOM      4  C   UNL     1       6.239   5.156  17.243  0.00  0.00    +0.000 A 
ATOM      5  C   UNL     1       5.105   4.556  16.663  0.00  0.00    +0.000 A 
ATOM      6  N   UNL     1       4.084   4.035  17.484  0.00  0.00    +0.000 N 
ATOM      7  O   UNL     1       3.012   3.546  16.997  0.00  0.00    +0.000 OA
ENDROOT
BRANCH   3   8
ATOM      8  C   UNL     1       7.582   5.893  19.191  0.00  0.00    +0.000 C 
ATOM      9  O   UNL     1       8.149   6.817  18.630  0.00  0.00    +0.000 OA
BRANCH   8  10
ATOM     10  O   UNL     1       7.985   5.390  20.376  0.00  0.00    +0.000 OA
ATOM     11  H   UNL     1       7.946   5.990  21.144  0.00  0.00    +0.000 HD
ENDBRANCH   8  10
ENDBRANCH   3   8
BRANCH   1  12
ATOM     12  O   UNL     1       3.387   3.586  19.852  0.00  0.00    +0.000 OA
BRANCH  12  14
ATOM     13  C   UNL     1       1.150   4.273  20.287  0.00  0.00    +0.000 C 
ATOM     14  C   UNL     1       2.615   4.595  20.510  0.00  0.00    +0.000 C 
ENDBRANCH  12  14
ENDBRANCH   1  12
BRANCH   5  15
ATOM     15  O   UNL     1       5.150   4.567  15.260  0.00  0.00    +0.000 OA
BRANCH  15  16
ATOM     16  C   UNL     1       6.412   4.237  14.677  0.00  0.00    +0.000 C 
ATOM     17  C   UNL     1       6.195   3.766  13.249  0.00  0.00    +0.000 C 
ENDBRANCH  15  16
ENDBRANCH   5  15
TORSDOF 6
ENDMDL
MODEL 2
REMARK VINA RESULT:      -6.1      1.759      4.171
REMARK  Name = 
REMARK  8 active torsions:
REMARK  status: ('A' for Active; 'I' for Inactive)
REMARK    1  A    between atoms: C_1  and  C_2
REMARK    2  A    between atoms: C_2  and  O_3
REMARK    3  A    between atoms: O_3  and  C_4
REMARK    4  A    between atoms: C_6  and  C_7
REMARK    5  A    between atoms: C_7  and  O_9
REMARK    6  A    between atoms: C_11  and  O_12
REMARK    7  A    between atoms: O_12  and  C_13
REMARK    8  A    between atoms: C_13  and  C_14
REMARK                            x       y       z     vdW  Elec       q    Type
REMARK                         _______ _______ _______ _____ _____    ______ ____
ROOT
ATOM      1  C   UNL     1       4.526   3.973  17.221  0.00  0.00    +0.000 A 
ATOM      2  C   UNL     1       4.836   4.031  15.856  0.00  0.00    +0.000 A 
ATOM      3  C   UNL     1       6.139   4.289  15.447  0.00  0.00    +0.000 A 
ATOM      4  C   UNL     1       7.126   4.530  16.405  0.00  0.00    +0.000 A 
ATOM      5  C   UNL     1       6.832   4.456  17.781  0.00  0.00    +0.000 A 
ATOM      6  N   UNL     1       5.524   4.142  18.206  0.00  0.00    +0.000 N 
ATOM      7  O   UNL     1       5.234   4.000  19.439  0.00  0.00    +0.000 OA
ENDROOT
BRANCH   3   8
ATOM      8  C   UNL     1       6.502   4.379  14.012  0.00  0.00    +0.000 C 
ATOM      9  O   UNL     1       5.969   3.685  13.161  0.00  0.00    +0.000 OA
BRANCH   8  10
ATOM     10  O   UNL     1       7.440   5.305  13.729  0.00  0.00    +0.000 OA
ATOM     11  H   UNL     1       8.370   5.010  13.754  0.00  0.00    +0.000 HD
ENDBRANCH   8  10
ENDBRANCH   3   8
BRANCH   1  12
ATOM     12  O   UNL     1       3.175   3.691  17.451  0.00  0.00    +0.000 OA
BRANCH  12  14
ATOM     13  C   UNL     1       2.089   2.171  18.926  0.00  0.00    +0.000 C 
ATOM     14  C   UNL     1       2.891   2.302  17.645  0.00  0.00    +0.000 C 
ENDBRANCH  12  14
ENDBRANCH   1  12
BRANCH   5  15
ATOM     15  O   UNL     1       7.952   4.715  18.585  0.00  0.00    +0.000 OA
BRANCH  15  16
ATOM     16  C   UNL     1       7.934   5.956  19.294  0.00  0.00    +0.000 C 
ATOM     17  C   UNL     1       7.928   7.101  18.296  0.00  0.00    +0.000 C 
ENDBRANCH  15  16
ENDBRANCH   5  15
TORSDOF 6
ENDMDL
MODEL 3
REMARK VINA RESULT:      -6.0      1.776      4.823
REMARK  Name = 
REMARK  8 active torsions:
REMARK  status: ('A' for Active; 'I' for Inactive)
REMARK    1  A    between atoms: C_1  and  C_2
REMARK    2  A    between atoms: C_2  and  O_3
REMARK    3  A    between atoms: O_3  and  C_4
REMARK    4  A    between atoms: C_6  and  C_7
REMARK    5  A    between atoms: C_7  and  O_9
REMARK    6  A    between atoms: C_11  and  O_12
REMARK    7  A    between atoms: O_12  and  C_13
REMARK    8  A    between atoms: C_13  and  C_14
REMARK                            x       y       z     vdW  Elec       q    Type
REMARK                         _______ _______ _______ _____ _____    ______ ____
ROOT
ATOM      1  C   UNL     1       6.902   4.455  17.775  0.00  0.00    +0.000 A 
ATOM      2  C   UNL     1       7.220   4.549  16.413  0.00  0.00    +0.000 A 
ATOM      3  C   UNL     1       6.242   4.326  15.451  0.00  0.00    +0.000 A 
ATOM      4  C   UNL     1       4.953   3.967  15.851  0.00  0.00    +0.000 A 
ATOM      5  C   UNL     1       4.615   3.888  17.216  0.00  0.00    +0.000 A 
ATOM      6  N   UNL     1       5.587   4.164  18.201  0.00  0.00    +0.000 N 
ATOM      7  O   UNL     1       5.303   4.169  19.443  0.00  0.00    +0.000 OA
ENDROOT
BRANCH   3   8
ATOM      8  C   UNL     1       6.545   4.396  14.001  0.00  0.00    +0.000 C 
ATOM      9  O   UNL     1       6.002   3.667  13.187  0.00  0.00    +0.000 OA
BRANCH   8  10
ATOM     10  O   UNL     1       7.444   5.342  13.663  0.00  0.00    +0.000 OA
ATOM     11  H   UNL     1       7.714   5.377  12.726  0.00  0.00    +0.000 HD
ENDBRANCH   8  10
ENDBRANCH   3   8
BRANCH   1  12
ATOM     12  O   UNL     1       7.999   4.723  18.600  0.00  0.00    +0.000 OA
BRANCH  12  14
ATOM     13  C   UNL     1       7.922   7.083  18.299  0.00  0.00    +0.000 C 
ATOM     14  C   UNL     1       7.906   5.958  19.316  0.00  0.00    +0.000 C 
ENDBRANCH  12  14
ENDBRANCH   1  12
BRANCH   5  15
ATOM     15  O   UNL     1       3.274   3.527  17.418  0.00  0.00    +0.000 OA
BRANCH  15  16
ATOM     16  C   UNL     1       3.048   2.170  17.805  0.00  0.00    +0.000 C 
ATOM     17  C   UNL     1       2.087   2.139  18.981  0.00  0.00    +0.000 C 
ENDBRANCH  15  16
ENDBRANCH   5  15
TORSDOF 6
ENDMDL
MODEL 4
REMARK VINA RESULT:      -6.0      0.779      4.362
REMARK  Name = 
REMARK  8 active torsions:
REMARK  status: ('A' for Active; 'I' for Inactive)
REMARK    1  A    between atoms: C_1  and  C_2
REMARK    2  A    between atoms: C_2  and  O_3
REMARK    3  A    between atoms: O_3  and  C_4
REMARK    4  A    between atoms: C_6  and  C_7
REMARK    5  A    between atoms: C_7  and  O_9
REMARK    6  A    between atoms: C_11  and  O_12
REMARK    7  A    between atoms: O_12  and  C_13
REMARK    8  A    between atoms: C_13  and  C_14
REMARK                            x       y       z     vdW  Elec       q    Type
REMARK                         _______ _______ _______ _____ _____    ______ ____
ROOT
ATOM      1  C   UNL     1       5.599   4.104  16.740  0.00  0.00    +0.000 A 
ATOM      2  C   UNL     1       6.707   4.677  17.380  0.00  0.00    +0.000 A 
ATOM      3  C   UNL     1       6.553   5.306  18.610  0.00  0.00    +0.000 A 
ATOM      4  C   UNL     1       5.282   5.399  19.182  0.00  0.00    +0.000 A 
ATOM      5  C   UNL     1       4.165   4.811  18.558  0.00  0.00    +0.000 A 
ATOM      6  N   UNL     1       4.318   4.124  17.336  0.00  0.00    +0.000 N 
ATOM      7  O   UNL     1       3.345   3.522  16.775  0.00  0.00    +0.000 OA
ENDROOT
BRANCH   3   8
ATOM      8  C   UNL     1       7.697   5.942  19.307  0.00  0.00    +0.000 C 
ATOM      9  O   UNL     1       8.273   6.919  18.857  0.00  0.00    +0.000 OA
BRANCH   8  10
ATOM     10  O   UNL     1       8.024   5.368  20.483  0.00  0.00    +0.000 OA
ATOM     11  H   UNL     1       7.728   4.448  20.620  0.00  0.00    +0.000 HD
ENDBRANCH   8  10
ENDBRANCH   3   8
BRANCH   1  12
ATOM     12  O   UNL     1       5.937   3.505  15.522  0.00  0.00    +0.000 OA
BRANCH  12  14
ATOM     13  C   UNL     1       6.143   3.704  13.159  0.00  0.00    +0.000 C 
ATOM     14  C   UNL     1       6.270   4.432  14.484  0.00  0.00    +0.000 C 
ENDBRANCH  12  14
ENDBRANCH   1  12
BRANCH   5  15
ATOM     15  O   UNL     1       2.981   4.998  19.289  0.00  0.00    +0.000 OA
BRANCH  15  16
ATOM     16  C   UNL     1       2.807   4.138  20.418  0.00  0.00    +0.000 C 
ATOM     17  C   UNL     1       1.959   2.945  20.010  0.00  0.00    +0.000 C 
ENDBRANCH  15  16
ENDBRANCH   5  15
TORSDOF 6
ENDMDL
MODEL 5
REMARK VINA RESULT:      -5.9      1.114      1.276
REMARK  Name = 
REMARK  8 active torsions:
REMARK  status: ('A' for Active; 'I' for Inactive)
REMARK    1  A    between atoms: C_1  and  C_2
REMARK    2  A    between atoms: C_2  and  O_3
REMARK    3  A    between atoms: O_3  and  C_4
REMARK    4  A    between atoms: C_6  and  C_7
REMARK    5  A    between atoms: C_7  and  O_9
REMARK    6  A    between atoms: C_11  and  O_12
REMARK    7  A    between atoms: O_12  and  C_13
REMARK    8  A    between atoms: C_13  and  C_14
REMARK                            x       y       z     vdW  Elec       q    Type
REMARK                         _______ _______ _______ _____ _____    ______ ____
ROOT
ATOM      1  C   UNL     1       4.885   4.628  18.566  0.00  0.00    +0.000 A 
ATOM      2  C   UNL     1       5.779   5.693  18.741  0.00  0.00    +0.000 A 
ATOM      3  C   UNL     1       6.708   5.992  17.752  0.00  0.00    +0.000 A 
ATOM      4  C   UNL     1       6.771   5.200  16.603  0.00  0.00    +0.000 A 
ATOM      5  C   UNL     1       5.865   4.139  16.407  0.00  0.00    +0.000 A 
ATOM      6  N   UNL     1       4.884   3.859  17.381  0.00  0.00    +0.000 N 
ATOM      7  O   UNL     1       4.005   2.952  17.209  0.00  0.00    +0.000 OA
ENDROOT
BRANCH   3   8
ATOM      8  C   UNL     1       7.684   7.098  17.910  0.00  0.00    +0.000 C 
ATOM      9  O   UNL     1       7.744   8.030  17.125  0.00  0.00    +0.000 OA
BRANCH   8  10
ATOM     10  O   UNL     1       8.470   6.998  19.000  0.00  0.00    +0.000 OA
ATOM     11  H   UNL     1       9.200   7.642  19.076  0.00  0.00    +0.000 HD
ENDBRANCH   8  10
ENDBRANCH   3   8
BRANCH   1  12
ATOM     12  O   UNL     1       4.014   4.477  19.651  0.00  0.00    +0.000 OA
BRANCH  12  14
ATOM     13  C   UNL     1       1.995   4.996  20.799  0.00  0.00    +0.000 C 
ATOM     14  C   UNL     1       2.872   5.338  19.610  0.00  0.00    +0.000 C 
ENDBRANCH  12  14
ENDBRANCH   1  12
BRANCH   5  15
ATOM     15  O   UNL     1       6.077   3.471  15.191  0.00  0.00    +0.000 OA
BRANCH  15  16
ATOM     16  C   UNL     1       6.398   4.302  14.073  0.00  0.00    +0.000 C 
ATOM     17  C   UNL     1       6.034   3.575  12.790  0.00  0.00    +0.000 C 
ENDBRANCH  15  16
ENDBRANCH   5  15
TORSDOF 6
ENDMDL
MODEL 6
REMARK VINA RESULT:      -5.9      0.723      4.610
REMARK  Name = 
REMARK  8 active torsions:
REMARK  status: ('A' for Active; 'I' for Inactive)
REMARK    1  A    between atoms: C_1  and  C_2
REMARK    2  A    between atoms: C_2  and  O_3
REMARK    3  A    between atoms: O_3  and  C_4
REMARK    4  A    between atoms: C_6  and  C_7
REMARK    5  A    between atoms: C_7  and  O_9
REMARK    6  A    between atoms: C_11  and  O_12
REMARK    7  A    between atoms: O_12  and  C_13
REMARK    8  A    between atoms: C_13  and  C_14
REMARK                            x       y       z     vdW  Elec       q    Type
REMARK                         _______ _______ _______ _____ _____    ______ ____
ROOT
ATOM      1  C   UNL     1       4.840   4.434  16.773  0.00  0.00    +0.000 A 
ATOM      2  C   UNL     1       6.032   4.937  17.313  0.00  0.00    +0.000 A 
ATOM      3  C   UNL     1       6.132   5.176  18.679  0.00  0.00    +0.000 A 
ATOM      4  C   UNL     1       5.025   4.951  19.501  0.00  0.00    +0.000 A 
ATOM      5  C   UNL     1       3.829   4.428  18.973  0.00  0.00    +0.000 A 
ATOM      6  N   UNL     1       3.733   4.132  17.598  0.00  0.00    +0.000 N 
ATOM      7  O   UNL     1       2.692   3.595  17.095  0.00  0.00    +0.000 OA
ENDROOT
BRANCH   3   8
ATOM      8  C   UNL     1       7.369   5.727  19.283  0.00  0.00    +0.000 C 
ATOM      9  O   UNL     1       7.807   5.327  20.349  0.00  0.00    +0.000 OA
BRANCH   8  10
ATOM     10  O   UNL     1       7.975   6.680  18.547  0.00  0.00    +0.000 OA
ATOM     11  H   UNL     1       7.471   7.039  17.791  0.00  0.00    +0.000 HD
ENDBRANCH   8  10
ENDBRANCH   3   8
BRANCH   1  12
ATOM     12  O   UNL     1       4.919   4.242  15.390  0.00  0.00    +0.000 OA
BRANCH  12  14
ATOM     13  C   UNL     1       6.151   3.763  13.410  0.00  0.00    +0.000 C 
ATOM     14  C   UNL     1       6.238   3.959  14.912  0.00  0.00    +0.000 C 
ENDBRANCH  12  14
ENDBRANCH   1  12
BRANCH   5  15
ATOM     15  O   UNL     1       2.838   4.259  19.953  0.00  0.00    +0.000 OA
BRANCH  15  16
ATOM     16  C   UNL     1       2.848   3.002  20.635  0.00  0.00    +0.000 C 
ATOM     17  C   UNL     1       1.528   2.821  21.366  0.00  0.00    +0.000 C 
ENDBRANCH  15  16
ENDBRANCH   5  15
TORSDOF 6
ENDMDL
MODEL 7
REMARK VINA RESULT:      -5.9      2.053      5.069
REMARK  Name = 
REMARK  8 active torsions:
REMARK  status: ('A' for Active; 'I' for Inactive)
REMARK    1  A    between atoms: C_1  and  C_2
REMARK    2  A    between atoms: C_2  and  O_3
REMARK    3  A    between atoms: O_3  and  C_4
REMARK    4  A    between atoms: C_6  and  C_7
REMARK    5  A    between atoms: C_7  and  O_9
REMARK    6  A    between atoms: C_11  and  O_12
REMARK    7  A    between atoms: O_12  and  C_13
REMARK    8  A    between atoms: C_13  and  C_14
REMARK                            x       y       z     vdW  Elec       q    Type
REMARK                         _______ _______ _______ _____ _____    ______ ____
ROOT
ATOM      1  C   UNL     1       6.868   5.938  17.724  0.00  0.00    +0.000 A 
ATOM      2  C   UNL     1       7.132   5.771  16.357  0.00  0.00    +0.000 A 
ATOM      3  C   UNL     1       6.435   4.819  15.623  0.00  0.00    +0.000 A 
ATOM      4  C   UNL     1       5.500   4.003  16.265  0.00  0.00    +0.000 A 
ATOM      5  C   UNL     1       5.212   4.173  17.633  0.00  0.00    +0.000 A 
ATOM      6  N   UNL     1       5.876   5.172  18.376  0.00  0.00    +0.000 N 
ATOM      7  O   UNL     1       5.594   5.401  19.598  0.00  0.00    +0.000 OA
ENDROOT
BRANCH   3   8
ATOM      8  C   UNL     1       6.702   4.600  14.181  0.00  0.00    +0.000 C 
ATOM      9  O   UNL     1       6.130   3.735  13.537  0.00  0.00    +0.000 OA
BRANCH   8  10
ATOM     10  O   UNL     1       7.602   5.448  13.644  0.00  0.00    +0.000 OA
ATOM     11  H   UNL     1       8.539   5.292  13.865  0.00  0.00    +0.000 HD
ENDBRANCH   8  10
ENDBRANCH   3   8
BRANCH   1  12
ATOM     12  O   UNL     1       7.649   6.944  18.300  0.00  0.00    +0.000 OA
BRANCH  12  14
ATOM     13  C   UNL     1       8.507   9.164  18.331  0.00  0.00    +0.000 C 
ATOM     14  C   UNL     1       7.720   8.146  17.527  0.00  0.00    +0.000 C 
ENDBRANCH  12  14
ENDBRANCH   1  12
BRANCH   5  15
ATOM     15  O   UNL     1       4.239   3.272  18.093  0.00  0.00    +0.000 OA
BRANCH  15  16
ATOM     16  C   UNL     1       2.893   3.562  17.710  0.00  0.00    +0.000 C 
ATOM     17  C   UNL     1       1.982   2.454  18.208  0.00  0.00    +0.000 C 
ENDBRANCH  15  16
ENDBRANCH   5  15
TORSDOF 6
ENDMDL
MODEL 8
REMARK VINA RESULT:      -5.9      2.566      4.152
REMARK  Name = 
REMARK  8 active torsions:
REMARK  status: ('A' for Active; 'I' for Inactive)
REMARK    1  A    between atoms: C_1  and  C_2
REMARK    2  A    between atoms: C_2  and  O_3
REMARK    3  A    between atoms: O_3  and  C_4
REMARK    4  A    between atoms: C_6  and  C_7
REMARK    5  A    between atoms: C_7  and  O_9
REMARK    6  A    between atoms: C_11  and  O_12
REMARK    7  A    between atoms: O_12  and  C_13
REMARK    8  A    between atoms: C_13  and  C_14
REMARK                            x       y       z     vdW  Elec       q    Type
REMARK                         _______ _______ _______ _____ _____    ______ ____
ROOT
ATOM      1  C   UNL     1       4.042   6.394  17.398  0.00  0.00    +0.000 A 
ATOM      2  C   UNL     1       3.082   5.426  17.724  0.00  0.00    +0.000 A 
ATOM      3  C   UNL     1       3.310   4.088  17.424  0.00  0.00    +0.000 A 
ATOM      4  C   UNL     1       4.483   3.722  16.760  0.00  0.00    +0.000 A 
ATOM      5  C   UNL     1       5.465   4.682  16.444  0.00  0.00    +0.000 A 
ATOM      6  N   UNL     1       5.266   6.035  16.791  0.00  0.00    +0.000 N 
ATOM      7  O   UNL     1       6.159   6.920  16.583  0.00  0.00    +0.000 OA
ENDROOT
BRANCH   3   8
ATOM      8  C   UNL     1       2.309   3.039  17.734  0.00  0.00    +0.000 C 
ATOM      9  O   UNL     1       1.138   3.302  17.956  0.00  0.00    +0.000 OA
BRANCH   8  10
ATOM     10  O   UNL     1       2.795   1.782  17.724  0.00  0.00    +0.000 OA
ATOM     11  H   UNL     1       3.293   1.509  16.929  0.00  0.00    +0.000 HD
ENDBRANCH   8  10
ENDBRANCH   3   8
BRANCH   1  12
ATOM     12  O   UNL     1       3.655   7.682  17.781  0.00  0.00    +0.000 OA
BRANCH  12  14
ATOM     13  C   UNL     1       1.691   9.022  17.893  0.00  0.00    +0.000 C 
ATOM     14  C   UNL     1       2.357   7.750  18.380  0.00  0.00    +0.000 C 
ENDBRANCH  12  14
ENDBRANCH   1  12
BRANCH   5  15
ATOM     15  O   UNL     1       6.574   4.122  15.793  0.00  0.00    +0.000 OA
BRANCH  15  16
ATOM     16  C   UNL     1       6.828   4.606  14.472  0.00  0.00    +0.000 C 
ATOM     17  C   UNL     1       6.018   3.793  13.477  0.00  0.00    +0.000 C 
ENDBRANCH  15  16
ENDBRANCH   5  15
TORSDOF 6
ENDMDL
MODEL 9
REMARK VINA RESULT:      -5.8      0.995      4.629
REMARK  Name = 
REMARK  8 active torsions:
REMARK  status: ('A' for Active; 'I' for Inactive)
REMARK    1  A    between atoms: C_1  and  C_2
REMARK    2  A    between atoms: C_2  and  O_3
REMARK    3  A    between atoms: O_3  and  C_4
REMARK    4  A    between atoms: C_6  and  C_7
REMARK    5  A    between atoms: C_7  and  O_9
REMARK    6  A    between atoms: C_11  and  O_12
REMARK    7  A    between atoms: O_12  and  C_13
REMARK    8  A    between atoms: C_13  and  C_14
REMARK                            x       y       z     vdW  Elec       q    Type
REMARK                         _______ _______ _______ _____ _____    ______ ____
ROOT
ATOM      1  C   UNL     1       5.212   4.744  16.122  0.00  0.00    +0.000 A 
ATOM      2  C   UNL     1       6.276   5.629  16.347  0.00  0.00    +0.000 A 
ATOM      3  C   UNL     1       6.522   6.113  17.626  0.00  0.00    +0.000 A 
ATOM      4  C   UNL     1       5.679   5.743  18.676  0.00  0.00    +0.000 A 
ATOM      5  C   UNL     1       4.619   4.840  18.468  0.00  0.00    +0.000 A 
ATOM      6  N   UNL     1       4.392   4.302  17.184  0.00  0.00    +0.000 N 
ATOM      7  O   UNL     1       3.486   3.431  16.969  0.00  0.00    +0.000 OA
ENDROOT
BRANCH   3   8
ATOM      8  C   UNL     1       7.625   7.066  17.898  0.00  0.00    +0.000 C 
ATOM      9  O   UNL     1       7.850   8.025  17.178  0.00  0.00    +0.000 OA
BRANCH   8  10
ATOM     10  O   UNL     1       8.332   6.799  19.015  0.00  0.00    +0.000 OA
ATOM     11  H   UNL     1       8.110   7.320  19.810  0.00  0.00    +0.000 HD
ENDBRANCH   8  10
ENDBRANCH   3   8
BRANCH   1  12
ATOM     12  O   UNL     1       5.118   4.350  14.784  0.00  0.00    +0.000 OA
BRANCH  12  14
ATOM     13  C   UNL     1       6.093   3.553  12.763  0.00  0.00    +0.000 C 
ATOM     14  C   UNL     1       6.370   3.997  14.187  0.00  0.00    +0.000 C 
ENDBRANCH  12  14
ENDBRANCH   1  12
BRANCH   5  15
ATOM     15  O   UNL     1       3.895   4.581  19.642  0.00  0.00    +0.000 OA
BRANCH  15  16
ATOM     16  C   UNL     1       2.768   5.430  19.875  0.00  0.00    +0.000 C 
ATOM     17  C   UNL     1       1.712   4.656  20.646  0.00  0.00    +0.000 C 
ENDBRANCH  15  16
ENDBRANCH   5  15
TORSDOF 6
ENDMDL
