MODEL 1
REMARK VINA RESULT:      -7.8      0.000      0.000
REMARK  Name = 
REMARK  11 active torsions:
REMARK  status: ('A' for Active; 'I' for Inactive)
REMARK    1  A    between atoms: C_2  and  C_3
REMARK    2  A    between atoms: C_3  and  N_4
REMARK    3  A    between atoms: N_7  and  C_8
REMARK    4  A    between atoms: C_8  and  C_9
REMARK    5  A    between atoms: C_9  and  C_10
REMARK    6  A    between atoms: C_10  and  C_11
REMARK    7  A    between atoms: C_11  and  N_12
REMARK    8  A    between atoms: C_11  and  C_16
REMARK    9  A    between atoms: C_13  and  C_14
REMARK   10  A    between atoms: N_18  and  C_19
REMARK   11  A    between atoms: C_19  and  C_20
REMARK                            x       y       z     vdW  Elec       q    Type
REMARK                         _______ _______ _______ _____ _____    ______ ____
ROOT
ATOM      1  C   UNL     1       4.482   4.146  18.991  0.00  0.00    +0.000 C 
ENDROOT
BRANCH   1   2
ATOM      2  N   UNL     1       3.683   3.897  20.205  0.00  0.00    +0.000 N 
ATOM      3  C   UNL     1       2.767   2.874  20.336  0.00  0.00    +0.000 C 
ATOM      4  C   UNL     1       1.861   2.997  21.538  0.00  0.00    +0.000 C 
ATOM      5  O   UNL     1       2.584   2.008  19.485  0.00  0.00    +0.000 OA
ATOM      6  H   UNL     1       3.796   4.542  20.975  0.00  0.00    +0.000 HD
ENDBRANCH   1   2
BRANCH   1   7
ATOM      7  C   UNL     1       3.604   4.719  17.809  0.00  0.00    +0.000 C 
ATOM      8  O   UNL     1       3.551   4.171  16.703  0.00  0.00    +0.000 OA
ATOM      9  N   UNL     1       2.827   5.826  18.005  0.00  0.00    +0.000 N 
ATOM     10  H   UNL     1       2.282   6.132  17.208  0.00  0.00    +0.000 HD
BRANCH   9  11
ATOM     11  C   UNL     1       2.821   6.612  19.205  0.00  0.00    +0.000 C 
BRANCH  11  12
ATOM     12  C   UNL     1       2.003   7.859  19.144  0.00  0.00    +0.000 A 
ATOM     13  C   UNL     1       1.365   8.343  20.290  0.00  0.00    +0.000 A 
ATOM     14  C   UNL     1       0.676   9.551  20.243  0.00  0.00    +0.000 A 
ATOM     15  C   UNL     1       0.631  10.283  19.056  0.00  0.00    +0.000 A 
ATOM     16  C   UNL     1       1.272   9.812  17.914  0.00  0.00    +0.000 A 
ATOM     17  C   UNL     1       1.953   8.600  17.954  0.00  0.00    +0.000 A 
ENDBRANCH  11  12
ENDBRANCH   9  11
ENDBRANCH   1   7
BRANCH   1  18
ATOM     18  C   UNL     1       5.600   5.170  19.279  0.00  0.00    +0.000 C 
BRANCH  18  19
ATOM     19  C   UNL     1       6.412   5.686  18.086  0.00  0.00    +0.000 C 
BRANCH  19  20
ATOM     20  C   UNL     1       7.396   4.688  17.476  0.00  0.00    +0.000 C 
BRANCH  20  24
ATOM     21  N   UNL     1       6.225   3.561  14.203  0.00  0.00    +0.000 N 
ATOM     22  C   UNL     1       6.919   4.334  15.093  0.00  0.00    +0.000 C 
ATOM     23  O   UNL     1       7.599   5.293  14.748  0.00  0.00    +0.000 OA
ATOM     24  N   UNL     1       6.778   3.933  16.392  0.00  0.00    +0.000 N 
ATOM     25  H   UNL     1       5.730   2.737  14.508  0.00  0.00    +0.000 HD
ATOM     26  H   UNL     1       6.084   3.236  16.616  0.00  0.00    +0.000 HD
BRANCH  21  27
ATOM     27  C   UNL     1       6.361   3.823  12.788  0.00  0.00    +0.000 C 
BRANCH  27  29
ATOM     28  C   UNL     1       4.212   3.114  11.381  0.00  0.00    +0.000 C 
ATOM     29  C   UNL     1       5.163   3.448  12.047  0.00  0.00    +0.000 C 
ENDBRANCH  27  29
ENDBRANCH  21  27
ENDBRANCH  20  24
ENDBRANCH  19  20
ENDBRANCH  18  19
ENDBRANCH   1  18
TORSDOF 10
ENDMDL
MODEL 2
REMARK VINA RESULT:      -7.7      3.061      4.638
REMARK  Name = 
REMARK  11 active torsions:
REMARK  status: ('A' for Active; 'I' for Inactive)
REMARK    1  A    between atoms: C_2  and  C_3
REMARK    2  A    between atoms: C_3  and  N_4
REMARK    3  A    between atoms: N_7  and  C_8
REMARK    4  A    between atoms: C_8  and  C_9
REMARK    5  A    between atoms: C_9  and  C_10
REMARK    6  A    between atoms: C_10  and  C_11
REMARK    7  A    between atoms: C_11  and  N_12
REMARK    8  A    between atoms: C_11  and  C_16
REMARK    9  A    between atoms: C_13  and  C_14
REMARK   10  A    between atoms: N_18  and  C_19
REMARK   11  A    between atoms: C_19  and  C_20
REMARK                            x       y       z     vdW  Elec       q    Type
REMARK                         _______ _______ _______ _____ _____    ______ ____
ROOT
ATOM      1  C   UNL     1       3.695   4.701  18.036  0.00  0.00    +0.000 C 
ENDROOT
BRANCH   1   2
ATOM      2  N   UNL     1       2.944   3.475  18.359  0.00  0.00    +0.000 N 
ATOM      3  C   UNL     1       1.629   3.254  18.006  0.00  0.00    +0.000 C 
ATOM      4  C   UNL     1       0.987   2.075  18.697  0.00  0.00    +0.000 C 
ATOM      5  O   UNL     1       0.971   4.019  17.307  0.00  0.00    +0.000 OA
ATOM      6  H   UNL     1       3.420   2.769  18.904  0.00  0.00    +0.000 HD
ENDBRANCH   1   2
BRANCH   1   7
ATOM      7  C   UNL     1       4.334   5.364  19.322  0.00  0.00    +0.000 C 
ATOM      8  O   UNL     1       5.512   5.178  19.642  0.00  0.00    +0.000 OA
ATOM      9  N   UNL     1       3.595   6.217  20.092  0.00  0.00    +0.000 N 
ATOM     10  H   UNL     1       4.070   6.613  20.894  0.00  0.00    +0.000 HD
BRANCH   9  11
ATOM     11  C   UNL     1       2.201   6.490  19.894  0.00  0.00    +0.000 C 
BRANCH  11  12
ATOM     12  C   UNL     1       1.880   7.885  19.470  0.00  0.00    +0.000 A 
ATOM     13  C   UNL     1       2.234   8.336  18.196  0.00  0.00    +0.000 A 
ATOM     14  C   UNL     1       1.854   9.609  17.780  0.00  0.00    +0.000 A 
ATOM     15  C   UNL     1       1.113  10.428  18.630  0.00  0.00    +0.000 A 
ATOM     16  C   UNL     1       0.747   9.982  19.897  0.00  0.00    +0.000 A 
ATOM     17  C   UNL     1       1.134   8.715  20.320  0.00  0.00    +0.000 A 
ENDBRANCH  11  12
ENDBRANCH   9  11
ENDBRANCH   1   7
BRANCH   1  18
ATOM     18  C   UNL     1       4.843   4.391  17.053  0.00  0.00    +0.000 C 
BRANCH  18  19
ATOM     19  C   UNL     1       5.491   5.573  16.325  0.00  0.00    +0.000 C 
BRANCH  19  20
ATOM     20  C   UNL     1       6.972   5.803  16.627  0.00  0.00    +0.000 C 
BRANCH  20  24
ATOM     21  N   UNL     1       8.064   9.088  17.799  0.00  0.00    +0.000 N 
ATOM     22  C   UNL     1       7.915   7.728  17.827  0.00  0.00    +0.000 C 
ATOM     23  O   UNL     1       8.319   7.036  18.753  0.00  0.00    +0.000 OA
ATOM     24  N   UNL     1       7.274   7.226  16.728  0.00  0.00    +0.000 N 
ATOM     25  H   UNL     1       7.783   9.624  16.993  0.00  0.00    +0.000 HD
ATOM     26  H   UNL     1       6.834   7.866  16.084  0.00  0.00    +0.000 HD
BRANCH  21  27
ATOM     27  C   UNL     1       8.805   9.736  18.859  0.00  0.00    +0.000 C 
BRANCH  27  29
ATOM     28  C   UNL     1       9.980  11.954  17.965  0.00  0.00    +0.000 C 
ATOM     29  C   UNL     1       9.478  10.941  18.393  0.00  0.00    +0.000 C 
ENDBRANCH  27  29
ENDBRANCH  21  27
ENDBRANCH  20  24
ENDBRANCH  19  20
ENDBRANCH  18  19
ENDBRANCH   1  18
TORSDOF 10
ENDMDL
MODEL 3
REMARK VINA RESULT:      -7.7      5.412      7.547
REMARK  Name = 
REMARK  11 active torsions:
REMARK  status: ('A' for Active; 'I' for Inactive)
REMARK    1  A    between atoms: C_2  and  C_3
REMARK    2  A    between atoms: C_3  and  N_4
REMARK    3  A    between atoms: N_7  and  C_8
REMARK    4  A    between atoms: C_8  and  C_9
REMARK    5  A    between atoms: C_9  and  C_10
REMARK    6  A    between atoms: C_10  and  C_11
REMARK    7  A    between atoms: C_11  and  N_12
REMARK    8  A    between atoms: C_11  and  C_16
REMARK    9  A    between atoms: C_13  and  C_14
REMARK   10  A    between atoms: N_18  and  C_19
REMARK   11  A    between atoms: C_19  and  C_20
REMARK                            x       y       z     vdW  Elec       q    Type
REMARK                         _______ _______ _______ _____ _____    ______ ____
ROOT
ATOM      1  C   UNL     1       6.960   6.635  17.674  0.00  0.00    +0.000 C 
ENDROOT
BRANCH   1   2
ATOM      2  N   UNL     1       7.259   6.161  16.310  0.00  0.00    +0.000 N 
ATOM      3  C   UNL     1       6.432   5.338  15.575  0.00  0.00    +0.000 C 
ATOM      4  C   UNL     1       7.075   4.745  14.344  0.00  0.00    +0.000 C 
ATOM      5  O   UNL     1       5.316   4.984  15.945  0.00  0.00    +0.000 OA
ATOM      6  H   UNL     1       8.145   6.434  15.908  0.00  0.00    +0.000 HD
ENDBRANCH   1   2
BRANCH   1   7
ATOM      7  C   UNL     1       6.796   5.440  18.696  0.00  0.00    +0.000 C 
ATOM      8  O   UNL     1       7.762   4.794  19.114  0.00  0.00    +0.000 OA
ATOM      9  N   UNL     1       5.561   5.126  19.191  0.00  0.00    +0.000 N 
ATOM     10  H   UNL     1       5.531   4.357  19.849  0.00  0.00    +0.000 HD
BRANCH   9  11
ATOM     11  C   UNL     1       4.336   5.735  18.763  0.00  0.00    +0.000 C 
BRANCH  11  12
ATOM     12  C   UNL     1       3.095   4.980  19.109  0.00  0.00    +0.000 A 
ATOM     13  C   UNL     1       2.314   4.404  18.104  0.00  0.00    +0.000 A 
ATOM     14  C   UNL     1       1.207   3.630  18.442  0.00  0.00    +0.000 A 
ATOM     15  C   UNL     1       0.885   3.423  19.783  0.00  0.00    +0.000 A 
ATOM     16  C   UNL     1       1.665   3.985  20.791  0.00  0.00    +0.000 A 
ATOM     17  C   UNL     1       2.765   4.768  20.456  0.00  0.00    +0.000 A 
ENDBRANCH  11  12
ENDBRANCH   9  11
ENDBRANCH   1   7
BRANCH   1  18
ATOM     18  C   UNL     1       8.096   7.540  18.194  0.00  0.00    +0.000 C 
BRANCH  18  19
ATOM     19  C   UNL     1       8.041   9.027  17.826  0.00  0.00    +0.000 C 
BRANCH  19  20
ATOM     20  C   UNL     1       8.961   9.941  18.635  0.00  0.00    +0.000 C 
BRANCH  20  24
ATOM     21  N   UNL     1      11.212  12.512  17.339  0.00  0.00    +0.000 N 
ATOM     22  C   UNL     1      10.677  11.660  18.266  0.00  0.00    +0.000 C 
ATOM     23  O   UNL     1      11.055  11.625  19.431  0.00  0.00    +0.000 OA
ATOM     24  N   UNL     1       9.686  10.861  17.766  0.00  0.00    +0.000 N 
ATOM     25  H   UNL     1      10.929  12.471  16.373  0.00  0.00    +0.000 HD
ATOM     26  H   UNL     1       9.323  11.051  16.845  0.00  0.00    +0.000 HD
BRANCH  21  27
ATOM     27  C   UNL     1      12.330  13.348  17.716  0.00  0.00    +0.000 C 
BRANCH  27  29
ATOM     28  C   UNL     1      11.994  15.914  17.082  0.00  0.00    +0.000 C 
ATOM     29  C   UNL     1      12.108  14.745  17.362  0.00  0.00    +0.000 C 
ENDBRANCH  27  29
ENDBRANCH  21  27
ENDBRANCH  20  24
ENDBRANCH  19  20
ENDBRANCH  18  19
ENDBRANCH   1  18
TORSDOF 10
ENDMDL
MODEL 4
REMARK VINA RESULT:      -7.6      2.852      4.830
REMARK  Name = 
REMARK  11 active torsions:
REMARK  status: ('A' for Active; 'I' for Inactive)
REMARK    1  A    between atoms: C_2  and  C_3
REMARK    2  A    between atoms: C_3  and  N_4
REMARK    3  A    between atoms: N_7  and  C_8
REMARK    4  A    between atoms: C_8  and  C_9
REMARK    5  A    between atoms: C_9  and  C_10
REMARK    6  A    between atoms: C_10  and  C_11
REMARK    7  A    between atoms: C_11  and  N_12
REMARK    8  A    between atoms: C_11  and  C_16
REMARK    9  A    between atoms: C_13  and  C_14
REMARK   10  A    between atoms: N_18  and  C_19
REMARK   11  A    between atoms: C_19  and  C_20
REMARK                            x       y       z     vdW  Elec       q    Type
REMARK                         _______ _______ _______ _____ _____    ______ ____
ROOT
ATOM      1  C   UNL     1       5.273   6.298  17.425  0.00  0.00    +0.000 C 
ENDROOT
BRANCH   1   2
ATOM      2  N   UNL     1       6.350   7.280  17.198  0.00  0.00    +0.000 N 
ATOM      3  C   UNL     1       7.515   7.339  17.935  0.00  0.00    +0.000 C 
ATOM      4  C   UNL     1       8.323   8.597  17.725  0.00  0.00    +0.000 C 
ATOM      5  O   UNL     1       7.818   6.524  18.801  0.00  0.00    +0.000 OA
ATOM      6  H   UNL     1       6.203   7.971  16.476  0.00  0.00    +0.000 HD
ENDBRANCH   1   2
BRANCH   1   7
ATOM      7  C   UNL     1       3.856   6.988  17.547  0.00  0.00    +0.000 C 
ATOM      8  O   UNL     1       3.468   7.842  16.744  0.00  0.00    +0.000 OA
ATOM      9  N   UNL     1       2.991   6.607  18.534  0.00  0.00    +0.000 N 
ATOM     10  H   UNL     1       2.097   7.082  18.547  0.00  0.00    +0.000 HD
BRANCH   9  11
ATOM     11  C   UNL     1       3.310   5.678  19.579  0.00  0.00    +0.000 C 
BRANCH  11  12
ATOM     12  C   UNL     1       2.695   4.324  19.437  0.00  0.00    +0.000 A 
ATOM     13  C   UNL     1       1.400   4.083  19.903  0.00  0.00    +0.000 A 
ATOM     14  C   UNL     1       0.805   2.843  19.689  0.00  0.00    +0.000 A 
ATOM     15  C   UNL     1       1.497   1.847  19.001  0.00  0.00    +0.000 A 
ATOM     16  C   UNL     1       2.784   2.084  18.524  0.00  0.00    +0.000 A 
ATOM     17  C   UNL     1       3.386   3.318  18.746  0.00  0.00    +0.000 A 
ENDBRANCH  11  12
ENDBRANCH   9  11
ENDBRANCH   1   7
BRANCH   1  18
ATOM     18  C   UNL     1       5.202   5.292  16.258  0.00  0.00    +0.000 C 
BRANCH  18  19
ATOM     19  C   UNL     1       6.459   4.468  15.955  0.00  0.00    +0.000 C 
BRANCH  19  20
ATOM     20  C   UNL     1       6.657   4.081  14.490  0.00  0.00    +0.000 C 
BRANCH  20  24
ATOM     21  N   UNL     1       4.062   3.677  11.949  0.00  0.00    +0.000 N 
ATOM     22  C   UNL     1       5.302   3.548  12.512  0.00  0.00    +0.000 C 
ATOM     23  O   UNL     1       6.240   3.013  11.933  0.00  0.00    +0.000 OA
ATOM     24  N   UNL     1       5.388   4.072  13.771  0.00  0.00    +0.000 N 
ATOM     25  H   UNL     1       3.291   4.059  12.474  0.00  0.00    +0.000 HD
ATOM     26  H   UNL     1       4.625   4.632  14.121  0.00  0.00    +0.000 HD
BRANCH  21  27
ATOM     27  C   UNL     1       3.812   3.083  10.654  0.00  0.00    +0.000 C 
BRANCH  27  29
ATOM     28  C   UNL     1       2.507   4.706   8.992  0.00  0.00    +0.000 C 
ATOM     29  C   UNL     1       3.078   3.985   9.775  0.00  0.00    +0.000 C 
ENDBRANCH  27  29
ENDBRANCH  21  27
ENDBRANCH  20  24
ENDBRANCH  19  20
ENDBRANCH  18  19
ENDBRANCH   1  18
TORSDOF 10
ENDMDL
MODEL 5
REMARK VINA RESULT:      -7.6      2.750      4.371
REMARK  Name = 
REMARK  11 active torsions:
REMARK  status: ('A' for Active; 'I' for Inactive)
REMARK    1  A    between atoms: C_2  and  C_3
REMARK    2  A    between atoms: C_3  and  N_4
REMARK    3  A    between atoms: N_7  and  C_8
REMARK    4  A    between atoms: C_8  and  C_9
REMARK    5  A    between atoms: C_9  and  C_10
REMARK    6  A    between atoms: C_10  and  C_11
REMARK    7  A    between atoms: C_11  and  N_12
REMARK    8  A    between atoms: C_11  and  C_16
REMARK    9  A    between atoms: C_13  and  C_14
REMARK   10  A    between atoms: N_18  and  C_19
REMARK   11  A    between atoms: C_19  and  C_20
REMARK                            x       y       z     vdW  Elec       q    Type
REMARK                         _______ _______ _______ _____ _____    ______ ____
ROOT
ATOM      1  C   UNL     1       3.778   4.919  17.889  0.00  0.00    +0.000 C 
ENDROOT
BRANCH   1   2
ATOM      2  N   UNL     1       3.900   3.459  17.724  0.00  0.00    +0.000 N 
ATOM      3  C   UNL     1       3.176   2.533  18.447  0.00  0.00    +0.000 C 
ATOM      4  C   UNL     1       3.681   1.115  18.325  0.00  0.00    +0.000 C 
ATOM      5  O   UNL     1       2.289   2.828  19.242  0.00  0.00    +0.000 OA
ATOM      6  H   UNL     1       4.583   3.123  17.061  0.00  0.00    +0.000 HD
ENDBRANCH   1   2
BRANCH   1   7
ATOM      7  C   UNL     1       4.307   5.405  19.297  0.00  0.00    +0.000 C 
ATOM      8  O   UNL     1       5.460   5.183  19.679  0.00  0.00    +0.000 OA
ATOM      9  N   UNL     1       3.499   6.144  20.116  0.00  0.00    +0.000 N 
ATOM     10  H   UNL     1       3.906   6.431  20.998  0.00  0.00    +0.000 HD
BRANCH   9  11
ATOM     11  C   UNL     1       2.121   6.435  19.849  0.00  0.00    +0.000 C 
BRANCH  11  12
ATOM     12  C   UNL     1       1.828   7.855  19.493  0.00  0.00    +0.000 A 
ATOM     13  C   UNL     1       2.113   8.337  18.213  0.00  0.00    +0.000 A 
ATOM     14  C   UNL     1       1.757   9.637  17.865  0.00  0.00    +0.000 A 
ATOM     15  C   UNL     1       1.108  10.454  18.791  0.00  0.00    +0.000 A 
ATOM     16  C   UNL     1       0.811   9.977  20.065  0.00  0.00    +0.000 A 
ATOM     17  C   UNL     1       1.175   8.682  20.419  0.00  0.00    +0.000 A 
ENDBRANCH  11  12
ENDBRANCH   9  11
ENDBRANCH   1   7
BRANCH   1  18
ATOM     18  C   UNL     1       4.592   5.657  16.806  0.00  0.00    +0.000 C 
BRANCH  18  19
ATOM     19  C   UNL     1       5.593   4.834  15.989  0.00  0.00    +0.000 C 
BRANCH  19  20
ATOM     20  C   UNL     1       7.068   5.107  16.283  0.00  0.00    +0.000 C 
BRANCH  20  24
ATOM     21  N   UNL     1       7.908   8.463  17.463  0.00  0.00    +0.000 N 
ATOM     22  C   UNL     1       7.772   7.103  17.531  0.00  0.00    +0.000 C 
ATOM     23  O   UNL     1       8.021   6.461  18.544  0.00  0.00    +0.000 OA
ATOM     24  N   UNL     1       7.332   6.539  16.365  0.00  0.00    +0.000 N 
ATOM     25  H   UNL     1       7.762   8.956  16.597  0.00  0.00    +0.000 HD
ATOM     26  H   UNL     1       7.001   7.140  15.626  0.00  0.00    +0.000 HD
BRANCH  21  27
ATOM     27  C   UNL     1       8.451   9.172  18.600  0.00  0.00    +0.000 C 
BRANCH  27  29
ATOM     28  C   UNL     1       9.489  11.542  17.964  0.00  0.00    +0.000 C 
ATOM     29  C   UNL     1       9.027  10.455  18.216  0.00  0.00    +0.000 C 
ENDBRANCH  27  29
ENDBRANCH  21  27
ENDBRANCH  20  24
ENDBRANCH  19  20
ENDBRANCH  18  19
ENDBRANCH   1  18
TORSDOF 10
ENDMDL
MODEL 6
REMARK VINA RESULT:      -7.5      4.904      7.561
REMARK  Name = 
REMARK  11 active torsions:
REMARK  status: ('A' for Active; 'I' for Inactive)
REMARK    1  A    between atoms: C_2  and  C_3
REMARK    2  A    between atoms: C_3  and  N_4
REMARK    3  A    between atoms: N_7  and  C_8
REMARK    4  A    between atoms: C_8  and  C_9
REMARK    5  A    between atoms: C_9  and  C_10
REMARK    6  A    between atoms: C_10  and  C_11
REMARK    7  A    between atoms: C_11  and  N_12
REMARK    8  A    between atoms: C_11  and  C_16
REMARK    9  A    between atoms: C_13  and  C_14
REMARK   10  A    between atoms: N_18  and  C_19
REMARK   11  A    between atoms: C_19  and  C_20
REMARK                            x       y       z     vdW  Elec       q    Type
REMARK                         _______ _______ _______ _____ _____    ______ ____
ROOT
ATOM      1  C   UNL     1       6.835   6.153  18.006  0.00  0.00    +0.000 C 
ENDROOT
BRANCH   1   2
ATOM      2  N   UNL     1       7.167   5.393  16.787  0.00  0.00    +0.000 N 
ATOM      3  C   UNL     1       6.489   5.508  15.592  0.00  0.00    +0.000 C 
ATOM      4  C   UNL     1       6.807   4.426  14.587  0.00  0.00    +0.000 C 
ATOM      5  O   UNL     1       5.592   6.321  15.390  0.00  0.00    +0.000 OA
ATOM      6  H   UNL     1       7.921   4.723  16.849  0.00  0.00    +0.000 HD
ENDBRANCH   1   2
BRANCH   1   7
ATOM      7  C   UNL     1       6.674   5.214  19.267  0.00  0.00    +0.000 C 
ATOM      8  O   UNL     1       7.502   5.194  20.183  0.00  0.00    +0.000 OA
ATOM      9  N   UNL     1       5.564   4.427  19.399  0.00  0.00    +0.000 N 
ATOM     10  H   UNL     1       5.521   3.859  20.236  0.00  0.00    +0.000 HD
BRANCH   9  11
ATOM     11  C   UNL     1       4.544   4.289  18.401  0.00  0.00    +0.000 C 
BRANCH  11  12
ATOM     12  C   UNL     1       3.185   3.955  18.922  0.00  0.00    +0.000 A 
ATOM     13  C   UNL     1       2.337   3.114  18.197  0.00  0.00    +0.000 A 
ATOM     14  C   UNL     1       1.107   2.741  18.732  0.00  0.00    +0.000 A 
ATOM     15  C   UNL     1       0.727   3.198  19.994  0.00  0.00    +0.000 A 
ATOM     16  C   UNL     1       1.572   4.027  20.726  0.00  0.00    +0.000 A 
ATOM     17  C   UNL     1       2.797   4.411  20.190  0.00  0.00    +0.000 A 
ENDBRANCH  11  12
ENDBRANCH   9  11
ENDBRANCH   1   7
BRANCH   1  18
ATOM     18  C   UNL     1       7.945   7.176  18.326  0.00  0.00    +0.000 C 
BRANCH  18  19
ATOM     19  C   UNL     1       8.113   8.362  17.370  0.00  0.00    +0.000 C 
BRANCH  19  20
ATOM     20  C   UNL     1       7.952   9.746  18.000  0.00  0.00    +0.000 C 
BRANCH  20  24
ATOM     21  N   UNL     1      10.848  11.401  19.491  0.00  0.00    +0.000 N 
ATOM     22  C   UNL     1       9.756  11.268  18.678  0.00  0.00    +0.000 C 
ATOM     23  O   UNL     1       9.410  12.136  17.886  0.00  0.00    +0.000 OA
ATOM     24  N   UNL     1       9.099  10.080  18.836  0.00  0.00    +0.000 N 
ATOM     25  H   UNL     1      11.070  10.701  20.181  0.00  0.00    +0.000 HD
ATOM     26  H   UNL     1       9.528   9.354  19.390  0.00  0.00    +0.000 HD
BRANCH  21  27
ATOM     27  C   UNL     1      11.580  12.649  19.487  0.00  0.00    +0.000 C 
BRANCH  27  29
ATOM     28  C   UNL     1      10.461  14.477  21.070  0.00  0.00    +0.000 C 
ATOM     29  C   UNL     1      10.984  13.631  20.384  0.00  0.00    +0.000 C 
ENDBRANCH  27  29
ENDBRANCH  21  27
ENDBRANCH  20  24
ENDBRANCH  19  20
ENDBRANCH  18  19
ENDBRANCH   1  18
TORSDOF 10
ENDMDL
MODEL 7
REMARK VINA RESULT:      -7.5      5.099      7.578
REMARK  Name = 
REMARK  11 active torsions:
REMARK  status: ('A' for Active; 'I' for Inactive)
REMARK    1  A    between atoms: C_2  and  C_3
REMARK    2  A    between atoms: C_3  and  N_4
REMARK    3  A    between atoms: N_7  and  C_8
REMARK    4  A    between atoms: C_8  and  C_9
REMARK    5  A    between atoms: C_9  and  C_10
REMARK    6  A    between atoms: C_10  and  C_11
REMARK    7  A    between atoms: C_11  and  N_12
REMARK    8  A    between atoms: C_11  and  C_16
REMARK    9  A    between atoms: C_13  and  C_14
REMARK   10  A    between atoms: N_18  and  C_19
REMARK   11  A    between atoms: C_19  and  C_20
REMARK                            x       y       z     vdW  Elec       q    Type
REMARK                         _______ _______ _______ _____ _____    ______ ____
ROOT
ATOM      1  C   UNL     1       6.985   6.538  17.682  0.00  0.00    +0.000 C 
ENDROOT
BRANCH   1   2
ATOM      2  N   UNL     1       7.176   6.154  16.271  0.00  0.00    +0.000 N 
ATOM      3  C   UNL     1       6.292   5.376  15.552  0.00  0.00    +0.000 C 
ATOM      4  C   UNL     1       6.835   4.867  14.238  0.00  0.00    +0.000 C 
ATOM      5  O   UNL     1       5.208   4.995  15.985  0.00  0.00    +0.000 OA
ATOM      6  H   UNL     1       8.027   6.456  15.819  0.00  0.00    +0.000 HD
ENDBRANCH   1   2
BRANCH   1   7
ATOM      7  C   UNL     1       7.009   5.287  18.647  0.00  0.00    +0.000 C 
ATOM      8  O   UNL     1       8.039   4.641  18.864  0.00  0.00    +0.000 OA
ATOM      9  N   UNL     1       5.877   4.917  19.319  0.00  0.00    +0.000 N 
ATOM     10  H   UNL     1       5.965   4.113  19.928  0.00  0.00    +0.000 HD
BRANCH   9  11
ATOM     11  C   UNL     1       4.589   5.520  19.133  0.00  0.00    +0.000 C 
BRANCH  11  12
ATOM     12  C   UNL     1       3.424   4.653  19.480  0.00  0.00    +0.000 A 
ATOM     13  C   UNL     1       3.439   3.291  19.170  0.00  0.00    +0.000 A 
ATOM     14  C   UNL     1       2.386   2.475  19.574  0.00  0.00    +0.000 A 
ATOM     15  C   UNL     1       1.323   3.015  20.298  0.00  0.00    +0.000 A 
ATOM     16  C   UNL     1       1.307   4.370  20.620  0.00  0.00    +0.000 A 
ATOM     17  C   UNL     1       2.352   5.190  20.208  0.00  0.00    +0.000 A 
ENDBRANCH  11  12
ENDBRANCH   9  11
ENDBRANCH   1   7
BRANCH   1  18
ATOM     18  C   UNL     1       8.103   7.498  18.138  0.00  0.00    +0.000 C 
BRANCH  18  19
ATOM     19  C   UNL     1       7.937   8.986  17.807  0.00  0.00    +0.000 C 
BRANCH  19  20
ATOM     20  C   UNL     1       8.855   9.938  18.572  0.00  0.00    +0.000 C 
BRANCH  20  24
ATOM     21  N   UNL     1       9.623  13.341  17.484  0.00  0.00    +0.000 N 
ATOM     22  C   UNL     1       9.403  12.324  18.372  0.00  0.00    +0.000 C 
ATOM     23  O   UNL     1       9.408  12.492  19.586  0.00  0.00    +0.000 OA
ATOM     24  N   UNL     1       9.176  11.116  17.774  0.00  0.00    +0.000 N 
ATOM     25  H   UNL     1       9.681  13.161  16.494  0.00  0.00    +0.000 HD
ATOM     26  H   UNL     1       9.032  11.084  16.776  0.00  0.00    +0.000 HD
BRANCH  21  27
ATOM     27  C   UNL     1       9.965  14.653  17.988  0.00  0.00    +0.000 C 
BRANCH  27  29
ATOM     28  C   UNL     1       7.824  16.217  18.249  0.00  0.00    +0.000 C 
ATOM     29  C   UNL     1       8.786  15.492  18.165  0.00  0.00    +0.000 C 
ENDBRANCH  27  29
ENDBRANCH  21  27
ENDBRANCH  20  24
ENDBRANCH  19  20
ENDBRANCH  18  19
ENDBRANCH   1  18
TORSDOF 10
ENDMDL
MODEL 8
REMARK VINA RESULT:      -7.5      2.191      4.073
REMARK  Name = 
REMARK  11 active torsions:
REMARK  status: ('A' for Active; 'I' for Inactive)
REMARK    1  A    between atoms: C_2  and  C_3
REMARK    2  A    between atoms: C_3  and  N_4
REMARK    3  A    between atoms: N_7  and  C_8
REMARK    4  A    between atoms: C_8  and  C_9
REMARK    5  A    between atoms: C_9  and  C_10
REMARK    6  A    between atoms: C_10  and  C_11
REMARK    7  A    between atoms: C_11  and  N_12
REMARK    8  A    between atoms: C_11  and  C_16
REMARK    9  A    between atoms: C_13  and  C_14
REMARK   10  A    between atoms: N_18  and  C_19
REMARK   11  A    between atoms: C_19  and  C_20
REMARK                            x       y       z     vdW  Elec       q    Type
REMARK                         _______ _______ _______ _____ _____    ______ ____
ROOT
ATOM      1  C   UNL     1       4.913   6.119  18.967  0.00  0.00    +0.000 C 
ENDROOT
BRANCH   1   2
ATOM      2  N   UNL     1       3.637   5.998  19.696  0.00  0.00    +0.000 N 
ATOM      3  C   UNL     1       2.579   6.873  19.561  0.00  0.00    +0.000 C 
ATOM      4  C   UNL     1       1.510   6.727  20.616  0.00  0.00    +0.000 C 
ATOM      5  O   UNL     1       2.555   7.796  18.752  0.00  0.00    +0.000 OA
ATOM      6  H   UNL     1       3.553   5.242  20.360  0.00  0.00    +0.000 HD
ENDBRANCH   1   2
BRANCH   1   7
ATOM      7  C   UNL     1       5.931   4.973  19.354  0.00  0.00    +0.000 C 
ATOM      8  O   UNL     1       7.022   5.212  19.881  0.00  0.00    +0.000 OA
ATOM      9  N   UNL     1       5.595   3.663  19.158  0.00  0.00    +0.000 N 
ATOM     10  H   UNL     1       6.289   2.981  19.438  0.00  0.00    +0.000 HD
BRANCH   9  11
ATOM     11  C   UNL     1       4.398   3.221  18.504  0.00  0.00    +0.000 C 
BRANCH  11  12
ATOM     12  C   UNL     1       3.193   3.119  19.381  0.00  0.00    +0.000 A 
ATOM     13  C   UNL     1       1.911   3.233  18.837  0.00  0.00    +0.000 A 
ATOM     14  C   UNL     1       0.795   3.052  19.649  0.00  0.00    +0.000 A 
ATOM     15  C   UNL     1       0.957   2.746  21.000  0.00  0.00    +0.000 A 
ATOM     16  C   UNL     1       2.231   2.620  21.546  0.00  0.00    +0.000 A 
ATOM     17  C   UNL     1       3.349   2.812  20.740  0.00  0.00    +0.000 A 
ENDBRANCH  11  12
ENDBRANCH   9  11
ENDBRANCH   1   7
BRANCH   1  18
ATOM     18  C   UNL     1       4.677   6.038  17.445  0.00  0.00    +0.000 C 
BRANCH  18  19
ATOM     19  C   UNL     1       5.795   6.544  16.527  0.00  0.00    +0.000 C 
BRANCH  19  20
ATOM     20  C   UNL     1       6.967   5.584  16.323  0.00  0.00    +0.000 C 
BRANCH  20  24
ATOM     21  N   UNL     1       6.164   3.291  13.593  0.00  0.00    +0.000 N 
ATOM     22  C   UNL     1       6.641   4.432  14.178  0.00  0.00    +0.000 C 
ATOM     23  O   UNL     1       7.088   5.372  13.532  0.00  0.00    +0.000 OA
ATOM     24  N   UNL     1       6.565   4.419  15.543  0.00  0.00    +0.000 N 
ATOM     25  H   UNL     1       5.866   2.507  14.152  0.00  0.00    +0.000 HD
ATOM     26  H   UNL     1       6.046   3.682  15.997  0.00  0.00    +0.000 HD
BRANCH  21  27
ATOM     27  C   UNL     1       6.269   3.140  12.158  0.00  0.00    +0.000 C 
BRANCH  27  29
ATOM     28  C   UNL     1       3.848   3.142  11.046  0.00  0.00    +0.000 C 
ATOM     29  C   UNL     1       4.961   3.132  11.516  0.00  0.00    +0.000 C 
ENDBRANCH  27  29
ENDBRANCH  21  27
ENDBRANCH  20  24
ENDBRANCH  19  20
ENDBRANCH  18  19
ENDBRANCH   1  18
TORSDOF 10
ENDMDL
MODEL 9
REMARK VINA RESULT:      -7.4      1.417      2.196
REMARK  Name = 
REMARK  11 active torsions:
REMARK  status: ('A' for Active; 'I' for Inactive)
REMARK    1  A    between atoms: C_2  and  C_3
REMARK    2  A    between atoms: C_3  and  N_4
REMARK    3  A    between atoms: N_7  and  C_8
REMARK    4  A    between atoms: C_8  and  C_9
REMARK    5  A    between atoms: C_9  and  C_10
REMARK    6  A    between atoms: C_10  and  C_11
REMARK    7  A    between atoms: C_11  and  N_12
REMARK    8  A    between atoms: C_11  and  C_16
REMARK    9  A    between atoms: C_13  and  C_14
REMARK   10  A    between atoms: N_18  and  C_19
REMARK   11  A    between atoms: C_19  and  C_20
REMARK                            x       y       z     vdW  Elec       q    Type
REMARK                         _______ _______ _______ _____ _____    ______ ____
ROOT
ATOM      1  C   UNL     1       3.343   5.141  19.035  0.00  0.00    +0.000 C 
ENDROOT
BRANCH   1   2
ATOM      2  N   UNL     1       3.505   3.676  18.999  0.00  0.00    +0.000 N 
ATOM      3  C   UNL     1       3.556   2.928  17.841  0.00  0.00    +0.000 C 
ATOM      4  C   UNL     1       3.421   1.439  18.052  0.00  0.00    +0.000 C 
ATOM      5  O   UNL     1       3.562   3.414  16.713  0.00  0.00    +0.000 OA
ATOM      6  H   UNL     1       3.547   3.192  19.885  0.00  0.00    +0.000 HD
ENDBRANCH   1   2
BRANCH   1   7
ATOM      7  C   UNL     1       2.522   5.618  20.298  0.00  0.00    +0.000 C 
ATOM      8  O   UNL     1       2.290   4.871  21.254  0.00  0.00    +0.000 OA
ATOM      9  N   UNL     1       2.087   6.911  20.385  0.00  0.00    +0.000 N 
ATOM     10  H   UNL     1       1.576   7.151  21.226  0.00  0.00    +0.000 HD
BRANCH   9  11
ATOM     11  C   UNL     1       2.219   7.884  19.340  0.00  0.00    +0.000 C 
BRANCH  11  12
ATOM     12  C   UNL     1       1.187   8.963  19.342  0.00  0.00    +0.000 A 
ATOM     13  C   UNL     1       0.637   9.417  18.140  0.00  0.00    +0.000 A 
ATOM     14  C   UNL     1      -0.385  10.363  18.159  0.00  0.00    +0.000 A 
ATOM     15  C   UNL     1      -0.865  10.847  19.375  0.00  0.00    +0.000 A 
ATOM     16  C   UNL     1      -0.329  10.392  20.576  0.00  0.00    +0.000 A 
ATOM     17  C   UNL     1       0.700   9.456  20.561  0.00  0.00    +0.000 A 
ENDBRANCH  11  12
ENDBRANCH   9  11
ENDBRANCH   1   7
BRANCH   1  18
ATOM     18  C   UNL     1       4.719   5.837  19.085  0.00  0.00    +0.000 C 
BRANCH  18  19
ATOM     19  C   UNL     1       5.962   4.944  19.175  0.00  0.00    +0.000 C 
BRANCH  19  20
ATOM     20  C   UNL     1       6.934   5.045  17.999  0.00  0.00    +0.000 C 
BRANCH  20  24
ATOM     21  N   UNL     1       6.281   3.662  14.680  0.00  0.00    +0.000 N 
ATOM     22  C   UNL     1       6.802   4.530  15.601  0.00  0.00    +0.000 C 
ATOM     23  O   UNL     1       7.459   5.514  15.287  0.00  0.00    +0.000 OA
ATOM     24  N   UNL     1       6.514   4.191  16.894  0.00  0.00    +0.000 N 
ATOM     25  H   UNL     1       5.803   2.824  14.970  0.00  0.00    +0.000 HD
ATOM     26  H   UNL     1       5.841   3.460  17.070  0.00  0.00    +0.000 HD
BRANCH  21  27
ATOM     27  C   UNL     1       6.588   3.856  13.280  0.00  0.00    +0.000 C 
BRANCH  27  29
ATOM     28  C   UNL     1       4.517   3.197  11.740  0.00  0.00    +0.000 C 
ATOM     29  C   UNL     1       5.477   3.468  12.421  0.00  0.00    +0.000 C 
ENDBRANCH  27  29
ENDBRANCH  21  27
ENDBRANCH  20  24
ENDBRANCH  19  20
ENDBRANCH  18  19
ENDBRANCH   1  18
TORSDOF 10
ENDMDL
