MODEL 1
REMARK VINA RESULT:      -8.8      0.000      0.000
REMARK  Name = 
REMARK  11 active torsions:
REMARK  status: ('A' for Active; 'I' for Inactive)
REMARK    1  A    between atoms: C_1  and  C_2
REMARK    2  A    between atoms: C_2  and  C_3
REMARK    3  A    between atoms: N_5  and  C_6
REMARK    4  A    between atoms: N_5  and  C_12
REMARK    5  A    between atoms: C_6  and  C_7
REMARK    6  A    between atoms: C_7  and  C_8
REMARK    7  A    between atoms: C_8  and  C_9
REMARK    8  A    between atoms: C_9  and  O_11
REMARK    9  A    between atoms: C_12  and  C_13
REMARK   10  A    between atoms: C_23  and  C_25
REMARK   11  A    between atoms: C_25  and  C_26
REMARK                            x       y       z     vdW  Elec       q    Type
REMARK                         _______ _______ _______ _____ _____    ______ ____
ROOT
ATOM      1  C   UNL     1       3.907   3.633  17.237  0.00  0.00    +0.000 C 
ATOM      2  O   UNL     1       3.077   3.631  16.308  0.00  0.00    +0.000 OA
ATOM      3  N   UNL     1       5.141   4.280  16.988  0.00  0.00    +0.000 N 
ENDROOT
BRANCH   1   5
ATOM      4  C   UNL     1       4.707   2.842  19.666  0.00  0.00    +0.000 C 
ATOM      5  C   UNL     1       3.558   2.932  18.655  0.00  0.00    +0.000 C 
ATOM      6  C   UNL     1       2.690   1.645  18.660  0.00  0.00    +0.000 C 
ATOM      7  C   UNL     1       1.542   2.406  19.303  0.00  0.00    +0.000 C 
ATOM      8  N   UNL     1       2.405   3.565  19.337  0.00  0.00    +0.000 N 
ATOM      9  C   UNL     1       2.110   4.784  19.883  0.00  0.00    +0.000 C 
ATOM     10  O   UNL     1       1.021   4.969  20.439  0.00  0.00    +0.000 OA
BRANCH   9  11
ATOM     11  C   UNL     1       3.131   5.906  19.776  0.00  0.00    +0.000 C 
BRANCH  11  12
ATOM     12  C   UNL     1       2.609   7.109  19.062  0.00  0.00    +0.000 A 
ATOM     13  C   UNL     1       2.837   7.460  17.744  0.00  0.00    +0.000 A 
ATOM     14  O   UNL     1       2.216   8.625  17.431  0.00  0.00    +0.000 OA
ATOM     15  C   UNL     1       1.585   9.053  18.556  0.00  0.00    +0.000 A 
ATOM     16  C   UNL     1       0.829  10.219  18.662  0.00  0.00    +0.000 A 
ATOM     17  C   UNL     1       0.265  10.486  19.912  0.00  0.00    +0.000 A 
ATOM     18  C   UNL     1       0.471   9.626  20.994  0.00  0.00    +0.000 A 
ATOM     19  C   UNL     1       1.246   8.466  20.858  0.00  0.00    +0.000 A 
ATOM     20  C   UNL     1       1.806   8.164  19.601  0.00  0.00    +0.000 A 
ENDBRANCH  11  12
ENDBRANCH   9  11
ENDBRANCH   1   5
BRANCH   3  21
ATOM     21  C   UNL     1       5.333   5.045  15.730  0.00  0.00    +0.000 C 
BRANCH  21  22
ATOM     22  C   UNL     1       6.176   4.400  14.616  0.00  0.00    +0.000 C 
BRANCH  22  23
ATOM     23  C   UNL     1       5.436   3.756  13.449  0.00  0.00    +0.000 C 
BRANCH  23  24
ATOM     24  C   UNL     1       6.363   3.385  12.315  0.00  0.00    +0.000 C 
ATOM     25  O   UNL     1       7.216   4.140  11.871  0.00  0.00    +0.000 OA
BRANCH  24  26
ATOM     26  O   UNL     1       6.141   2.161  11.800  0.00  0.00    +0.000 OA
ATOM     27  H   UNL     1       6.932   1.784  11.340  0.00  0.00    +0.000 HD
ENDBRANCH  24  26
ENDBRANCH  23  24
ENDBRANCH  22  23
ENDBRANCH  21  22
ENDBRANCH   3  21
BRANCH   3  28
ATOM     28  C   UNL     1       6.170   4.470  18.013  0.00  0.00    +0.000 C 
BRANCH  28  29
ATOM     29  C   UNL     1       6.751   5.859  18.081  0.00  0.00    +0.000 A 
ATOM     30  C   UNL     1       6.269   6.923  17.306  0.00  0.00    +0.000 A 
ATOM     31  C   UNL     1       6.914   8.161  17.312  0.00  0.00    +0.000 A 
ATOM     32  C   UNL     1       8.026   8.354  18.123  0.00  0.00    +0.000 A 
ATOM     33 CL   UNL     1       8.863   9.854  18.076  0.00  0.00    +0.000 Cl
ATOM     34  C   UNL     1       8.481   7.331  18.951  0.00  0.00    +0.000 A 
ATOM     35  C   UNL     1       7.843   6.088  18.934  0.00  0.00    +0.000 A 
ENDBRANCH  28  29
ENDBRANCH   3  28
TORSDOF 10
ENDMDL
MODEL 2
REMARK VINA RESULT:      -8.6      0.759      1.206
REMARK  Name = 
REMARK  11 active torsions:
REMARK  status: ('A' for Active; 'I' for Inactive)
REMARK    1  A    between atoms: C_1  and  C_2
REMARK    2  A    between atoms: C_2  and  C_3
REMARK    3  A    between atoms: N_5  and  C_6
REMARK    4  A    between atoms: N_5  and  C_12
REMARK    5  A    between atoms: C_6  and  C_7
REMARK    6  A    between atoms: C_7  and  C_8
REMARK    7  A    between atoms: C_8  and  C_9
REMARK    8  A    between atoms: C_9  and  O_11
REMARK    9  A    between atoms: C_12  and  C_13
REMARK   10  A    between atoms: C_23  and  C_25
REMARK   11  A    between atoms: C_25  and  C_26
REMARK                            x       y       z     vdW  Elec       q    Type
REMARK                         _______ _______ _______ _____ _____    ______ ____
ROOT
ATOM      1  C   UNL     1       3.473   3.362  17.665  0.00  0.00    +0.000 C 
ATOM      2  O   UNL     1       2.726   3.241  16.675  0.00  0.00    +0.000 OA
ATOM      3  N   UNL     1       4.742   3.946  17.439  0.00  0.00    +0.000 N 
ENDROOT
BRANCH   1   5
ATOM      4  C   UNL     1       4.068   2.781  20.210  0.00  0.00    +0.000 C 
ATOM      5  C   UNL     1       2.982   2.878  19.131  0.00  0.00    +0.000 C 
ATOM      6  C   UNL     1       1.969   1.706  19.232  0.00  0.00    +0.000 C 
ATOM      7  C   UNL     1       0.892   2.661  19.718  0.00  0.00    +0.000 C 
ATOM      8  N   UNL     1       1.883   3.713  19.670  0.00  0.00    +0.000 N 
ATOM      9  C   UNL     1       1.709   5.013  20.058  0.00  0.00    +0.000 C 
ATOM     10  O   UNL     1       0.626   5.383  20.526  0.00  0.00    +0.000 OA
BRANCH   9  11
ATOM     11  C   UNL     1       2.858   5.993  19.883  0.00  0.00    +0.000 C 
BRANCH  11  12
ATOM     12  C   UNL     1       2.475   7.218  19.120  0.00  0.00    +0.000 A 
ATOM     13  C   UNL     1       2.767   7.503  17.799  0.00  0.00    +0.000 A 
ATOM     14  O   UNL     1       2.272   8.712  17.436  0.00  0.00    +0.000 OA
ATOM     15  C   UNL     1       1.661   9.237  18.531  0.00  0.00    +0.000 A 
ATOM     16  C   UNL     1       1.023  10.474  18.583  0.00  0.00    +0.000 A 
ATOM     17  C   UNL     1       0.459  10.835  19.810  0.00  0.00    +0.000 A 
ATOM     18  C   UNL     1       0.555   9.994  20.921  0.00  0.00    +0.000 A 
ATOM     19  C   UNL     1       1.213   8.760  20.839  0.00  0.00    +0.000 A 
ATOM     20  C   UNL     1       1.769   8.364  19.607  0.00  0.00    +0.000 A 
ENDBRANCH  11  12
ENDBRANCH   9  11
ENDBRANCH   1   5
BRANCH   3  21
ATOM     21  C   UNL     1       5.064   4.519  16.107  0.00  0.00    +0.000 C 
BRANCH  21  22
ATOM     22  C   UNL     1       5.939   3.684  15.156  0.00  0.00    +0.000 C 
BRANCH  22  23
ATOM     23  C   UNL     1       5.892   4.021  13.670  0.00  0.00    +0.000 C 
BRANCH  23  24
ATOM     24  C   UNL     1       7.146   4.719  13.198  0.00  0.00    +0.000 C 
ATOM     25  O   UNL     1       7.852   5.398  13.930  0.00  0.00    +0.000 OA
BRANCH  24  26
ATOM     26  O   UNL     1       7.401   4.566  11.885  0.00  0.00    +0.000 OA
ATOM     27  H   UNL     1       7.477   5.425  11.402  0.00  0.00    +0.000 HD
ENDBRANCH  24  26
ENDBRANCH  23  24
ENDBRANCH  22  23
ENDBRANCH  21  22
ENDBRANCH   3  21
BRANCH   3  28
ATOM     28  C   UNL     1       5.684   4.264  18.515  0.00  0.00    +0.000 C 
BRANCH  28  29
ATOM     29  C   UNL     1       6.480   5.527  18.310  0.00  0.00    +0.000 A 
ATOM     30  C   UNL     1       7.709   5.763  18.941  0.00  0.00    +0.000 A 
ATOM     31  C   UNL     1       8.353   6.994  18.816  0.00  0.00    +0.000 A 
ATOM     32  C   UNL     1       7.788   7.989  18.027  0.00  0.00    +0.000 A 
ATOM     33 CL   UNL     1       8.543   9.531  17.931  0.00  0.00    +0.000 Cl
ATOM     34  C   UNL     1       6.601   7.753  17.337  0.00  0.00    +0.000 A 
ATOM     35  C   UNL     1       5.952   6.524  17.474  0.00  0.00    +0.000 A 
ENDBRANCH  28  29
ENDBRANCH   3  28
TORSDOF 10
ENDMDL
MODEL 3
REMARK VINA RESULT:      -8.5      0.602      1.075
REMARK  Name = 
REMARK  11 active torsions:
REMARK  status: ('A' for Active; 'I' for Inactive)
REMARK    1  A    between atoms: C_1  and  C_2
REMARK    2  A    between atoms: C_2  and  C_3
REMARK    3  A    between atoms: N_5  and  C_6
REMARK    4  A    between atoms: N_5  and  C_12
REMARK    5  A    between atoms: C_6  and  C_7
REMARK    6  A    between atoms: C_7  and  C_8
REMARK    7  A    between atoms: C_8  and  C_9
REMARK    8  A    between atoms: C_9  and  O_11
REMARK    9  A    between atoms: C_12  and  C_13
REMARK   10  A    between atoms: C_23  and  C_25
REMARK   11  A    between atoms: C_25  and  C_26
REMARK                            x       y       z     vdW  Elec       q    Type
REMARK                         _______ _______ _______ _____ _____    ______ ____
ROOT
ATOM      1  C   UNL     1       3.501   3.438  17.337  0.00  0.00    +0.000 C 
ATOM      2  O   UNL     1       2.591   3.520  16.490  0.00  0.00    +0.000 OA
ATOM      3  N   UNL     1       4.795   3.833  16.922  0.00  0.00    +0.000 N 
ENDROOT
BRANCH   1   5
ATOM      4  C   UNL     1       4.386   2.822  19.787  0.00  0.00    +0.000 C 
ATOM      5  C   UNL     1       3.186   2.914  18.836  0.00  0.00    +0.000 C 
ATOM      6  C   UNL     1       2.216   1.717  19.023  0.00  0.00    +0.000 C 
ATOM      7  C   UNL     1       1.178   2.637  19.645  0.00  0.00    +0.000 C 
ATOM      8  N   UNL     1       2.136   3.712  19.512  0.00  0.00    +0.000 N 
ATOM      9  C   UNL     1       1.978   5.000  19.944  0.00  0.00    +0.000 C 
ATOM     10  O   UNL     1       0.946   5.335  20.537  0.00  0.00    +0.000 OA
BRANCH   9  11
ATOM     11  C   UNL     1       3.080   6.010  19.666  0.00  0.00    +0.000 C 
BRANCH  11  12
ATOM     12  C   UNL     1       2.588   7.242  18.979  0.00  0.00    +0.000 A 
ATOM     13  C   UNL     1       2.842   7.626  17.675  0.00  0.00    +0.000 A 
ATOM     14  O   UNL     1       2.245   8.809  17.387  0.00  0.00    +0.000 OA
ATOM     15  C   UNL     1       1.604   9.216  18.514  0.00  0.00    +0.000 A 
ATOM     16  C   UNL     1       0.865  10.391  18.642  0.00  0.00    +0.000 A 
ATOM     17  C   UNL     1       0.286  10.631  19.892  0.00  0.00    +0.000 A 
ATOM     18  C   UNL     1       0.462   9.737  20.951  0.00  0.00    +0.000 A 
ATOM     19  C   UNL     1       1.220   8.569  20.793  0.00  0.00    +0.000 A 
ATOM     20  C   UNL     1       1.795   8.294  19.536  0.00  0.00    +0.000 A 
ENDBRANCH  11  12
ENDBRANCH   9  11
ENDBRANCH   1   5
BRANCH   3  21
ATOM     21  C   UNL     1       4.984   4.460  15.589  0.00  0.00    +0.000 C 
BRANCH  21  22
ATOM     22  C   UNL     1       5.923   3.760  14.590  0.00  0.00    +0.000 C 
BRANCH  22  23
ATOM     23  C   UNL     1       5.947   4.279  13.157  0.00  0.00    +0.000 C 
BRANCH  23  24
ATOM     24  C   UNL     1       5.642   3.196  12.149  0.00  0.00    +0.000 C 
ATOM     25  O   UNL     1       6.449   2.339  11.819  0.00  0.00    +0.000 OA
BRANCH  24  26
ATOM     26  O   UNL     1       4.412   3.277  11.607  0.00  0.00    +0.000 OA
ATOM     27  H   UNL     1       3.752   2.692  12.053  0.00  0.00    +0.000 HD
ENDBRANCH  24  26
ENDBRANCH  23  24
ENDBRANCH  22  23
ENDBRANCH  21  22
ENDBRANCH   3  21
BRANCH   3  28
ATOM     28  C   UNL     1       5.943   3.908  17.830  0.00  0.00    +0.000 C 
BRANCH  28  29
ATOM     29  C   UNL     1       6.641   5.243  17.863  0.00  0.00    +0.000 A 
ATOM     30  C   UNL     1       7.738   5.507  18.695  0.00  0.00    +0.000 A 
ATOM     31  C   UNL     1       8.277   6.791  18.781  0.00  0.00    +0.000 A 
ATOM     32  C   UNL     1       7.744   7.814  18.007  0.00  0.00    +0.000 A 
ATOM     33 CL   UNL     1       8.360   9.411  18.167  0.00  0.00    +0.000 Cl
ATOM     34  C   UNL     1       6.698   7.559  17.125  0.00  0.00    +0.000 A 
ATOM     35  C   UNL     1       6.151   6.276  17.048  0.00  0.00    +0.000 A 
ENDBRANCH  28  29
ENDBRANCH   3  28
TORSDOF 10
ENDMDL
MODEL 4
REMARK VINA RESULT:      -8.1      3.725      6.956
REMARK  Name = 
REMARK  11 active torsions:
REMARK  status: ('A' for Active; 'I' for Inactive)
REMARK    1  A    between atoms: C_1  and  C_2
REMARK    2  A    between atoms: C_2  and  C_3
REMARK    3  A    between atoms: N_5  and  C_6
REMARK    4  A    between atoms: N_5  and  C_12
REMARK    5  A    between atoms: C_6  and  C_7
REMARK    6  A    between atoms: C_7  and  C_8
REMARK    7  A    between atoms: C_8  and  C_9
REMARK    8  A    between atoms: C_9  and  O_11
REMARK    9  A    between atoms: C_12  and  C_13
REMARK   10  A    between atoms: C_23  and  C_25
REMARK   11  A    between atoms: C_25  and  C_26
REMARK                            x       y       z     vdW  Elec       q    Type
REMARK                         _______ _______ _______ _____ _____    ______ ____
ROOT
ATOM      1  C   UNL     1       1.470   8.769  19.873  0.00  0.00    +0.000 C 
ATOM      2  O   UNL     1       1.309   8.955  21.095  0.00  0.00    +0.000 OA
ATOM      3  N   UNL     1       2.000   7.515  19.483  0.00  0.00    +0.000 N 
ENDROOT
BRANCH   1   5
ATOM      4  C   UNL     1      -0.325   9.809  18.182  0.00  0.00    +0.000 C 
ATOM      5  C   UNL     1       1.072   9.919  18.805  0.00  0.00    +0.000 C 
ATOM      6  C   UNL     1       2.129  10.372  17.762  0.00  0.00    +0.000 C 
ATOM      7  C   UNL     1       2.245  11.724  18.447  0.00  0.00    +0.000 C 
ATOM      8  N   UNL     1       1.212  11.286  19.359  0.00  0.00    +0.000 N 
ATOM      9  C   UNL     1       0.637  12.030  20.353  0.00  0.00    +0.000 C 
ATOM     10  O   UNL     1       0.973  13.207  20.523  0.00  0.00    +0.000 OA
BRANCH   9  11
ATOM     11  C   UNL     1      -0.403  11.378  21.250  0.00  0.00    +0.000 C 
BRANCH  11  12
ATOM     12  C   UNL     1      -1.764  11.976  21.102  0.00  0.00    +0.000 A 
ATOM     13  C   UNL     1      -2.359  12.416  19.934  0.00  0.00    +0.000 A 
ATOM     14  O   UNL     1      -3.598  12.913  20.171  0.00  0.00    +0.000 OA
ATOM     15  C   UNL     1      -3.818  12.814  21.509  0.00  0.00    +0.000 A 
ATOM     16  C   UNL     1      -4.977  13.217  22.168  0.00  0.00    +0.000 A 
ATOM     17  C   UNL     1      -5.003  13.035  23.554  0.00  0.00    +0.000 A 
ATOM     18  C   UNL     1      -3.908  12.490  24.229  0.00  0.00    +0.000 A 
ATOM     19  C   UNL     1      -2.752  12.104  23.538  0.00  0.00    +0.000 A 
ATOM     20  C   UNL     1      -2.711  12.257  22.138  0.00  0.00    +0.000 A 
ENDBRANCH  11  12
ENDBRANCH   9  11
ENDBRANCH   1   5
BRANCH   3  21
ATOM     21  C   UNL     1       2.186   6.446  20.497  0.00  0.00    +0.000 C 
BRANCH  21  22
ATOM     22  C   UNL     1       1.227   5.243  20.461  0.00  0.00    +0.000 C 
BRANCH  22  23
ATOM     23  C   UNL     1       1.776   3.885  20.881  0.00  0.00    +0.000 C 
BRANCH  23  24
ATOM     24  C   UNL     1       1.407   2.790  19.908  0.00  0.00    +0.000 C 
ATOM     25  O   UNL     1       2.225   2.032  19.408  0.00  0.00    +0.000 OA
BRANCH  24  26
ATOM     26  O   UNL     1       0.096   2.743  19.602  0.00  0.00    +0.000 OA
ATOM     27  H   UNL     1      -0.072   2.607  18.637  0.00  0.00    +0.000 HD
ENDBRANCH  24  26
ENDBRANCH  23  24
ENDBRANCH  22  23
ENDBRANCH  21  22
ENDBRANCH   3  21
BRANCH   3  28
ATOM     28  C   UNL     1       2.137   7.100  18.085  0.00  0.00    +0.000 C 
BRANCH  28  29
ATOM     29  C   UNL     1       3.432   6.403  17.754  0.00  0.00    +0.000 A 
ATOM     30  C   UNL     1       3.555   5.008  17.710  0.00  0.00    +0.000 A 
ATOM     31  C   UNL     1       4.798   4.406  17.517  0.00  0.00    +0.000 A 
ATOM     32  C   UNL     1       5.925   5.198  17.329  0.00  0.00    +0.000 A 
ATOM     33 CL   UNL     1       7.468   4.457  17.164  0.00  0.00    +0.000 Cl
ATOM     34  C   UNL     1       5.814   6.586  17.302  0.00  0.00    +0.000 A 
ATOM     35  C   UNL     1       4.571   7.187  17.508  0.00  0.00    +0.000 A 
ENDBRANCH  28  29
ENDBRANCH   3  28
TORSDOF 10
ENDMDL
MODEL 5
REMARK VINA RESULT:      -7.9      1.087      1.595
REMARK  Name = 
REMARK  11 active torsions:
REMARK  status: ('A' for Active; 'I' for Inactive)
REMARK    1  A    between atoms: C_1  and  C_2
REMARK    2  A    between atoms: C_2  and  C_3
REMARK    3  A    between atoms: N_5  and  C_6
REMARK    4  A    between atoms: N_5  and  C_12
REMARK    5  A    between atoms: C_6  and  C_7
REMARK    6  A    between atoms: C_7  and  C_8
REMARK    7  A    between atoms: C_8  and  C_9
REMARK    8  A    between atoms: C_9  and  O_11
REMARK    9  A    between atoms: C_12  and  C_13
REMARK   10  A    between atoms: C_23  and  C_25
REMARK   11  A    between atoms: C_25  and  C_26
REMARK                            x       y       z     vdW  Elec       q    Type
REMARK                         _______ _______ _______ _____ _____    ______ ____
ROOT
ATOM      1  C   UNL     1       3.717   3.539  17.188  0.00  0.00    +0.000 C 
ATOM      2  O   UNL     1       2.738   3.622  16.421  0.00  0.00    +0.000 OA
ATOM      3  N   UNL     1       4.955   4.016  16.696  0.00  0.00    +0.000 N 
ENDROOT
BRANCH   1   5
ATOM      4  C   UNL     1       4.728   3.127  19.632  0.00  0.00    +0.000 C 
ATOM      5  C   UNL     1       3.547   2.921  18.675  0.00  0.00    +0.000 C 
ATOM      6  C   UNL     1       2.924   1.508  18.832  0.00  0.00    +0.000 C 
ATOM      7  C   UNL     1       1.681   2.112  19.464  0.00  0.00    +0.000 C 
ATOM      8  N   UNL     1       2.324   3.403  19.357  0.00  0.00    +0.000 N 
ATOM      9  C   UNL     1       1.833   4.596  19.813  0.00  0.00    +0.000 C 
ATOM     10  O   UNL     1       0.749   4.637  20.404  0.00  0.00    +0.000 OA
BRANCH   9  11
ATOM     11  C   UNL     1       2.633   5.864  19.561  0.00  0.00    +0.000 C 
BRANCH  11  12
ATOM     12  C   UNL     1       1.961   7.094  20.076  0.00  0.00    +0.000 A 
ATOM     13  C   UNL     1       1.357   7.261  21.309  0.00  0.00    +0.000 A 
ATOM     14  O   UNL     1       0.837   8.506  21.437  0.00  0.00    +0.000 OA
ATOM     15  C   UNL     1       1.086   9.163  20.274  0.00  0.00    +0.000 A 
ATOM     16  C   UNL     1       0.712  10.476  19.993  0.00  0.00    +0.000 A 
ATOM     17  C   UNL     1       1.059  10.967  18.731  0.00  0.00    +0.000 A 
ATOM     18  C   UNL     1       1.729  10.165  17.805  0.00  0.00    +0.000 A 
ATOM     19  C   UNL     1       2.082   8.844  18.114  0.00  0.00    +0.000 A 
ATOM     20  C   UNL     1       1.764   8.334  19.388  0.00  0.00    +0.000 A 
ENDBRANCH  11  12
ENDBRANCH   9  11
ENDBRANCH   1   5
BRANCH   3  21
ATOM     21  C   UNL     1       5.009   4.721  15.390  0.00  0.00    +0.000 C 
BRANCH  21  22
ATOM     22  C   UNL     1       5.948   4.163  14.306  0.00  0.00    +0.000 C 
BRANCH  22  23
ATOM     23  C   UNL     1       7.332   4.787  14.177  0.00  0.00    +0.000 C 
BRANCH  23  24
ATOM     24  C   UNL     1       7.689   5.102  12.743  0.00  0.00    +0.000 C 
ATOM     25  O   UNL     1       8.300   6.106  12.408  0.00  0.00    +0.000 OA
BRANCH  24  26
ATOM     26  O   UNL     1       7.238   4.199  11.852  0.00  0.00    +0.000 OA
ATOM     27  H   UNL     1       6.447   3.699  12.172  0.00  0.00    +0.000 HD
ENDBRANCH  24  26
ENDBRANCH  23  24
ENDBRANCH  22  23
ENDBRANCH  21  22
ENDBRANCH   3  21
BRANCH   3  28
ATOM     28  C   UNL     1       6.168   4.096  17.513  0.00  0.00    +0.000 C 
BRANCH  28  29
ATOM     29  C   UNL     1       6.689   5.492  17.742  0.00  0.00    +0.000 A 
ATOM     30  C   UNL     1       6.208   6.607  17.043  0.00  0.00    +0.000 A 
ATOM     31  C   UNL     1       6.802   7.860  17.201  0.00  0.00    +0.000 A 
ATOM     32  C   UNL     1       7.860   8.013  18.089  0.00  0.00    +0.000 A 
ATOM     33 CL   UNL     1       8.639   9.540  18.229  0.00  0.00    +0.000 Cl
ATOM     34  C   UNL     1       8.311   6.933  18.843  0.00  0.00    +0.000 A 
ATOM     35  C   UNL     1       7.723   5.676  18.675  0.00  0.00    +0.000 A 
ENDBRANCH  28  29
ENDBRANCH   3  28
TORSDOF 10
ENDMDL
MODEL 6
REMARK VINA RESULT:      -7.9      2.946      7.893
REMARK  Name = 
REMARK  11 active torsions:
REMARK  status: ('A' for Active; 'I' for Inactive)
REMARK    1  A    between atoms: C_1  and  C_2
REMARK    2  A    between atoms: C_2  and  C_3
REMARK    3  A    between atoms: N_5  and  C_6
REMARK    4  A    between atoms: N_5  and  C_12
REMARK    5  A    between atoms: C_6  and  C_7
REMARK    6  A    between atoms: C_7  and  C_8
REMARK    7  A    between atoms: C_8  and  C_9
REMARK    8  A    between atoms: C_9  and  O_11
REMARK    9  A    between atoms: C_12  and  C_13
REMARK   10  A    between atoms: C_23  and  C_25
REMARK   11  A    between atoms: C_25  and  C_26
REMARK                            x       y       z     vdW  Elec       q    Type
REMARK                         _______ _______ _______ _____ _____    ______ ____
ROOT
ATOM      1  C   UNL     1       1.873   5.934  20.196  0.00  0.00    +0.000 C 
ATOM      2  O   UNL     1       1.861   5.573  21.389  0.00  0.00    +0.000 OA
ATOM      3  N   UNL     1       1.712   7.318  19.946  0.00  0.00    +0.000 N 
ENDROOT
BRANCH   1   5
ATOM      4  C   UNL     1       2.209   5.416  17.592  0.00  0.00    +0.000 C 
ATOM      5  C   UNL     1       2.076   4.850  19.010  0.00  0.00    +0.000 C 
ATOM      6  C   UNL     1       1.227   3.550  19.029  0.00  0.00    +0.000 C 
ATOM      7  C   UNL     1       2.467   2.728  19.338  0.00  0.00    +0.000 C 
ATOM      8  N   UNL     1       3.231   3.953  19.248  0.00  0.00    +0.000 N 
ATOM      9  C   UNL     1       4.590   4.073  19.352  0.00  0.00    +0.000 C 
ATOM     10  O   UNL     1       5.293   3.070  19.515  0.00  0.00    +0.000 OA
BRANCH   9  11
ATOM     11  C   UNL     1       5.213   5.458  19.284  0.00  0.00    +0.000 C 
BRANCH  11  12
ATOM     12  C   UNL     1       6.073   5.657  18.078  0.00  0.00    +0.000 A 
ATOM     13  C   UNL     1       7.144   6.521  17.952  0.00  0.00    +0.000 A 
ATOM     14  O   UNL     1       7.690   6.450  16.713  0.00  0.00    +0.000 OA
ATOM     15  C   UNL     1       6.963   5.542  16.010  0.00  0.00    +0.000 A 
ATOM     16  C   UNL     1       7.194   5.175  14.686  0.00  0.00    +0.000 A 
ATOM     17  C   UNL     1       6.327   4.224  14.141  0.00  0.00    +0.000 A 
ATOM     18  C   UNL     1       5.277   3.693  14.893  0.00  0.00    +0.000 A 
ATOM     19  C   UNL     1       5.063   4.091  16.220  0.00  0.00    +0.000 A 
ATOM     20  C   UNL     1       5.939   5.031  16.799  0.00  0.00    +0.000 A 
ENDBRANCH  11  12
ENDBRANCH   9  11
ENDBRANCH   1   5
BRANCH   3  21
ATOM     21  C   UNL     1       1.697   8.276  21.082  0.00  0.00    +0.000 C 
BRANCH  21  22
ATOM     22  C   UNL     1       0.357   8.526  21.796  0.00  0.00    +0.000 C 
BRANCH  22  23
ATOM     23  C   UNL     1       0.354   9.485  22.981  0.00  0.00    +0.000 C 
BRANCH  23  24
ATOM     24  C   UNL     1      -0.379  10.771  22.678  0.00  0.00    +0.000 C 
ATOM     25  O   UNL     1       0.101  11.675  22.010  0.00  0.00    +0.000 OA
BRANCH  24  26
ATOM     26  O   UNL     1      -1.597  10.857  23.243  0.00  0.00    +0.000 OA
ATOM     27  H   UNL     1      -1.864  11.787  23.452  0.00  0.00    +0.000 HD
ENDBRANCH  24  26
ENDBRANCH  23  24
ENDBRANCH  22  23
ENDBRANCH  21  22
ENDBRANCH   3  21
BRANCH   3  28
ATOM     28  C   UNL     1       1.821   7.912  18.612  0.00  0.00    +0.000 C 
BRANCH  28  29
ATOM     29  C   UNL     1       1.295   9.320  18.498  0.00  0.00    +0.000 A 
ATOM     30  C   UNL     1       2.127  10.447  18.528  0.00  0.00    +0.000 A 
ATOM     31  C   UNL     1       1.587  11.734  18.541  0.00  0.00    +0.000 A 
ATOM     32  C   UNL     1       0.209  11.902  18.486  0.00  0.00    +0.000 A 
ATOM     33 CL   UNL     1      -0.460  13.484  18.575  0.00  0.00    +0.000 Cl
ATOM     34  C   UNL     1      -0.634  10.798  18.388  0.00  0.00    +0.000 A 
ATOM     35  C   UNL     1      -0.093   9.510  18.389  0.00  0.00    +0.000 A 
ENDBRANCH  28  29
ENDBRANCH   3  28
TORSDOF 10
ENDMDL
MODEL 7
REMARK VINA RESULT:      -7.8      0.918      1.631
REMARK  Name = 
REMARK  11 active torsions:
REMARK  status: ('A' for Active; 'I' for Inactive)
REMARK    1  A    between atoms: C_1  and  C_2
REMARK    2  A    between atoms: C_2  and  C_3
REMARK    3  A    between atoms: N_5  and  C_6
REMARK    4  A    between atoms: N_5  and  C_12
REMARK    5  A    between atoms: C_6  and  C_7
REMARK    6  A    between atoms: C_7  and  C_8
REMARK    7  A    between atoms: C_8  and  C_9
REMARK    8  A    between atoms: C_9  and  O_11
REMARK    9  A    between atoms: C_12  and  C_13
REMARK   10  A    between atoms: C_23  and  C_25
REMARK   11  A    between atoms: C_25  and  C_26
REMARK                            x       y       z     vdW  Elec       q    Type
REMARK                         _______ _______ _______ _____ _____    ______ ____
ROOT
ATOM      1  C   UNL     1       3.808   3.280  17.422  0.00  0.00    +0.000 C 
ATOM      2  O   UNL     1       3.066   3.140  16.430  0.00  0.00    +0.000 OA
ATOM      3  N   UNL     1       4.988   4.038  17.234  0.00  0.00    +0.000 N 
ENDROOT
BRANCH   1   5
ATOM      4  C   UNL     1       4.479   2.683  19.943  0.00  0.00    +0.000 C 
ATOM      5  C   UNL     1       3.407   2.626  18.848  0.00  0.00    +0.000 C 
ATOM      6  C   UNL     1       2.646   1.272  18.864  0.00  0.00    +0.000 C 
ATOM      7  C   UNL     1       1.395   1.967  19.377  0.00  0.00    +0.000 C 
ATOM      8  N   UNL     1       2.159   3.194  19.407  0.00  0.00    +0.000 N 
ATOM      9  C   UNL     1       1.726   4.411  19.860  0.00  0.00    +0.000 C 
ATOM     10  O   UNL     1       0.587   4.532  20.324  0.00  0.00    +0.000 OA
BRANCH   9  11
ATOM     11  C   UNL     1       2.660   5.606  19.764  0.00  0.00    +0.000 C 
BRANCH  11  12
ATOM     12  C   UNL     1       2.013   6.891  20.166  0.00  0.00    +0.000 A 
ATOM     13  C   UNL     1       1.368   7.162  21.359  0.00  0.00    +0.000 A 
ATOM     14  O   UNL     1       0.889   8.430  21.381  0.00  0.00    +0.000 OA
ATOM     15  C   UNL     1       1.206   8.996  20.187  0.00  0.00    +0.000 A 
ATOM     16  C   UNL     1       0.891  10.298  19.803  0.00  0.00    +0.000 A 
ATOM     17  C   UNL     1       1.304  10.689  18.526  0.00  0.00    +0.000 A 
ATOM     18  C   UNL     1       1.981   9.803  17.685  0.00  0.00    +0.000 A 
ATOM     19  C   UNL     1       2.273   8.495  18.097  0.00  0.00    +0.000 A 
ATOM     20  C   UNL     1       1.888   8.086  19.389  0.00  0.00    +0.000 A 
ENDBRANCH  11  12
ENDBRANCH   9  11
ENDBRANCH   1   5
BRANCH   3  21
ATOM     21  C   UNL     1       5.212   4.748  15.949  0.00  0.00    +0.000 C 
BRANCH  21  22
ATOM     22  C   UNL     1       6.004   4.018  14.850  0.00  0.00    +0.000 C 
BRANCH  22  23
ATOM     23  C   UNL     1       5.361   3.898  13.473  0.00  0.00    +0.000 C 
BRANCH  23  24
ATOM     24  C   UNL     1       6.354   3.497  12.408  0.00  0.00    +0.000 C 
ATOM     25  O   UNL     1       7.196   4.258  11.954  0.00  0.00    +0.000 OA
BRANCH  24  26
ATOM     26  O   UNL     1       6.206   2.234  11.964  0.00  0.00    +0.000 OA
ATOM     27  H   UNL     1       6.571   1.559  12.587  0.00  0.00    +0.000 HD
ENDBRANCH  24  26
ENDBRANCH  23  24
ENDBRANCH  22  23
ENDBRANCH  21  22
ENDBRANCH   3  21
BRANCH   3  28
ATOM     28  C   UNL     1       5.899   4.390  18.325  0.00  0.00    +0.000 C 
BRANCH  28  29
ATOM     29  C   UNL     1       6.616   5.705  18.155  0.00  0.00    +0.000 A 
ATOM     30  C   UNL     1       7.842   5.989  18.772  0.00  0.00    +0.000 A 
ATOM     31  C   UNL     1       8.409   7.261  18.684  0.00  0.00    +0.000 A 
ATOM     32  C   UNL     1       7.771   8.250  17.945  0.00  0.00    +0.000 A 
ATOM     33 CL   UNL     1       8.432   9.836  17.896  0.00  0.00    +0.000 Cl
ATOM     34  C   UNL     1       6.586   7.970  17.269  0.00  0.00    +0.000 A 
ATOM     35  C   UNL     1       6.013   6.700  17.368  0.00  0.00    +0.000 A 
ENDBRANCH  28  29
ENDBRANCH   3  28
TORSDOF 10
ENDMDL
MODEL 8
REMARK VINA RESULT:      -7.7      3.742      7.041
REMARK  Name = 
REMARK  11 active torsions:
REMARK  status: ('A' for Active; 'I' for Inactive)
REMARK    1  A    between atoms: C_1  and  C_2
REMARK    2  A    between atoms: C_2  and  C_3
REMARK    3  A    between atoms: N_5  and  C_6
REMARK    4  A    between atoms: N_5  and  C_12
REMARK    5  A    between atoms: C_6  and  C_7
REMARK    6  A    between atoms: C_7  and  C_8
REMARK    7  A    between atoms: C_8  and  C_9
REMARK    8  A    between atoms: C_9  and  O_11
REMARK    9  A    between atoms: C_12  and  C_13
REMARK   10  A    between atoms: C_23  and  C_25
REMARK   11  A    between atoms: C_25  and  C_26
REMARK                            x       y       z     vdW  Elec       q    Type
REMARK                         _______ _______ _______ _____ _____    ______ ____
ROOT
ATOM      1  C   UNL     1       1.520   8.589  19.863  0.00  0.00    +0.000 C 
ATOM      2  O   UNL     1       1.377   8.741  21.091  0.00  0.00    +0.000 OA
ATOM      3  N   UNL     1       2.072   7.360  19.431  0.00  0.00    +0.000 N 
ENDROOT
BRANCH   1   5
ATOM      4  C   UNL     1      -0.319   9.614  18.209  0.00  0.00    +0.000 C 
ATOM      5  C   UNL     1       1.075   9.757  18.833  0.00  0.00    +0.000 C 
ATOM      6  C   UNL     1       2.110  10.281  17.801  0.00  0.00    +0.000 C 
ATOM      7  C   UNL     1       2.179  11.615  18.528  0.00  0.00    +0.000 C 
ATOM      8  N   UNL     1       1.166  11.110  19.428  0.00  0.00    +0.000 N 
ATOM      9  C   UNL     1       0.567  11.800  20.447  0.00  0.00    +0.000 C 
ATOM     10  O   UNL     1       0.859  12.983  20.653  0.00  0.00    +0.000 OA
BRANCH   9  11
ATOM     11  C   UNL     1      -0.445  11.082  21.326  0.00  0.00    +0.000 C 
BRANCH  11  12
ATOM     12  C   UNL     1      -1.453  12.002  21.933  0.00  0.00    +0.000 A 
ATOM     13  C   UNL     1      -1.438  12.527  23.213  0.00  0.00    +0.000 A 
ATOM     14  O   UNL     1      -2.517  13.318  23.431  0.00  0.00    +0.000 OA
ATOM     15  C   UNL     1      -3.259  13.303  22.293  0.00  0.00    +0.000 A 
ATOM     16  C   UNL     1      -4.456  13.989  22.101  0.00  0.00    +0.000 A 
ATOM     17  C   UNL     1      -5.070  13.838  20.854  0.00  0.00    +0.000 A 
ATOM     18  C   UNL     1      -4.507  13.024  19.869  0.00  0.00    +0.000 A 
ATOM     19  C   UNL     1      -3.307  12.337  20.097  0.00  0.00    +0.000 A 
ATOM     20  C   UNL     1      -2.657  12.492  21.337  0.00  0.00    +0.000 A 
ENDBRANCH  11  12
ENDBRANCH   9  11
ENDBRANCH   1   5
BRANCH   3  21
ATOM     21  C   UNL     1       2.303   6.269  20.413  0.00  0.00    +0.000 C 
BRANCH  21  22
ATOM     22  C   UNL     1       1.201   5.209  20.585  0.00  0.00    +0.000 C 
BRANCH  22  23
ATOM     23  C   UNL     1       1.493   3.796  20.094  0.00  0.00    +0.000 C 
BRANCH  23  24
ATOM     24  C   UNL     1       2.367   3.023  21.054  0.00  0.00    +0.000 C 
ATOM     25  O   UNL     1       2.046   2.782  22.209  0.00  0.00    +0.000 OA
BRANCH  24  26
ATOM     26  O   UNL     1       3.557   2.656  20.543  0.00  0.00    +0.000 OA
ATOM     27  H   UNL     1       3.751   1.694  20.664  0.00  0.00    +0.000 HD
ENDBRANCH  24  26
ENDBRANCH  23  24
ENDBRANCH  22  23
ENDBRANCH  21  22
ENDBRANCH   3  21
BRANCH   3  28
ATOM     28  C   UNL     1       2.193   6.984  18.020  0.00  0.00    +0.000 C 
BRANCH  28  29
ATOM     29  C   UNL     1       3.493   6.318  17.649  0.00  0.00    +0.000 A 
ATOM     30  C   UNL     1       3.615   4.932  17.474  0.00  0.00    +0.000 A 
ATOM     31  C   UNL     1       4.861   4.347  17.249  0.00  0.00    +0.000 A 
ATOM     32  C   UNL     1       5.992   5.149  17.162  0.00  0.00    +0.000 A 
ATOM     33 CL   UNL     1       7.537   4.423  16.958  0.00  0.00    +0.000 Cl
ATOM     34  C   UNL     1       5.885   6.534  17.267  0.00  0.00    +0.000 A 
ATOM     35  C   UNL     1       4.638   7.117  17.505  0.00  0.00    +0.000 A 
ENDBRANCH  28  29
ENDBRANCH   3  28
TORSDOF 10
ENDMDL
MODEL 9
REMARK VINA RESULT:      -7.7      3.172      7.202
REMARK  Name = 
REMARK  11 active torsions:
REMARK  status: ('A' for Active; 'I' for Inactive)
REMARK    1  A    between atoms: C_1  and  C_2
REMARK    2  A    between atoms: C_2  and  C_3
REMARK    3  A    between atoms: N_5  and  C_6
REMARK    4  A    between atoms: N_5  and  C_12
REMARK    5  A    between atoms: C_6  and  C_7
REMARK    6  A    between atoms: C_7  and  C_8
REMARK    7  A    between atoms: C_8  and  C_9
REMARK    8  A    between atoms: C_9  and  O_11
REMARK    9  A    between atoms: C_12  and  C_13
REMARK   10  A    between atoms: C_23  and  C_25
REMARK   11  A    between atoms: C_25  and  C_26
REMARK                            x       y       z     vdW  Elec       q    Type
REMARK                         _______ _______ _______ _____ _____    ______ ____
ROOT
ATOM      1  C   UNL     1       2.034   5.229  18.705  0.00  0.00    +0.000 C 
ATOM      2  O   UNL     1       2.080   5.257  17.460  0.00  0.00    +0.000 OA
ATOM      3  N   UNL     1       2.361   6.428  19.383  0.00  0.00    +0.000 N 
ENDROOT
BRANCH   1   5
ATOM      4  C   UNL     1       0.851   2.829  18.653  0.00  0.00    +0.000 C 
ATOM      5  C   UNL     1       1.606   3.875  19.482  0.00  0.00    +0.000 C 
ATOM      6  C   UNL     1       1.032   3.985  20.921  0.00  0.00    +0.000 C 
ATOM      7  C   UNL     1       2.287   3.338  21.485  0.00  0.00    +0.000 C 
ATOM      8  N   UNL     1       2.756   3.196  20.125  0.00  0.00    +0.000 N 
ATOM      9  C   UNL     1       3.911   2.583  19.722  0.00  0.00    +0.000 C 
ATOM     10  O   UNL     1       4.659   2.058  20.555  0.00  0.00    +0.000 OA
BRANCH   9  11
ATOM     11  C   UNL     1       4.265   2.578  18.244  0.00  0.00    +0.000 C 
BRANCH  11  12
ATOM     12  C   UNL     1       5.161   3.706  17.851  0.00  0.00    +0.000 A 
ATOM     13  C   UNL     1       5.633   4.719  18.665  0.00  0.00    +0.000 A 
ATOM     14  O   UNL     1       6.417   5.581  17.972  0.00  0.00    +0.000 OA
ATOM     15  C   UNL     1       6.451   5.143  16.687  0.00  0.00    +0.000 A 
ATOM     16  C   UNL     1       7.148   5.752  15.645  0.00  0.00    +0.000 A 
ATOM     17  C   UNL     1       7.050   5.146  14.389  0.00  0.00    +0.000 A 
ATOM     18  C   UNL     1       6.275   3.999  14.202  0.00  0.00    +0.000 A 
ATOM     19  C   UNL     1       5.577   3.416  15.269  0.00  0.00    +0.000 A 
ATOM     20  C   UNL     1       5.679   3.996  16.549  0.00  0.00    +0.000 A 
ENDBRANCH  11  12
ENDBRANCH   9  11
ENDBRANCH   1   5
BRANCH   3  21
ATOM     21  C   UNL     1       2.582   7.676  18.609  0.00  0.00    +0.000 C 
BRANCH  21  22
ATOM     22  C   UNL     1       1.354   8.367  17.990  0.00  0.00    +0.000 C 
BRANCH  22  23
ATOM     23  C   UNL     1       1.226   9.876  18.166  0.00  0.00    +0.000 C 
BRANCH  23  24
ATOM     24  C   UNL     1      -0.214  10.323  18.263  0.00  0.00    +0.000 C 
ATOM     25  O   UNL     1      -0.651  10.984  19.194  0.00  0.00    +0.000 OA
BRANCH  24  26
ATOM     26  O   UNL     1      -0.993   9.895  17.252  0.00  0.00    +0.000 OA
ATOM     27  H   UNL     1      -1.897  10.295  17.262  0.00  0.00    +0.000 HD
ENDBRANCH  24  26
ENDBRANCH  23  24
ENDBRANCH  22  23
ENDBRANCH  21  22
ENDBRANCH   3  21
BRANCH   3  28
ATOM     28  C   UNL     1       2.241   6.589  20.834  0.00  0.00    +0.000 C 
BRANCH  28  29
ATOM     29  C   UNL     1       1.382   7.747  21.275  0.00  0.00    +0.000 A 
ATOM     30  C   UNL     1       1.916   8.947  21.763  0.00  0.00    +0.000 A 
ATOM     31  C   UNL     1       1.083   9.944  22.272  0.00  0.00    +0.000 A 
ATOM     32  C   UNL     1      -0.294   9.762  22.264  0.00  0.00    +0.000 A 
ATOM     33 CL   UNL     1      -1.315  10.959  22.958  0.00  0.00    +0.000 Cl
ATOM     34  C   UNL     1      -0.849   8.605  21.723  0.00  0.00    +0.000 A 
ATOM     35  C   UNL     1      -0.014   7.602  21.225  0.00  0.00    +0.000 A 
ENDBRANCH  28  29
ENDBRANCH   3  28
TORSDOF 10
ENDMDL
