MODEL 1
REMARK VINA RESULT:      -8.2      0.000      0.000
REMARK  Name = 
REMARK  7 active torsions:
REMARK  status: ('A' for Active; 'I' for Inactive)
REMARK    1  A    between atoms: C_1  and  O_2
REMARK    2  A    between atoms: O_2  and  C_3
REMARK    3  A    between atoms: C_6  and  C_7
REMARK    4  A    between atoms: C_11  and  C_12
REMARK    5  A    between atoms: N_17  and  C_18
REMARK    6  A    between atoms: C_18  and  C_19
REMARK    7  A    between atoms: C_18  and  C_20
REMARK                            x       y       z     vdW  Elec       q    Type
REMARK                         _______ _______ _______ _____ _____    ______ ____
ROOT
ATOM      1  C   UNL     1       1.613   8.225  20.023  0.00  0.00    +0.000 A 
ATOM      2  N   UNL     1       2.229   8.638  18.868  0.00  0.00    +0.000 NA
ATOM      3  C   UNL     1       2.882   7.575  18.452  0.00  0.00    +0.000 A 
ATOM      4  N   UNL     1       3.690   7.429  17.352  0.00  0.00    +0.000 NA
ATOM      5  C   UNL     1       4.251   6.265  17.178  0.00  0.00    +0.000 A 
ATOM      6  C   UNL     1       5.153   6.071  15.987  0.00  0.00    +0.000 C 
ATOM      7  C   UNL     1       4.058   5.110  18.081  0.00  0.00    +0.000 A 
ATOM      8  C   UNL     1       3.257   5.286  19.138  0.00  0.00    +0.000 A 
ATOM      9  N   UNL     1       2.647   6.523  19.350  0.00  0.00    +0.000 N 
ATOM     10  N   UNL     1       1.828   6.943  20.340  0.00  0.00    +0.000 NA
ATOM     11  N   UNL     1       3.174   4.120  19.901  0.00  0.00    +0.000 N 
ATOM     12  C   UNL     1       4.077   3.099  19.338  0.00  0.00    +0.000 C 
ATOM     13  C   UNL     1       4.577   3.718  18.005  0.00  0.00    +0.000 C 
ENDROOT
BRANCH   1  17
ATOM     14  C   UNL     1      -0.778  10.843  22.420  0.00  0.00    +0.000 A 
ATOM     15  C   UNL     1      -0.155   9.731  22.993  0.00  0.00    +0.000 A 
ATOM     16  C   UNL     1       0.633   8.875  22.217  0.00  0.00    +0.000 A 
ATOM     17  C   UNL     1       0.798   9.115  20.846  0.00  0.00    +0.000 A 
ATOM     18  C   UNL     1       0.153  10.223  20.276  0.00  0.00    +0.000 A 
ATOM     19  C   UNL     1      -0.631  11.081  21.055  0.00  0.00    +0.000 A 
BRANCH  14  21
ATOM     20  C   UNL     1      -1.457  13.007  23.087  0.00  0.00    +0.000 C 
ATOM     21  O   UNL     1      -1.529  11.598  23.278  0.00  0.00    +0.000 OA
ENDBRANCH  14  21
ENDBRANCH   1  17
BRANCH  11  22
ATOM     22  C   UNL     1       2.080   3.758  20.807  0.00  0.00    +0.000 C 
ATOM     23  C   UNL     1       0.819   3.417  20.016  0.00  0.00    +0.000 C 
ATOM     24  C   UNL     1       2.483   2.608  21.728  0.00  0.00    +0.000 C 
ENDBRANCH  11  22
TORSDOF 3
ENDMDL
MODEL 2
REMARK VINA RESULT:      -8.1      0.210      1.006
REMARK  Name = 
REMARK  7 active torsions:
REMARK  status: ('A' for Active; 'I' for Inactive)
REMARK    1  A    between atoms: C_1  and  O_2
REMARK    2  A    between atoms: O_2  and  C_3
REMARK    3  A    between atoms: C_6  and  C_7
REMARK    4  A    between atoms: C_11  and  C_12
REMARK    5  A    between atoms: N_17  and  C_18
REMARK    6  A    between atoms: C_18  and  C_19
REMARK    7  A    between atoms: C_18  and  C_20
REMARK                            x       y       z     vdW  Elec       q    Type
REMARK                         _______ _______ _______ _____ _____    ______ ____
ROOT
ATOM      1  C   UNL     1       1.526   8.298  20.080  0.00  0.00    +0.000 A 
ATOM      2  N   UNL     1       2.136   8.733  18.929  0.00  0.00    +0.000 NA
ATOM      3  C   UNL     1       2.801   7.682  18.499  0.00  0.00    +0.000 A 
ATOM      4  N   UNL     1       3.609   7.559  17.396  0.00  0.00    +0.000 NA
ATOM      5  C   UNL     1       4.183   6.404  17.208  0.00  0.00    +0.000 A 
ATOM      6  C   UNL     1       5.086   6.234  16.014  0.00  0.00    +0.000 C 
ATOM      7  C   UNL     1       4.004   5.235  18.096  0.00  0.00    +0.000 A 
ATOM      8  C   UNL     1       3.203   5.389  19.156  0.00  0.00    +0.000 A 
ATOM      9  N   UNL     1       2.579   6.616  19.384  0.00  0.00    +0.000 N 
ATOM     10  N   UNL     1       1.756   7.015  20.380  0.00  0.00    +0.000 NA
ATOM     11  N   UNL     1       3.134   4.213  19.905  0.00  0.00    +0.000 N 
ATOM     12  C   UNL     1       4.048   3.210  19.328  0.00  0.00    +0.000 C 
ATOM     13  C   UNL     1       4.539   3.850  18.003  0.00  0.00    +0.000 C 
ENDROOT
BRANCH   1  17
ATOM     14  C   UNL     1      -0.884  10.842  22.536  0.00  0.00    +0.000 A 
ATOM     15  C   UNL     1      -0.735  11.110  21.173  0.00  0.00    +0.000 A 
ATOM     16  C   UNL     1       0.047  10.279  20.363  0.00  0.00    +0.000 A 
ATOM     17  C   UNL     1       0.702   9.169  20.914  0.00  0.00    +0.000 A 
ATOM     18  C   UNL     1       0.562   8.920  22.287  0.00  0.00    +0.000 A 
ATOM     19  C   UNL     1      -0.223   9.749  23.095  0.00  0.00    +0.000 A 
BRANCH  14  21
ATOM     20  C   UNL     1      -2.019  12.916  22.521  0.00  0.00    +0.000 C 
ATOM     21  O   UNL     1      -1.664  11.730  23.224  0.00  0.00    +0.000 OA
ENDBRANCH  14  21
ENDBRANCH   1  17
BRANCH  11  22
ATOM     22  C   UNL     1       2.045   3.827  20.808  0.00  0.00    +0.000 C 
ATOM     23  C   UNL     1       0.800   3.442  20.011  0.00  0.00    +0.000 C 
ATOM     24  C   UNL     1       2.475   2.698  21.741  0.00  0.00    +0.000 C 
ENDBRANCH  11  22
TORSDOF 3
ENDMDL
MODEL 3
REMARK VINA RESULT:      -7.8      1.017      1.138
REMARK  Name = 
REMARK  7 active torsions:
REMARK  status: ('A' for Active; 'I' for Inactive)
REMARK    1  A    between atoms: C_1  and  O_2
REMARK    2  A    between atoms: O_2  and  C_3
REMARK    3  A    between atoms: C_6  and  C_7
REMARK    4  A    between atoms: C_11  and  C_12
REMARK    5  A    between atoms: N_17  and  C_18
REMARK    6  A    between atoms: C_18  and  C_19
REMARK    7  A    between atoms: C_18  and  C_20
REMARK                            x       y       z     vdW  Elec       q    Type
REMARK                         _______ _______ _______ _____ _____    ______ ____
ROOT
ATOM      1  C   UNL     1       2.134   7.800  19.254  0.00  0.00    +0.000 A 
ATOM      2  N   UNL     1       2.939   8.074  18.175  0.00  0.00    +0.000 NA
ATOM      3  C   UNL     1       3.424   6.901  17.828  0.00  0.00    +0.000 A 
ATOM      4  N   UNL     1       4.306   6.590  16.824  0.00  0.00    +0.000 NA
ATOM      5  C   UNL     1       4.655   5.339  16.707  0.00  0.00    +0.000 A 
ATOM      6  C   UNL     1       5.630   4.962  15.622  0.00  0.00    +0.000 C 
ATOM      7  C   UNL     1       4.152   4.254  17.576  0.00  0.00    +0.000 A 
ATOM      8  C   UNL     1       3.287   4.592  18.539  0.00  0.00    +0.000 A 
ATOM      9  N   UNL     1       2.899   5.925  18.689  0.00  0.00    +0.000 N 
ATOM     10  N   UNL     1       2.070   6.506  19.585  0.00  0.00    +0.000 NA
ATOM     11  N   UNL     1       2.905   3.474  19.282  0.00  0.00    +0.000 N 
ATOM     12  C   UNL     1       3.657   2.295  18.817  0.00  0.00    +0.000 C 
ATOM     13  C   UNL     1       4.407   2.789  17.551  0.00  0.00    +0.000 C 
ENDROOT
BRANCH   1  17
ATOM     14  C   UNL     1       0.026  10.854  21.385  0.00  0.00    +0.000 A 
ATOM     15  C   UNL     1       0.394   9.668  22.027  0.00  0.00    +0.000 A 
ATOM     16  C   UNL     1       1.089   8.669  21.338  0.00  0.00    +0.000 A 
ATOM     17  C   UNL     1       1.415   8.839  19.985  0.00  0.00    +0.000 A 
ATOM     18  C   UNL     1       1.024  10.024  19.344  0.00  0.00    +0.000 A 
ATOM     19  C   UNL     1       0.333  11.025  20.036  0.00  0.00    +0.000 A 
BRANCH  14  21
ATOM     20  C   UNL     1      -1.495  11.189  23.164  0.00  0.00    +0.000 C 
ATOM     21  O   UNL     1      -0.657  11.750  22.160  0.00  0.00    +0.000 OA
ENDBRANCH  14  21
ENDBRANCH   1  17
BRANCH  11  22
ATOM     22  C   UNL     1       1.670   3.337  20.060  0.00  0.00    +0.000 C 
ATOM     23  C   UNL     1       0.631   2.535  19.279  0.00  0.00    +0.000 C 
ATOM     24  C   UNL     1       1.944   2.706  21.424  0.00  0.00    +0.000 C 
ENDBRANCH  11  22
TORSDOF 3
ENDMDL
MODEL 4
REMARK VINA RESULT:      -7.8      0.918      1.378
REMARK  Name = 
REMARK  7 active torsions:
REMARK  status: ('A' for Active; 'I' for Inactive)
REMARK    1  A    between atoms: C_1  and  O_2
REMARK    2  A    between atoms: O_2  and  C_3
REMARK    3  A    between atoms: C_6  and  C_7
REMARK    4  A    between atoms: C_11  and  C_12
REMARK    5  A    between atoms: N_17  and  C_18
REMARK    6  A    between atoms: C_18  and  C_19
REMARK    7  A    between atoms: C_18  and  C_20
REMARK                            x       y       z     vdW  Elec       q    Type
REMARK                         _______ _______ _______ _____ _____    ______ ____
ROOT
ATOM      1  C   UNL     1       2.002   7.934  19.333  0.00  0.00    +0.000 A 
ATOM      2  N   UNL     1       2.812   8.261  18.273  0.00  0.00    +0.000 NA
ATOM      3  C   UNL     1       3.328   7.111  17.897  0.00  0.00    +0.000 A 
ATOM      4  N   UNL     1       4.229   6.853  16.893  0.00  0.00    +0.000 NA
ATOM      5  C   UNL     1       4.610   5.615  16.743  0.00  0.00    +0.000 A 
ATOM      6  C   UNL     1       5.606   5.295  15.658  0.00  0.00    +0.000 C 
ATOM      7  C   UNL     1       4.124   4.492  17.573  0.00  0.00    +0.000 A 
ATOM      8  C   UNL     1       3.241   4.779  18.535  0.00  0.00    +0.000 A 
ATOM      9  N   UNL     1       2.819   6.097  18.721  0.00  0.00    +0.000 N 
ATOM     10  N   UNL     1       1.965   6.630  19.624  0.00  0.00    +0.000 NA
ATOM     11  N   UNL     1       2.878   3.630  19.239  0.00  0.00    +0.000 N 
ATOM     12  C   UNL     1       3.664   2.484  18.747  0.00  0.00    +0.000 C 
ATOM     13  C   UNL     1       4.415   3.035  17.506  0.00  0.00    +0.000 C 
ENDROOT
BRANCH   1  17
ATOM     14  C   UNL     1      -0.200  10.852  21.558  0.00  0.00    +0.000 A 
ATOM     15  C   UNL     1       0.078  11.058  20.204  0.00  0.00    +0.000 A 
ATOM     16  C   UNL     1       0.792  10.105  19.470  0.00  0.00    +0.000 A 
ATOM     17  C   UNL     1       1.250   8.933  20.088  0.00  0.00    +0.000 A 
ATOM     18  C   UNL     1       0.982   8.745  21.452  0.00  0.00    +0.000 A 
ATOM     19  C   UNL     1       0.263   9.697  22.184  0.00  0.00    +0.000 A 
BRANCH  14  21
ATOM     20  C   UNL     1      -1.763  11.459  23.225  0.00  0.00    +0.000 C 
ATOM     21  O   UNL     1      -0.897  11.858  22.169  0.00  0.00    +0.000 OA
ENDBRANCH  14  21
ENDBRANCH   1  17
BRANCH  11  22
ATOM     22  C   UNL     1       1.638   3.439  19.998  0.00  0.00    +0.000 C 
ATOM     23  C   UNL     1       0.685   2.514  19.243  0.00  0.00    +0.000 C 
ATOM     24  C   UNL     1       1.926   2.910  21.402  0.00  0.00    +0.000 C 
ENDBRANCH  11  22
TORSDOF 3
ENDMDL
MODEL 5
REMARK VINA RESULT:      -7.3      1.247      1.724
REMARK  Name = 
REMARK  7 active torsions:
REMARK  status: ('A' for Active; 'I' for Inactive)
REMARK    1  A    between atoms: C_1  and  O_2
REMARK    2  A    between atoms: O_2  and  C_3
REMARK    3  A    between atoms: C_6  and  C_7
REMARK    4  A    between atoms: C_11  and  C_12
REMARK    5  A    between atoms: N_17  and  C_18
REMARK    6  A    between atoms: C_18  and  C_19
REMARK    7  A    between atoms: C_18  and  C_20
REMARK                            x       y       z     vdW  Elec       q    Type
REMARK                         _______ _______ _______ _____ _____    ______ ____
ROOT
ATOM      1  C   UNL     1       1.767   8.522  18.772  0.00  0.00    +0.000 A 
ATOM      2  N   UNL     1       2.618   8.707  17.709  0.00  0.00    +0.000 NA
ATOM      3  C   UNL     1       3.334   7.604  17.674  0.00  0.00    +0.000 A 
ATOM      4  N   UNL     1       4.355   7.261  16.824  0.00  0.00    +0.000 NA
ATOM      5  C   UNL     1       4.929   6.107  17.022  0.00  0.00    +0.000 A 
ATOM      6  C   UNL     1       6.061   5.701  16.114  0.00  0.00    +0.000 C 
ATOM      7  C   UNL     1       4.538   5.160  18.087  0.00  0.00    +0.000 A 
ATOM      8  C   UNL     1       3.533   5.524  18.892  0.00  0.00    +0.000 A 
ATOM      9  N   UNL     1       2.904   6.755  18.705  0.00  0.00    +0.000 N 
ATOM     10  N   UNL     1       1.897   7.344  19.390  0.00  0.00    +0.000 NA
ATOM     11  N   UNL     1       3.279   4.540  19.849  0.00  0.00    +0.000 N 
ATOM     12  C   UNL     1       4.271   3.458  19.717  0.00  0.00    +0.000 C 
ATOM     13  C   UNL     1       5.048   3.802  18.418  0.00  0.00    +0.000 C 
ENDROOT
BRANCH   1  17
ATOM     14  C   UNL     1      -1.045  11.490  20.034  0.00  0.00    +0.000 A 
ATOM     15  C   UNL     1      -1.025  11.055  18.706  0.00  0.00    +0.000 A 
ATOM     16  C   UNL     1      -0.112  10.081  18.289  0.00  0.00    +0.000 A 
ATOM     17  C   UNL     1       0.805   9.535  19.198  0.00  0.00    +0.000 A 
ATOM     18  C   UNL     1       0.789   9.993  20.524  0.00  0.00    +0.000 A 
ATOM     19  C   UNL     1      -0.127  10.964  20.941  0.00  0.00    +0.000 A 
BRANCH  14  21
ATOM     20  C   UNL     1      -1.690  13.276  21.444  0.00  0.00    +0.000 C 
ATOM     21  O   UNL     1      -1.976  12.452  20.319  0.00  0.00    +0.000 OA
ENDBRANCH  14  21
ENDBRANCH   1  17
BRANCH  11  22
ATOM     22  C   UNL     1       2.015   4.337  20.563  0.00  0.00    +0.000 C 
ATOM     23  C   UNL     1       0.954   3.770  19.621  0.00  0.00    +0.000 C 
ATOM     24  C   UNL     1       2.207   3.440  21.783  0.00  0.00    +0.000 C 
ENDBRANCH  11  22
TORSDOF 3
ENDMDL
MODEL 6
REMARK VINA RESULT:      -7.1      1.248      1.710
REMARK  Name = 
REMARK  7 active torsions:
REMARK  status: ('A' for Active; 'I' for Inactive)
REMARK    1  A    between atoms: C_1  and  O_2
REMARK    2  A    between atoms: O_2  and  C_3
REMARK    3  A    between atoms: C_6  and  C_7
REMARK    4  A    between atoms: C_11  and  C_12
REMARK    5  A    between atoms: N_17  and  C_18
REMARK    6  A    between atoms: C_18  and  C_19
REMARK    7  A    between atoms: C_18  and  C_20
REMARK                            x       y       z     vdW  Elec       q    Type
REMARK                         _______ _______ _______ _____ _____    ______ ____
ROOT
ATOM      1  C   UNL     1       2.319   7.170  19.336  0.00  0.00    +0.000 A 
ATOM      2  N   UNL     1       3.046   7.381  18.190  0.00  0.00    +0.000 NA
ATOM      3  C   UNL     1       3.468   6.183  17.850  0.00  0.00    +0.000 A 
ATOM      4  N   UNL     1       4.260   5.810  16.793  0.00  0.00    +0.000 NA
ATOM      5  C   UNL     1       4.563   4.545  16.696  0.00  0.00    +0.000 A 
ATOM      6  C   UNL     1       5.439   4.100  15.554  0.00  0.00    +0.000 C 
ATOM      7  C   UNL     1       4.098   3.507  17.640  0.00  0.00    +0.000 A 
ATOM      8  C   UNL     1       3.320   3.905  18.653  0.00  0.00    +0.000 A 
ATOM      9  N   UNL     1       2.984   5.253  18.783  0.00  0.00    +0.000 N 
ATOM     10  N   UNL     1       2.243   5.891  19.718  0.00  0.00    +0.000 NA
ATOM     11  N   UNL     1       2.964   2.826  19.464  0.00  0.00    +0.000 N 
ATOM     12  C   UNL     1       3.644   1.608  18.986  0.00  0.00    +0.000 C 
ATOM     13  C   UNL     1       4.308   2.035  17.649  0.00  0.00    +0.000 C 
ENDROOT
BRANCH   1  17
ATOM     14  C   UNL     1       0.472  10.360  21.509  0.00  0.00    +0.000 A 
ATOM     15  C   UNL     1       0.827   9.175  22.158  0.00  0.00    +0.000 A 
ATOM     16  C   UNL     1       1.437   8.131  21.455  0.00  0.00    +0.000 A 
ATOM     17  C   UNL     1       1.689   8.256  20.082  0.00  0.00    +0.000 A 
ATOM     18  C   UNL     1       1.311   9.442  19.435  0.00  0.00    +0.000 A 
ATOM     19  C   UNL     1       0.705  10.487  20.141  0.00  0.00    +0.000 A 
BRANCH  14  21
ATOM     20  C   UNL     1      -1.194  10.839  23.117  0.00  0.00    +0.000 C 
ATOM     21  O   UNL     1      -0.125  11.303  22.300  0.00  0.00    +0.000 OA
ENDBRANCH  14  21
ENDBRANCH   1  17
BRANCH  11  22
ATOM     22  C   UNL     1       1.790   2.754  20.339  0.00  0.00    +0.000 C 
ATOM     23  C   UNL     1       2.042   3.519  21.637  0.00  0.00    +0.000 C 
ATOM     24  C   UNL     1       0.540   3.269  19.629  0.00  0.00    +0.000 C 
ENDBRANCH  11  22
TORSDOF 3
ENDMDL
MODEL 7
REMARK VINA RESULT:      -7.0      1.709      3.700
REMARK  Name = 
REMARK  7 active torsions:
REMARK  status: ('A' for Active; 'I' for Inactive)
REMARK    1  A    between atoms: C_1  and  O_2
REMARK    2  A    between atoms: O_2  and  C_3
REMARK    3  A    between atoms: C_6  and  C_7
REMARK    4  A    between atoms: C_11  and  C_12
REMARK    5  A    between atoms: N_17  and  C_18
REMARK    6  A    between atoms: C_18  and  C_19
REMARK    7  A    between atoms: C_18  and  C_20
REMARK                            x       y       z     vdW  Elec       q    Type
REMARK                         _______ _______ _______ _____ _____    ______ ____
ROOT
ATOM      1  C   UNL     1       1.769   7.996  19.822  0.00  0.00    +0.000 A 
ATOM      2  N   UNL     1       1.414   7.110  20.810  0.00  0.00    +0.000 NA
ATOM      3  C   UNL     1       1.976   5.978  20.445  0.00  0.00    +0.000 A 
ATOM      4  N   UNL     1       1.928   4.750  21.056  0.00  0.00    +0.000 NA
ATOM      5  C   UNL     1       2.554   3.770  20.467  0.00  0.00    +0.000 A 
ATOM      6  C   UNL     1       2.516   2.405  21.103  0.00  0.00    +0.000 C 
ATOM      7  C   UNL     1       3.310   3.910  19.203  0.00  0.00    +0.000 A 
ATOM      8  C   UNL     1       3.342   5.123  18.640  0.00  0.00    +0.000 A 
ATOM      9  N   UNL     1       2.677   6.189  19.248  0.00  0.00    +0.000 N 
ATOM     10  N   UNL     1       2.549   7.480  18.866  0.00  0.00    +0.000 NA
ATOM     11  N   UNL     1       4.080   5.104  17.456  0.00  0.00    +0.000 N 
ATOM     12  C   UNL     1       4.507   3.724  17.165  0.00  0.00    +0.000 C 
ATOM     13  C   UNL     1       4.108   2.921  18.432  0.00  0.00    +0.000 C 
ENDROOT
BRANCH   1  17
ATOM     14  C   UNL     1       0.460  12.070  19.775  0.00  0.00    +0.000 A 
ATOM     15  C   UNL     1       0.340  11.302  20.937  0.00  0.00    +0.000 A 
ATOM     16  C   UNL     1       0.772   9.972  20.960  0.00  0.00    +0.000 A 
ATOM     17  C   UNL     1       1.321   9.386  19.811  0.00  0.00    +0.000 A 
ATOM     18  C   UNL     1       1.419  10.159  18.645  0.00  0.00    +0.000 A 
ATOM     19  C   UNL     1       0.991  11.491  18.624  0.00  0.00    +0.000 A 
BRANCH  14  21
ATOM     20  C   UNL     1      -0.276  14.009  18.639  0.00  0.00    +0.000 C 
ATOM     21  O   UNL     1      -0.005  13.353  19.873  0.00  0.00    +0.000 OA
ENDBRANCH  14  21
ENDBRANCH   1  17
BRANCH  11  22
ATOM     22  C   UNL     1       4.737   6.257  16.831  0.00  0.00    +0.000 C 
ATOM     23  C   UNL     1       5.916   6.727  17.680  0.00  0.00    +0.000 C 
ATOM     24  C   UNL     1       5.177   5.935  15.404  0.00  0.00    +0.000 C 
ENDBRANCH  11  22
TORSDOF 3
ENDMDL
MODEL 8
REMARK VINA RESULT:      -7.0      1.806      3.849
REMARK  Name = 
REMARK  7 active torsions:
REMARK  status: ('A' for Active; 'I' for Inactive)
REMARK    1  A    between atoms: C_1  and  O_2
REMARK    2  A    between atoms: O_2  and  C_3
REMARK    3  A    between atoms: C_6  and  C_7
REMARK    4  A    between atoms: C_11  and  C_12
REMARK    5  A    between atoms: N_17  and  C_18
REMARK    6  A    between atoms: C_18  and  C_19
REMARK    7  A    between atoms: C_18  and  C_20
REMARK                            x       y       z     vdW  Elec       q    Type
REMARK                         _______ _______ _______ _____ _____    ______ ____
ROOT
ATOM      1  C   UNL     1       1.753   8.074  19.727  0.00  0.00    +0.000 A 
ATOM      2  N   UNL     1       1.415   7.218  20.747  0.00  0.00    +0.000 NA
ATOM      3  C   UNL     1       1.997   6.084  20.421  0.00  0.00    +0.000 A 
ATOM      4  N   UNL     1       1.971   4.877  21.076  0.00  0.00    +0.000 NA
ATOM      5  C   UNL     1       2.614   3.888  20.521  0.00  0.00    +0.000 A 
ATOM      6  C   UNL     1       2.600   2.546  21.205  0.00  0.00    +0.000 C 
ATOM      7  C   UNL     1       3.365   3.996  19.252  0.00  0.00    +0.000 A 
ATOM      8  C   UNL     1       3.375   5.189  18.646  0.00  0.00    +0.000 A 
ATOM      9  N   UNL     1       2.693   6.264  19.216  0.00  0.00    +0.000 N 
ATOM     10  N   UNL     1       2.541   7.538  18.789  0.00  0.00    +0.000 NA
ATOM     11  N   UNL     1       4.113   5.141  17.462  0.00  0.00    +0.000 N 
ATOM     12  C   UNL     1       4.563   3.759  17.219  0.00  0.00    +0.000 C 
ATOM     13  C   UNL     1       4.181   2.994  18.514  0.00  0.00    +0.000 C 
ENDROOT
BRANCH   1  17
ATOM     14  C   UNL     1       0.364  12.119  19.568  0.00  0.00    +0.000 A 
ATOM     15  C   UNL     1       1.048  11.562  18.483  0.00  0.00    +0.000 A 
ATOM     16  C   UNL     1       1.499  10.239  18.527  0.00  0.00    +0.000 A 
ATOM     17  C   UNL     1       1.281   9.455  19.668  0.00  0.00    +0.000 A 
ATOM     18  C   UNL     1       0.611  10.029  20.759  0.00  0.00    +0.000 A 
ATOM     19  C   UNL     1       0.157  11.351  20.712  0.00  0.00    +0.000 A 
BRANCH  14  21
ATOM     20  C   UNL     1       0.976  14.301  18.895  0.00  0.00    +0.000 C 
ATOM     21  O   UNL     1      -0.018  13.423  19.411  0.00  0.00    +0.000 OA
ENDBRANCH  14  21
ENDBRANCH   1  17
BRANCH  11  22
ATOM     22  C   UNL     1       4.748   6.282  16.795  0.00  0.00    +0.000 C 
ATOM     23  C   UNL     1       5.919   6.805  17.626  0.00  0.00    +0.000 C 
ATOM     24  C   UNL     1       5.194   5.917  15.381  0.00  0.00    +0.000 C 
ENDBRANCH  11  22
TORSDOF 3
ENDMDL
