MODEL 1
REMARK VINA RESULT:      -6.5      0.000      0.000
REMARK  Name = 
REMARK  7 active torsions:
REMARK  status: ('A' for Active; 'I' for Inactive)
REMARK    1  A    between atoms: C_1  and  O_2
REMARK    2  A    between atoms: O_2  and  C_3
REMARK    3  A    between atoms: C_4  and  C_5
REMARK    4  A    between atoms: C_15  and  C_16
REMARK    5  A    between atoms: C_19  and  C_20
REMARK    6  A    between atoms: C_21  and  C_22
REMARK    7  A    between atoms: N_24  and  C_25
REMARK                            x       y       z     vdW  Elec       q    Type
REMARK                         _______ _______ _______ _____ _____    ______ ____
ROOT
ATOM      1  C   UNL     1       0.144  11.592  19.677  0.00  0.00    +0.000 C 
ATOM      2  O   UNL     1      -0.295  11.964  18.589  0.00  0.00    +0.000 OA
ATOM      3  N   UNL     1       0.699  10.312  19.808  0.00  0.00    +0.000 N 
ATOM      4  C   UNL     1       0.824   9.520  18.565  0.00  0.00    +0.000 C 
ATOM      5  C   UNL     1       2.003   8.527  18.604  0.00  0.00    +0.000 C 
ATOM      6  N   UNL     1       1.868   7.732  19.823  0.00  0.00    +0.000 N 
ATOM      7  C   UNL     1       2.287   6.415  19.818  0.00  0.00    +0.000 A 
ATOM      8  C   UNL     1       1.697   5.519  20.707  0.00  0.00    +0.000 A 
ATOM      9  C   UNL     1       2.009   4.167  20.644  0.00  0.00    +0.000 A 
ATOM     10  C   UNL     1       2.928   3.735  19.704  0.00  0.00    +0.000 A 
ATOM     11  C   UNL     1       3.496   4.673  18.853  0.00  0.00    +0.000 A 
ATOM     12  C   UNL     1       4.531   4.260  17.851  0.00  0.00    +0.000 C 
ATOM     13  N   UNL     1       3.174   5.994  18.893  0.00  0.00    +0.000 NA
ATOM     14  C   UNL     1       1.928   8.515  21.059  0.00  0.00    +0.000 C 
ATOM     15  C   UNL     1       0.743   9.520  21.070  0.00  0.00    +0.000 C 
ATOM     16  C   UNL     1      -0.571   8.768  21.313  0.00  0.00    +0.000 C 
ENDROOT
BRANCH   1  18
ATOM     17  C   UNL     1      -0.889  12.784  21.700  0.00  0.00    +0.000 A 
ATOM     18  C   UNL     1       0.159  12.508  20.815  0.00  0.00    +0.000 A 
ATOM     19  C   UNL     1       1.165  13.470  21.167  0.00  0.00    +0.000 A 
ATOM     20  C   UNL     1       2.455  13.797  20.504  0.00  0.00    +0.000 C 
ATOM     21  N   UNL     1       0.829  14.186  22.243  0.00  0.00    +0.000 NA
ATOM     22  N   UNL     1      -0.422  13.791  22.510  0.00  0.00    +0.000 N 
ATOM     23  C   UNL     1      -1.163  14.442  23.566  0.00  0.00    +0.000 C 
BRANCH  17  25
ATOM     24  C   UNL     1      -3.161  12.745  21.005  0.00  0.00    +0.000 C 
ATOM     25  O   UNL     1      -2.145  12.371  21.918  0.00  0.00    +0.000 OA
ENDBRANCH  17  25
ENDBRANCH   1  18
TORSDOF 2
ENDMDL
MODEL 2
REMARK VINA RESULT:      -6.0      1.305      1.426
REMARK  Name = 
REMARK  7 active torsions:
REMARK  status: ('A' for Active; 'I' for Inactive)
REMARK    1  A    between atoms: C_1  and  O_2
REMARK    2  A    between atoms: O_2  and  C_3
REMARK    3  A    between atoms: C_4  and  C_5
REMARK    4  A    between atoms: C_15  and  C_16
REMARK    5  A    between atoms: C_19  and  C_20
REMARK    6  A    between atoms: C_21  and  C_22
REMARK    7  A    between atoms: N_24  and  C_25
REMARK                            x       y       z     vdW  Elec       q    Type
REMARK                         _______ _______ _______ _____ _____    ______ ____
ROOT
ATOM      1  C   UNL     1      -0.782  12.437  20.540  0.00  0.00    +0.000 C 
ATOM      2  O   UNL     1      -1.514  12.765  19.606  0.00  0.00    +0.000 OA
ATOM      3  N   UNL     1      -0.075  11.229  20.484  0.00  0.00    +0.000 N 
ATOM      4  C   UNL     1      -0.176  10.467  19.220  0.00  0.00    +0.000 C 
ATOM      5  C   UNL     1       1.077   9.615  18.932  0.00  0.00    +0.000 C 
ATOM      6  N   UNL     1       1.336   8.799  20.116  0.00  0.00    +0.000 N 
ATOM      7  C   UNL     1       1.881   7.540  19.961  0.00  0.00    +0.000 A 
ATOM      8  C   UNL     1       1.631   6.574  20.934  0.00  0.00    +0.000 A 
ATOM      9  C   UNL     1       2.064   5.267  20.746  0.00  0.00    +0.000 A 
ATOM     10  C   UNL     1       2.763   4.951  19.595  0.00  0.00    +0.000 A 
ATOM     11  C   UNL     1       2.996   5.956  18.665  0.00  0.00    +0.000 A 
ATOM     12  C   UNL     1       3.789   5.673  17.426  0.00  0.00    +0.000 C 
ATOM     13  N   UNL     1       2.552   7.231  18.832  0.00  0.00    +0.000 NA
ATOM     14  C   UNL     1       1.614   9.574  21.328  0.00  0.00    +0.000 C 
ATOM     15  C   UNL     1       0.366  10.435  21.666  0.00  0.00    +0.000 C 
ATOM     16  C   UNL     1      -0.756   9.536  22.196  0.00  0.00    +0.000 C 
ENDROOT
BRANCH   1  18
ATOM     17  C   UNL     1      -1.518  13.688  22.655  0.00  0.00    +0.000 A 
ATOM     18  C   UNL     1      -0.585  13.339  21.672  0.00  0.00    +0.000 A 
ATOM     19  C   UNL     1       0.523  14.217  21.926  0.00  0.00    +0.000 A 
ATOM     20  C   UNL     1       1.764  14.448  21.141  0.00  0.00    +0.000 C 
ATOM     21  N   UNL     1       0.349  14.948  23.031  0.00  0.00    +0.000 NA
ATOM     22  N   UNL     1      -0.897  14.648  23.417  0.00  0.00    +0.000 N 
ATOM     23  C   UNL     1      -1.480  15.345  24.540  0.00  0.00    +0.000 C 
BRANCH  17  25
ATOM     24  C   UNL     1      -3.038  12.100  23.555  0.00  0.00    +0.000 C 
ATOM     25  O   UNL     1      -2.775  13.372  22.992  0.00  0.00    +0.000 OA
ENDBRANCH  17  25
ENDBRANCH   1  18
TORSDOF 2
ENDMDL
MODEL 3
REMARK VINA RESULT:      -6.0      4.109      7.777
REMARK  Name = 
REMARK  7 active torsions:
REMARK  status: ('A' for Active; 'I' for Inactive)
REMARK    1  A    between atoms: C_1  and  O_2
REMARK    2  A    between atoms: O_2  and  C_3
REMARK    3  A    between atoms: C_4  and  C_5
REMARK    4  A    between atoms: C_15  and  C_16
REMARK    5  A    between atoms: C_19  and  C_20
REMARK    6  A    between atoms: C_21  and  C_22
REMARK    7  A    between atoms: N_24  and  C_25
REMARK                            x       y       z     vdW  Elec       q    Type
REMARK                         _______ _______ _______ _____ _____    ______ ____
ROOT
ATOM      1  C   UNL     1       0.664  11.812  20.998  0.00  0.00    +0.000 C 
ATOM      2  O   UNL     1       1.182  11.032  21.797  0.00  0.00    +0.000 OA
ATOM      3  N   UNL     1      -0.710  12.073  21.064  0.00  0.00    +0.000 N 
ATOM      4  C   UNL     1      -1.441  11.460  22.195  0.00  0.00    +0.000 C 
ATOM      5  C   UNL     1      -2.667  12.286  22.634  0.00  0.00    +0.000 C 
ATOM      6  N   UNL     1      -3.480  12.532  21.445  0.00  0.00    +0.000 N 
ATOM      7  C   UNL     1      -4.854  12.606  21.571  0.00  0.00    +0.000 A 
ATOM      8  C   UNL     1      -5.649  12.288  20.471  0.00  0.00    +0.000 A 
ATOM      9  C   UNL     1      -7.030  12.235  20.601  0.00  0.00    +0.000 A 
ATOM     10  C   UNL     1      -7.599  12.527  21.828  0.00  0.00    +0.000 A 
ATOM     11  C   UNL     1      -6.761  12.851  22.887  0.00  0.00    +0.000 A 
ATOM     12  C   UNL     1      -7.334  13.219  24.222  0.00  0.00    +0.000 C 
ATOM     13  N   UNL     1      -5.406  12.878  22.771  0.00  0.00    +0.000 NA
ATOM     14  C   UNL     1      -2.798  13.301  20.401  0.00  0.00    +0.000 C 
ATOM     15  C   UNL     1      -1.562  12.494  19.915  0.00  0.00    +0.000 C 
ATOM     16  C   UNL     1      -2.022  11.293  19.082  0.00  0.00    +0.000 C 
ENDROOT
BRANCH   1  18
ATOM     17  C   UNL     1       1.819  13.888  20.030  0.00  0.00    +0.000 A 
ATOM     18  C   UNL     1       1.491  12.528  20.029  0.00  0.00    +0.000 A 
ATOM     19  C   UNL     1       1.986  12.058  18.766  0.00  0.00    +0.000 A 
ATOM     20  C   UNL     1       1.820  10.740  18.098  0.00  0.00    +0.000 C 
ATOM     21  N   UNL     1       2.665  13.000  18.104  0.00  0.00    +0.000 NA
ATOM     22  N   UNL     1       2.507  14.094  18.858  0.00  0.00    +0.000 N 
ATOM     23  C   UNL     1       3.025  15.360  18.392  0.00  0.00    +0.000 C 
BRANCH  17  25
ATOM     24  C   UNL     1       0.330  15.544  20.856  0.00  0.00    +0.000 C 
ATOM     25  O   UNL     1       1.619  14.961  20.806  0.00  0.00    +0.000 OA
ENDBRANCH  17  25
ENDBRANCH   1  18
TORSDOF 2
ENDMDL
MODEL 4
REMARK VINA RESULT:      -5.9      3.241      8.567
REMARK  Name = 
REMARK  7 active torsions:
REMARK  status: ('A' for Active; 'I' for Inactive)
REMARK    1  A    between atoms: C_1  and  O_2
REMARK    2  A    between atoms: O_2  and  C_3
REMARK    3  A    between atoms: C_4  and  C_5
REMARK    4  A    between atoms: C_15  and  C_16
REMARK    5  A    between atoms: C_19  and  C_20
REMARK    6  A    between atoms: C_21  and  C_22
REMARK    7  A    between atoms: N_24  and  C_25
REMARK                            x       y       z     vdW  Elec       q    Type
REMARK                         _______ _______ _______ _____ _____    ______ ____
ROOT
ATOM      1  C   UNL     1       3.718   5.212  19.427  0.00  0.00    +0.000 C 
ATOM      2  O   UNL     1       3.581   4.414  20.354  0.00  0.00    +0.000 OA
ATOM      3  N   UNL     1       2.950   6.383  19.393  0.00  0.00    +0.000 N 
ATOM      4  C   UNL     1       2.087   6.637  20.567  0.00  0.00    +0.000 C 
ATOM      5  C   UNL     1       1.853   8.139  20.825  0.00  0.00    +0.000 C 
ATOM      6  N   UNL     1       1.374   8.730  19.577  0.00  0.00    +0.000 N 
ATOM      7  C   UNL     1       0.478   9.781  19.629  0.00  0.00    +0.000 A 
ATOM      8  C   UNL     1      -0.383   9.984  18.552  0.00  0.00    +0.000 A 
ATOM      9  C   UNL     1      -1.375  10.954  18.626  0.00  0.00    +0.000 A 
ATOM     10  C   UNL     1      -1.474  11.725  19.771  0.00  0.00    +0.000 A 
ATOM     11  C   UNL     1      -0.580  11.489  20.807  0.00  0.00    +0.000 A 
ATOM     12  C   UNL     1      -0.619  12.330  22.047  0.00  0.00    +0.000 C 
ATOM     13  N   UNL     1       0.375  10.523  20.751  0.00  0.00    +0.000 NA
ATOM     14  C   UNL     1       2.321   8.630  18.464  0.00  0.00    +0.000 C 
ATOM     15  C   UNL     1       2.572   7.127  18.157  0.00  0.00    +0.000 C 
ATOM     16  C   UNL     1       1.334   6.521  17.488  0.00  0.00    +0.000 C 
ENDROOT
BRANCH   1  18
ATOM     17  C   UNL     1       4.569   4.344  17.167  0.00  0.00    +0.000 A 
ATOM     18  C   UNL     1       4.734   4.982  18.402  0.00  0.00    +0.000 A 
ATOM     19  C   UNL     1       6.154   5.171  18.501  0.00  0.00    +0.000 A 
ATOM     20  C   UNL     1       6.981   5.657  19.637  0.00  0.00    +0.000 C 
ATOM     21  N   UNL     1       6.794   4.806  17.387  0.00  0.00    +0.000 NA
ATOM     22  N   UNL     1       5.830   4.270  16.628  0.00  0.00    +0.000 N 
ATOM     23  C   UNL     1       6.177   3.658  15.366  0.00  0.00    +0.000 C 
BRANCH  17  25
ATOM     24  C   UNL     1       2.595   3.023  17.112  0.00  0.00    +0.000 C 
ATOM     25  O   UNL     1       3.575   3.802  16.451  0.00  0.00    +0.000 OA
ENDBRANCH  17  25
ENDBRANCH   1  18
TORSDOF 2
ENDMDL
MODEL 5
REMARK VINA RESULT:      -5.9      2.042      3.627
REMARK  Name = 
REMARK  7 active torsions:
REMARK  status: ('A' for Active; 'I' for Inactive)
REMARK    1  A    between atoms: C_1  and  O_2
REMARK    2  A    between atoms: O_2  and  C_3
REMARK    3  A    between atoms: C_4  and  C_5
REMARK    4  A    between atoms: C_15  and  C_16
REMARK    5  A    between atoms: C_19  and  C_20
REMARK    6  A    between atoms: C_21  and  C_22
REMARK    7  A    between atoms: N_24  and  C_25
REMARK                            x       y       z     vdW  Elec       q    Type
REMARK                         _______ _______ _______ _____ _____    ______ ____
ROOT
ATOM      1  C   UNL     1      -1.004  12.945  22.352  0.00  0.00    +0.000 C 
ATOM      2  O   UNL     1      -0.452  13.264  23.404  0.00  0.00    +0.000 OA
ATOM      3  N   UNL     1      -0.484  11.900  21.577  0.00  0.00    +0.000 N 
ATOM      4  C   UNL     1       0.660  11.160  22.154  0.00  0.00    +0.000 C 
ATOM      5  C   UNL     1       0.723   9.693  21.684  0.00  0.00    +0.000 C 
ATOM      6  N   UNL     1       0.675   9.697  20.223  0.00  0.00    +0.000 N 
ATOM      7  C   UNL     1       1.361   8.724  19.523  0.00  0.00    +0.000 A 
ATOM      8  C   UNL     1       1.786   9.002  18.225  0.00  0.00    +0.000 A 
ATOM      9  C   UNL     1       2.582   8.092  17.542  0.00  0.00    +0.000 A 
ATOM     10  C   UNL     1       2.921   6.901  18.161  0.00  0.00    +0.000 A 
ATOM     11  C   UNL     1       2.457   6.669  19.450  0.00  0.00    +0.000 A 
ATOM     12  C   UNL     1       2.759   5.375  20.142  0.00  0.00    +0.000 C 
ATOM     13  N   UNL     1       1.700   7.570  20.133  0.00  0.00    +0.000 NA
ATOM     14  C   UNL     1      -0.552  10.273  19.666  0.00  0.00    +0.000 C 
ATOM     15  C   UNL     1      -0.647  11.761  20.101  0.00  0.00    +0.000 C 
ATOM     16  C   UNL     1       0.390  12.592  19.337  0.00  0.00    +0.000 C 
ENDROOT
BRANCH   1  18
ATOM     17  C   UNL     1      -3.554  13.190  22.224  0.00  0.00    +0.000 A 
ATOM     18  C   UNL     1      -2.246  13.599  21.945  0.00  0.00    +0.000 A 
ATOM     19  C   UNL     1      -2.416  14.681  21.016  0.00  0.00    +0.000 A 
ATOM     20  C   UNL     1      -1.408  15.439  20.229  0.00  0.00    +0.000 C 
ATOM     21  N   UNL     1      -3.702  14.996  20.834  0.00  0.00    +0.000 NA
ATOM     22  N   UNL     1      -4.360  14.059  21.527  0.00  0.00    +0.000 N 
ATOM     23  C   UNL     1      -5.803  14.017  21.472  0.00  0.00    +0.000 C 
BRANCH  17  25
ATOM     24  C   UNL     1      -4.170  12.280  24.330  0.00  0.00    +0.000 C 
ATOM     25  O   UNL     1      -4.170  12.222  22.915  0.00  0.00    +0.000 OA
ENDBRANCH  17  25
ENDBRANCH   1  18
TORSDOF 2
ENDMDL
MODEL 6
REMARK VINA RESULT:      -5.9      1.168      2.282
REMARK  Name = 
REMARK  7 active torsions:
REMARK  status: ('A' for Active; 'I' for Inactive)
REMARK    1  A    between atoms: C_1  and  O_2
REMARK    2  A    between atoms: O_2  and  C_3
REMARK    3  A    between atoms: C_4  and  C_5
REMARK    4  A    between atoms: C_15  and  C_16
REMARK    5  A    between atoms: C_19  and  C_20
REMARK    6  A    between atoms: C_21  and  C_22
REMARK    7  A    between atoms: N_24  and  C_25
REMARK                            x       y       z     vdW  Elec       q    Type
REMARK                         _______ _______ _______ _____ _____    ______ ____
ROOT
ATOM      1  C   UNL     1       0.248  11.791  19.302  0.00  0.00    +0.000 C 
ATOM      2  O   UNL     1      -0.381  12.099  18.290  0.00  0.00    +0.000 OA
ATOM      3  N   UNL     1       0.764  10.496  19.439  0.00  0.00    +0.000 N 
ATOM      4  C   UNL     1       0.608   9.600  18.273  0.00  0.00    +0.000 C 
ATOM      5  C   UNL     1       1.728   8.545  18.173  0.00  0.00    +0.000 C 
ATOM      6  N   UNL     1       1.804   7.860  19.462  0.00  0.00    +0.000 N 
ATOM      7  C   UNL     1       2.158   6.525  19.496  0.00  0.00    +0.000 A 
ATOM      8  C   UNL     1       1.718   5.740  20.561  0.00  0.00    +0.000 A 
ATOM      9  C   UNL     1       1.954   4.372  20.562  0.00  0.00    +0.000 A 
ATOM     10  C   UNL     1       2.650   3.811  19.505  0.00  0.00    +0.000 A 
ATOM     11  C   UNL     1       3.077   4.643  18.478  0.00  0.00    +0.000 A 
ATOM     12  C   UNL     1       3.875   4.089  17.337  0.00  0.00    +0.000 C 
ATOM     13  N   UNL     1       2.825   5.979  18.460  0.00  0.00    +0.000 NA
ATOM     14  C   UNL     1       2.140   8.737  20.587  0.00  0.00    +0.000 C 
ATOM     15  C   UNL     1       1.023   9.807  20.736  0.00  0.00    +0.000 C 
ATOM     16  C   UNL     1      -0.246   9.157  21.295  0.00  0.00    +0.000 C 
ENDROOT
BRANCH   1  18
ATOM     17  C   UNL     1       1.672  13.589  20.452  0.00  0.00    +0.000 A 
ATOM     18  C   UNL     1       0.527  12.794  20.327  0.00  0.00    +0.000 A 
ATOM     19  C   UNL     1      -0.202  13.054  21.536  0.00  0.00    +0.000 A 
ATOM     20  C   UNL     1      -1.427  12.407  22.078  0.00  0.00    +0.000 C 
ATOM     21  N   UNL     1       0.367  14.008  22.278  0.00  0.00    +0.000 NA
ATOM     22  N   UNL     1       1.509  14.274  21.632  0.00  0.00    +0.000 N 
ATOM     23  C   UNL     1       2.455  15.200  22.211  0.00  0.00    +0.000 C 
BRANCH  17  25
ATOM     24  C   UNL     1       2.752  14.421  18.506  0.00  0.00    +0.000 C 
ATOM     25  O   UNL     1       2.810  13.808  19.781  0.00  0.00    +0.000 OA
ENDBRANCH  17  25
ENDBRANCH   1  18
TORSDOF 2
ENDMDL
MODEL 7
REMARK VINA RESULT:      -5.8      3.178      8.706
REMARK  Name = 
REMARK  7 active torsions:
REMARK  status: ('A' for Active; 'I' for Inactive)
REMARK    1  A    between atoms: C_1  and  O_2
REMARK    2  A    between atoms: O_2  and  C_3
REMARK    3  A    between atoms: C_4  and  C_5
REMARK    4  A    between atoms: C_15  and  C_16
REMARK    5  A    between atoms: C_19  and  C_20
REMARK    6  A    between atoms: C_21  and  C_22
REMARK    7  A    between atoms: N_24  and  C_25
REMARK                            x       y       z     vdW  Elec       q    Type
REMARK                         _______ _______ _______ _____ _____    ______ ____
ROOT
ATOM      1  C   UNL     1       3.411   4.994  19.478  0.00  0.00    +0.000 C 
ATOM      2  O   UNL     1       3.221   4.282  20.464  0.00  0.00    +0.000 OA
ATOM      3  N   UNL     1       2.762   6.231  19.373  0.00  0.00    +0.000 N 
ATOM      4  C   UNL     1       1.960   6.653  20.541  0.00  0.00    +0.000 C 
ATOM      5  C   UNL     1       1.882   8.186  20.693  0.00  0.00    +0.000 C 
ATOM      6  N   UNL     1       1.431   8.732  19.414  0.00  0.00    +0.000 N 
ATOM      7  C   UNL     1       0.645   9.868  19.406  0.00  0.00    +0.000 A 
ATOM      8  C   UNL     1      -0.221  10.079  18.334  0.00  0.00    +0.000 A 
ATOM      9  C   UNL     1      -1.110  11.146  18.356  0.00  0.00    +0.000 A 
ATOM     10  C   UNL     1      -1.102  12.003  19.442  0.00  0.00    +0.000 A 
ATOM     11  C   UNL     1      -0.208  11.753  20.476  0.00  0.00    +0.000 A 
ATOM     12  C   UNL     1      -0.131  12.680  21.651  0.00  0.00    +0.000 C 
ATOM     13  N   UNL     1       0.645  10.694  20.472  0.00  0.00    +0.000 NA
ATOM     14  C   UNL     1       2.334   8.457  18.293  0.00  0.00    +0.000 C 
ATOM     15  C   UNL     1       2.427   6.919  18.094  0.00  0.00    +0.000 C 
ATOM     16  C   UNL     1       1.117   6.395  17.495  0.00  0.00    +0.000 C 
ENDROOT
BRANCH   1  18
ATOM     17  C   UNL     1       5.646   5.123  18.224  0.00  0.00    +0.000 A 
ATOM     18  C   UNL     1       4.372   4.591  18.454  0.00  0.00    +0.000 A 
ATOM     19  C   UNL     1       4.163   3.711  17.338  0.00  0.00    +0.000 A 
ATOM     20  C   UNL     1       2.949   2.962  16.919  0.00  0.00    +0.000 C 
ATOM     21  N   UNL     1       5.246   3.608  16.563  0.00  0.00    +0.000 NA
ATOM     22  N   UNL     1       6.097   4.498  17.086  0.00  0.00    +0.000 N 
ATOM     23  C   UNL     1       7.361   4.745  16.430  0.00  0.00    +0.000 C 
BRANCH  17  25
ATOM     24  C   UNL     1       7.480   5.613  19.651  0.00  0.00    +0.000 C 
ATOM     25  O   UNL     1       6.456   6.038  18.771  0.00  0.00    +0.000 OA
ENDBRANCH  17  25
ENDBRANCH   1  18
TORSDOF 2
ENDMDL
MODEL 8
REMARK VINA RESULT:      -5.7      7.651     10.128
REMARK  Name = 
REMARK  7 active torsions:
REMARK  status: ('A' for Active; 'I' for Inactive)
REMARK    1  A    between atoms: C_1  and  O_2
REMARK    2  A    between atoms: O_2  and  C_3
REMARK    3  A    between atoms: C_4  and  C_5
REMARK    4  A    between atoms: C_15  and  C_16
REMARK    5  A    between atoms: C_19  and  C_20
REMARK    6  A    between atoms: C_21  and  C_22
REMARK    7  A    between atoms: N_24  and  C_25
REMARK                            x       y       z     vdW  Elec       q    Type
REMARK                         _______ _______ _______ _____ _____    ______ ____
ROOT
ATOM      1  C   UNL     1       7.813  14.592  20.403  0.00  0.00    +0.000 C 
ATOM      2  O   UNL     1       6.880  15.192  19.868  0.00  0.00    +0.000 OA
ATOM      3  N   UNL     1       7.622  13.962  21.639  0.00  0.00    +0.000 N 
ATOM      4  C   UNL     1       6.243  13.967  22.174  0.00  0.00    +0.000 C 
ATOM      5  C   UNL     1       5.941  12.746  23.066  0.00  0.00    +0.000 C 
ATOM      6  N   UNL     1       6.989  12.675  24.082  0.00  0.00    +0.000 N 
ATOM      7  C   UNL     1       6.676  12.196  25.340  0.00  0.00    +0.000 A 
ATOM      8  C   UNL     1       7.439  12.615  26.428  0.00  0.00    +0.000 A 
ATOM      9  C   UNL     1       7.076  12.247  27.718  0.00  0.00    +0.000 A 
ATOM     10  C   UNL     1       5.963  11.444  27.897  0.00  0.00    +0.000 A 
ATOM     11  C   UNL     1       5.248  11.044  26.776  0.00  0.00    +0.000 A 
ATOM     12  C   UNL     1       4.064  10.135  26.917  0.00  0.00    +0.000 C 
ATOM     13  N   UNL     1       5.584  11.423  25.513  0.00  0.00    +0.000 NA
ATOM     14  C   UNL     1       8.337  12.487  23.541  0.00  0.00    +0.000 C 
ATOM     15  C   UNL     1       8.690  13.708  22.648  0.00  0.00    +0.000 C 
ATOM     16  C   UNL     1       8.942  14.938  23.527  0.00  0.00    +0.000 C 
ENDROOT
BRANCH   1  18
ATOM     17  C   UNL     1       9.642  13.321  19.131  0.00  0.00    +0.000 A 
ATOM     18  C   UNL     1       9.097  14.468  19.717  0.00  0.00    +0.000 A 
ATOM     19  C   UNL     1      10.167  15.423  19.658  0.00  0.00    +0.000 A 
ATOM     20  C   UNL     1      10.276  16.784  20.248  0.00  0.00    +0.000 C 
ATOM     21  N   UNL     1      11.227  14.958  18.989  0.00  0.00    +0.000 NA
ATOM     22  N   UNL     1      10.904  13.685  18.730  0.00  0.00    +0.000 N 
ATOM     23  C   UNL     1      11.875  12.820  18.100  0.00  0.00    +0.000 C 
BRANCH  17  25
ATOM     24  C   UNL     1       9.406  11.107  19.960  0.00  0.00    +0.000 C 
ATOM     25  O   UNL     1       9.284  12.049  18.910  0.00  0.00    +0.000 OA
ENDBRANCH  17  25
ENDBRANCH   1  18
TORSDOF 2
ENDMDL
MODEL 9
REMARK VINA RESULT:      -5.6      2.685      4.927
REMARK  Name = 
REMARK  7 active torsions:
REMARK  status: ('A' for Active; 'I' for Inactive)
REMARK    1  A    between atoms: C_1  and  O_2
REMARK    2  A    between atoms: O_2  and  C_3
REMARK    3  A    between atoms: C_4  and  C_5
REMARK    4  A    between atoms: C_15  and  C_16
REMARK    5  A    between atoms: C_19  and  C_20
REMARK    6  A    between atoms: C_21  and  C_22
REMARK    7  A    between atoms: N_24  and  C_25
REMARK                            x       y       z     vdW  Elec       q    Type
REMARK                         _______ _______ _______ _____ _____    ______ ____
ROOT
ATOM      1  C   UNL     1      -2.531  13.756  22.607  0.00  0.00    +0.000 C 
ATOM      2  O   UNL     1      -2.080  14.075  23.707  0.00  0.00    +0.000 OA
ATOM      3  N   UNL     1      -1.856  12.814  21.820  0.00  0.00    +0.000 N 
ATOM      4  C   UNL     1      -0.677  12.167  22.437  0.00  0.00    +0.000 C 
ATOM      5  C   UNL     1      -0.429  10.741  21.904  0.00  0.00    +0.000 C 
ATOM      6  N   UNL     1      -0.388  10.818  20.445  0.00  0.00    +0.000 N 
ATOM      7  C   UNL     1       0.439   9.959  19.748  0.00  0.00    +0.000 A 
ATOM      8  C   UNL     1       0.910  10.349  18.495  0.00  0.00    +0.000 A 
ATOM      9  C   UNL     1       1.838   9.563  17.824  0.00  0.00    +0.000 A 
ATOM     10  C   UNL     1       2.264   8.383  18.409  0.00  0.00    +0.000 A 
ATOM     11  C   UNL     1       1.751   8.037  19.652  0.00  0.00    +0.000 A 
ATOM     12  C   UNL     1       2.148   6.746  20.302  0.00  0.00    +0.000 C 
ATOM     13  N   UNL     1       0.863   8.816  20.325  0.00  0.00    +0.000 NA
ATOM     14  C   UNL     1      -1.634  11.292  19.835  0.00  0.00    +0.000 C 
ATOM     15  C   UNL     1      -1.913  12.737  20.332  0.00  0.00    +0.000 C 
ATOM     16  C   UNL     1      -0.927  13.710  19.677  0.00  0.00    +0.000 C 
ENDROOT
BRANCH   1  18
ATOM     17  C   UNL     1      -5.073  13.710  22.263  0.00  0.00    +0.000 A 
ATOM     18  C   UNL     1      -3.808  14.299  22.150  0.00  0.00    +0.000 A 
ATOM     19  C   UNL     1      -4.039  15.446  21.318  0.00  0.00    +0.000 A 
ATOM     20  C   UNL     1      -3.075  16.399  20.706  0.00  0.00    +0.000 C 
ATOM     21  N   UNL     1      -5.335  15.625  21.047  0.00  0.00    +0.000 NA
ATOM     22  N   UNL     1      -5.923  14.547  21.581  0.00  0.00    +0.000 N 
ATOM     23  C   UNL     1      -7.339  14.340  21.387  0.00  0.00    +0.000 C 
BRANCH  17  25
ATOM     24  C   UNL     1      -5.805  12.543  24.198  0.00  0.00    +0.000 C 
ATOM     25  O   UNL     1      -5.614  12.608  22.797  0.00  0.00    +0.000 OA
ENDBRANCH  17  25
ENDBRANCH   1  18
TORSDOF 2
ENDMDL
