MODEL 1
REMARK VINA RESULT:      -6.9      0.000      0.000
REMARK  Name = 
REMARK  6 active torsions:
REMARK  status: ('A' for Active; 'I' for Inactive)
REMARK    1  A    between atoms: C_1  and  C_2
REMARK    2  A    between atoms: C_6  and  N_7
REMARK    3  A    between atoms: N_7  and  C_8
REMARK    4  A    between atoms: N_12  and  C_13
REMARK    5  A    between atoms: C_13  and  C_14
REMARK    6  A    between atoms: C_14  and  O_16
REMARK                            x       y       z     vdW  Elec       q    Type
REMARK                         _______ _______ _______ _____ _____    ______ ____
ROOT
ATOM      1  C   UNL     1       4.497   4.244  16.696  0.00  0.00    +0.000 C 
ATOM      2  S   UNL     1       5.724   3.758  15.458  0.00  0.00    +0.000 S 
ATOM      3  C   UNL     1       6.867   4.974  15.965  0.00  0.00    +0.000 C 
ATOM      4  O   UNL     1       8.050   4.916  15.671  0.00  0.00    +0.000 OA
ATOM      5  N   UNL     1       6.290   5.867  16.807  0.00  0.00    +0.000 N 
ATOM      6  C   UNL     1       5.144   5.425  17.430  0.00  0.00    +0.000 C 
ATOM      7  O   UNL     1       4.726   5.897  18.491  0.00  0.00    +0.000 OA
ENDROOT
BRANCH   1   8
ATOM      8  N   UNL     1       4.213   3.086  17.547  0.00  0.00    +0.000 N 
ATOM      9  H   UNL     1       5.037   2.631  17.929  0.00  0.00    +0.000 HD
BRANCH   8  15
ATOM     10  C   UNL     1       2.151   2.931  22.082  0.00  0.00    +0.000 C 
ATOM     11  C   UNL     1       2.016   2.965  20.587  0.00  0.00    +0.000 A 
ATOM     12  C   UNL     1       0.760   2.911  19.982  0.00  0.00    +0.000 A 
ATOM     13  C   UNL     1       0.665   2.922  18.594  0.00  0.00    +0.000 A 
ATOM     14  C   UNL     1       1.827   2.964  17.812  0.00  0.00    +0.000 A 
ATOM     15  C   UNL     1       3.108   2.986  18.389  0.00  0.00    +0.000 A 
ATOM     16  C   UNL     1       3.173   3.023  19.785  0.00  0.00    +0.000 A 
ENDBRANCH   8  15
ENDBRANCH   1   8
BRANCH   5  17
ATOM     17  C   UNL     1       7.070   6.946  17.416  0.00  0.00    +0.000 C 
BRANCH  17  18
ATOM     18  C   UNL     1       7.930   6.559  18.610  0.00  0.00    +0.000 C 
ATOM     19  O   UNL     1       7.969   5.458  19.146  0.00  0.00    +0.000 OA
BRANCH  18  20
ATOM     20  O   UNL     1       8.687   7.596  19.063  0.00  0.00    +0.000 OA
ATOM     21  H   UNL     1       9.657   7.451  19.032  0.00  0.00    +0.000 HD
ENDBRANCH  18  20
ENDBRANCH  17  18
ENDBRANCH   5  17
TORSDOF 5
ENDMDL
MODEL 2
REMARK VINA RESULT:      -6.9      3.044      6.361
REMARK  Name = 
REMARK  6 active torsions:
REMARK  status: ('A' for Active; 'I' for Inactive)
REMARK    1  A    between atoms: C_1  and  C_2
REMARK    2  A    between atoms: C_6  and  N_7
REMARK    3  A    between atoms: N_7  and  C_8
REMARK    4  A    between atoms: N_12  and  C_13
REMARK    5  A    between atoms: C_13  and  C_14
REMARK    6  A    between atoms: C_14  and  O_16
REMARK                            x       y       z     vdW  Elec       q    Type
REMARK                         _______ _______ _______ _____ _____    ______ ____
ROOT
ATOM      1  C   UNL     1       6.415   5.512  16.490  0.00  0.00    +0.000 C 
ATOM      2  S   UNL     1       7.338   6.159  17.906  0.00  0.00    +0.000 S 
ATOM      3  C   UNL     1       6.300   5.377  19.069  0.00  0.00    +0.000 C 
ATOM      4  O   UNL     1       6.637   5.206  20.229  0.00  0.00    +0.000 OA
ATOM      5  N   UNL     1       5.179   4.892  18.477  0.00  0.00    +0.000 N 
ATOM      6  C   UNL     1       5.275   4.701  17.116  0.00  0.00    +0.000 C 
ATOM      7  O   UNL     1       4.554   3.917  16.492  0.00  0.00    +0.000 OA
ENDROOT
BRANCH   1   8
ATOM      8  N   UNL     1       7.332   4.726  15.660  0.00  0.00    +0.000 N 
ATOM      9  H   UNL     1       7.708   3.899  16.113  0.00  0.00    +0.000 HD
BRANCH   8  15
ATOM     10  C   UNL     1       5.254   2.571  11.674  0.00  0.00    +0.000 C 
ATOM     11  C   UNL     1       6.175   3.594  12.273  0.00  0.00    +0.000 A 
ATOM     12  C   UNL     1       6.928   4.442  11.460  0.00  0.00    +0.000 A 
ATOM     13  C   UNL     1       7.790   5.365  12.041  0.00  0.00    +0.000 A 
ATOM     14  C   UNL     1       7.916   5.426  13.435  0.00  0.00    +0.000 A 
ATOM     15  C   UNL     1       7.197   4.566  14.282  0.00  0.00    +0.000 A 
ATOM     16  C   UNL     1       6.302   3.680  13.674  0.00  0.00    +0.000 A 
ENDBRANCH   8  15
ENDBRANCH   1   8
BRANCH   5  17
ATOM     17  C   UNL     1       4.185   4.139  19.242  0.00  0.00    +0.000 C 
BRANCH  17  18
ATOM     18  C   UNL     1       4.484   2.662  19.457  0.00  0.00    +0.000 C 
ATOM     19  O   UNL     1       5.087   2.177  20.407  0.00  0.00    +0.000 OA
BRANCH  18  20
ATOM     20  O   UNL     1       4.007   1.883  18.446  0.00  0.00    +0.000 OA
ATOM     21  H   UNL     1       3.761   0.969  18.704  0.00  0.00    +0.000 HD
ENDBRANCH  18  20
ENDBRANCH  17  18
ENDBRANCH   5  17
TORSDOF 5
ENDMDL
MODEL 3
REMARK VINA RESULT:      -6.9      2.964      6.485
REMARK  Name = 
REMARK  6 active torsions:
REMARK  status: ('A' for Active; 'I' for Inactive)
REMARK    1  A    between atoms: C_1  and  C_2
REMARK    2  A    between atoms: C_6  and  N_7
REMARK    3  A    between atoms: N_7  and  C_8
REMARK    4  A    between atoms: N_12  and  C_13
REMARK    5  A    between atoms: C_13  and  C_14
REMARK    6  A    between atoms: C_14  and  O_16
REMARK                            x       y       z     vdW  Elec       q    Type
REMARK                         _______ _______ _______ _____ _____    ______ ____
ROOT
ATOM      1  C   UNL     1       4.087   3.879  17.722  0.00  0.00    +0.000 C 
ATOM      2  S   UNL     1       3.469   5.577  17.616  0.00  0.00    +0.000 S 
ATOM      3  C   UNL     1       2.909   5.583  19.268  0.00  0.00    +0.000 C 
ATOM      4  O   UNL     1       2.666   6.618  19.866  0.00  0.00    +0.000 OA
ATOM      5  N   UNL     1       2.919   4.333  19.793  0.00  0.00    +0.000 N 
ATOM      6  C   UNL     1       3.743   3.437  19.148  0.00  0.00    +0.000 C 
ATOM      7  O   UNL     1       4.194   2.423  19.691  0.00  0.00    +0.000 OA
ENDROOT
BRANCH   1   8
ATOM      8  N   UNL     1       5.521   3.887  17.420  0.00  0.00    +0.000 N 
ATOM      9  H   UNL     1       6.067   3.217  17.951  0.00  0.00    +0.000 HD
BRANCH   8  15
ATOM     10  C   UNL     1       5.516   3.296  12.471  0.00  0.00    +0.000 C 
ATOM     11  C   UNL     1       6.076   3.935  13.709  0.00  0.00    +0.000 A 
ATOM     12  C   UNL     1       7.155   4.818  13.632  0.00  0.00    +0.000 A 
ATOM     13  C   UNL     1       7.668   5.378  14.796  0.00  0.00    +0.000 A 
ATOM     14  C   UNL     1       7.117   5.039  16.040  0.00  0.00    +0.000 A 
ATOM     15  C   UNL     1       6.052   4.130  16.156  0.00  0.00    +0.000 A 
ATOM     16  C   UNL     1       5.524   3.618  14.966  0.00  0.00    +0.000 A 
ENDBRANCH   8  15
ENDBRANCH   1   8
BRANCH   5  17
ATOM     17  C   UNL     1       2.549   4.096  21.189  0.00  0.00    +0.000 C 
BRANCH  17  18
ATOM     18  C   UNL     1       1.433   3.087  21.424  0.00  0.00    +0.000 C 
ATOM     19  O   UNL     1       1.375   2.273  22.337  0.00  0.00    +0.000 OA
BRANCH  18  20
ATOM     20  O   UNL     1       0.455   3.165  20.478  0.00  0.00    +0.000 OA
ATOM     21  H   UNL     1      -0.228   3.850  20.639  0.00  0.00    +0.000 HD
ENDBRANCH  18  20
ENDBRANCH  17  18
ENDBRANCH   5  17
TORSDOF 5
ENDMDL
MODEL 4
REMARK VINA RESULT:      -6.8      4.178      4.698
REMARK  Name = 
REMARK  6 active torsions:
REMARK  status: ('A' for Active; 'I' for Inactive)
REMARK    1  A    between atoms: C_1  and  C_2
REMARK    2  A    between atoms: C_6  and  N_7
REMARK    3  A    between atoms: N_7  and  C_8
REMARK    4  A    between atoms: N_12  and  C_13
REMARK    5  A    between atoms: C_13  and  C_14
REMARK    6  A    between atoms: C_14  and  O_16
REMARK                            x       y       z     vdW  Elec       q    Type
REMARK                         _______ _______ _______ _____ _____    ______ ____
ROOT
ATOM      1  C   UNL     1       3.082   6.237  18.076  0.00  0.00    +0.000 C 
ATOM      2  S   UNL     1       3.266   5.062  19.441  0.00  0.00    +0.000 S 
ATOM      3  C   UNL     1       4.693   4.331  18.753  0.00  0.00    +0.000 C 
ATOM      4  O   UNL     1       5.460   3.654  19.417  0.00  0.00    +0.000 OA
ATOM      5  N   UNL     1       4.875   4.728  17.468  0.00  0.00    +0.000 N 
ATOM      6  C   UNL     1       4.234   5.897  17.123  0.00  0.00    +0.000 C 
ATOM      7  O   UNL     1       4.593   6.613  16.183  0.00  0.00    +0.000 OA
ENDROOT
BRANCH   1   8
ATOM      8  N   UNL     1       3.130   7.595  18.623  0.00  0.00    +0.000 N 
ATOM      9  H   UNL     1       3.859   8.182  18.231  0.00  0.00    +0.000 HD
BRANCH   8  15
ATOM     10  C   UNL     1      -0.193   9.053  22.040  0.00  0.00    +0.000 C 
ATOM     11  C   UNL     1       0.371   9.132  20.651  0.00  0.00    +0.000 A 
ATOM     12  C   UNL     1      -0.211   9.959  19.689  0.00  0.00    +0.000 A 
ATOM     13  C   UNL     1       0.318   9.995  18.404  0.00  0.00    +0.000 A 
ATOM     14  C   UNL     1       1.416   9.189  18.074  0.00  0.00    +0.000 A 
ATOM     15  C   UNL     1       2.006   8.322  19.009  0.00  0.00    +0.000 A 
ATOM     16  C   UNL     1       1.484   8.340  20.306  0.00  0.00    +0.000 A 
ENDBRANCH   8  15
ENDBRANCH   1   8
BRANCH   5  17
ATOM     17  C   UNL     1       6.044   4.294  16.702  0.00  0.00    +0.000 C 
BRANCH  17  18
ATOM     18  C   UNL     1       7.375   4.918  17.098  0.00  0.00    +0.000 C 
ATOM     19  O   UNL     1       7.718   6.077  16.896  0.00  0.00    +0.000 OA
BRANCH  18  20
ATOM     20  O   UNL     1       8.198   4.032  17.723  0.00  0.00    +0.000 OA
ATOM     21  H   UNL     1       8.398   3.217  17.215  0.00  0.00    +0.000 HD
ENDBRANCH  18  20
ENDBRANCH  17  18
ENDBRANCH   5  17
TORSDOF 5
ENDMDL
MODEL 5
REMARK VINA RESULT:      -6.8      4.364      4.805
REMARK  Name = 
REMARK  6 active torsions:
REMARK  status: ('A' for Active; 'I' for Inactive)
REMARK    1  A    between atoms: C_1  and  C_2
REMARK    2  A    between atoms: C_6  and  N_7
REMARK    3  A    between atoms: N_7  and  C_8
REMARK    4  A    between atoms: N_12  and  C_13
REMARK    5  A    between atoms: C_13  and  C_14
REMARK    6  A    between atoms: C_14  and  O_16
REMARK                            x       y       z     vdW  Elec       q    Type
REMARK                         _______ _______ _______ _____ _____    ______ ____
ROOT
ATOM      1  C   UNL     1       2.721   5.847  19.138  0.00  0.00    +0.000 C 
ATOM      2  S   UNL     1       2.892   4.303  20.066  0.00  0.00    +0.000 S 
ATOM      3  C   UNL     1       4.301   3.802  19.168  0.00  0.00    +0.000 C 
ATOM      4  O   UNL     1       5.060   2.939  19.578  0.00  0.00    +0.000 OA
ATOM      5  N   UNL     1       4.483   4.577  18.069  0.00  0.00    +0.000 N 
ATOM      6  C   UNL     1       3.860   5.805  18.114  0.00  0.00    +0.000 C 
ATOM      7  O   UNL     1       4.226   6.773  17.440  0.00  0.00    +0.000 OA
ENDROOT
BRANCH   1   8
ATOM      8  N   UNL     1       2.797   6.966  20.082  0.00  0.00    +0.000 N 
ATOM      9  H   UNL     1       3.733   7.326  20.234  0.00  0.00    +0.000 HD
BRANCH   8  15
ATOM     10  C   UNL     1      -0.512   9.540  22.778  0.00  0.00    +0.000 C 
ATOM     11  C   UNL     1       0.214   9.299  21.486  0.00  0.00    +0.000 A 
ATOM     12  C   UNL     1      -0.061  10.071  20.357  0.00  0.00    +0.000 A 
ATOM     13  C   UNL     1       0.610   9.812  19.167  0.00  0.00    +0.000 A 
ATOM     14  C   UNL     1       1.540   8.766  19.100  0.00  0.00    +0.000 A 
ATOM     15  C   UNL     1       1.818   7.948  20.209  0.00  0.00    +0.000 A 
ATOM     16  C   UNL     1       1.164   8.261  21.405  0.00  0.00    +0.000 A 
ENDBRANCH   8  15
ENDBRANCH   1   8
BRANCH   5  17
ATOM     17  C   UNL     1       5.638   4.386  17.192  0.00  0.00    +0.000 C 
BRANCH  17  18
ATOM     18  C   UNL     1       6.948   5.000  17.666  0.00  0.00    +0.000 C 
ATOM     19  O   UNL     1       7.725   4.508  18.475  0.00  0.00    +0.000 OA
BRANCH  18  20
ATOM     20  O   UNL     1       7.193   6.210  17.092  0.00  0.00    +0.000 OA
ATOM     21  H   UNL     1       6.912   6.293  16.156  0.00  0.00    +0.000 HD
ENDBRANCH  18  20
ENDBRANCH  17  18
ENDBRANCH   5  17
TORSDOF 5
ENDMDL
MODEL 6
REMARK VINA RESULT:      -6.7      4.251      4.942
REMARK  Name = 
REMARK  6 active torsions:
REMARK  status: ('A' for Active; 'I' for Inactive)
REMARK    1  A    between atoms: C_1  and  C_2
REMARK    2  A    between atoms: C_6  and  N_7
REMARK    3  A    between atoms: N_7  and  C_8
REMARK    4  A    between atoms: N_12  and  C_13
REMARK    5  A    between atoms: C_13  and  C_14
REMARK    6  A    between atoms: C_14  and  O_16
REMARK                            x       y       z     vdW  Elec       q    Type
REMARK                         _______ _______ _______ _____ _____    ______ ____
ROOT
ATOM      1  C   UNL     1       3.032   5.790  18.781  0.00  0.00    +0.000 C 
ATOM      2  S   UNL     1       3.027   4.171  19.591  0.00  0.00    +0.000 S 
ATOM      3  C   UNL     1       4.663   3.810  19.103  0.00  0.00    +0.000 C 
ATOM      4  O   UNL     1       5.325   2.941  19.646  0.00  0.00    +0.000 OA
ATOM      5  N   UNL     1       5.102   4.693  18.172  0.00  0.00    +0.000 N 
ATOM      6  C   UNL     1       4.417   5.888  18.133  0.00  0.00    +0.000 C 
ATOM      7  O   UNL     1       4.899   6.928  17.675  0.00  0.00    +0.000 OA
ENDROOT
BRANCH   1   8
ATOM      8  N   UNL     1       2.764   6.815  19.794  0.00  0.00    +0.000 N 
ATOM      9  H   UNL     1       3.554   7.031  20.394  0.00  0.00    +0.000 HD
BRANCH   8  15
ATOM     10  C   UNL     1      -0.351  10.321  21.479  0.00  0.00    +0.000 C 
ATOM     11  C   UNL     1       0.434   9.702  20.360  0.00  0.00    +0.000 A 
ATOM     12  C   UNL     1       0.363  10.219  19.065  0.00  0.00    +0.000 A 
ATOM     13  C   UNL     1       1.084   9.612  18.043  0.00  0.00    +0.000 A 
ATOM     14  C   UNL     1       1.858   8.476  18.309  0.00  0.00    +0.000 A 
ATOM     15  C   UNL     1       1.927   7.911  19.594  0.00  0.00    +0.000 A 
ATOM     16  C   UNL     1       1.231   8.568  20.613  0.00  0.00    +0.000 A 
ENDBRANCH   8  15
ENDBRANCH   1   8
BRANCH   5  17
ATOM     17  C   UNL     1       6.470   4.630  17.656  0.00  0.00    +0.000 C 
BRANCH  17  18
ATOM     18  C   UNL     1       6.610   4.455  16.150  0.00  0.00    +0.000 C 
ATOM     19  O   UNL     1       6.113   3.560  15.478  0.00  0.00    +0.000 OA
BRANCH  18  20
ATOM     20  O   UNL     1       7.381   5.425  15.584  0.00  0.00    +0.000 OA
ATOM     21  H   UNL     1       7.920   5.136  14.818  0.00  0.00    +0.000 HD
ENDBRANCH  18  20
ENDBRANCH  17  18
ENDBRANCH   5  17
TORSDOF 5
ENDMDL
MODEL 7
REMARK VINA RESULT:      -6.7      3.222      6.022
REMARK  Name = 
REMARK  6 active torsions:
REMARK  status: ('A' for Active; 'I' for Inactive)
REMARK    1  A    between atoms: C_1  and  C_2
REMARK    2  A    between atoms: C_6  and  N_7
REMARK    3  A    between atoms: N_7  and  C_8
REMARK    4  A    between atoms: N_12  and  C_13
REMARK    5  A    between atoms: C_13  and  C_14
REMARK    6  A    between atoms: C_14  and  O_16
REMARK                            x       y       z     vdW  Elec       q    Type
REMARK                         _______ _______ _______ _____ _____    ______ ____
ROOT
ATOM      1  C   UNL     1       2.508   5.954  18.123  0.00  0.00    +0.000 C 
ATOM      2  S   UNL     1       2.297   6.376  19.871  0.00  0.00    +0.000 S 
ATOM      3  C   UNL     1       2.352   4.710  20.384  0.00  0.00    +0.000 C 
ATOM      4  O   UNL     1       2.572   4.395  21.542  0.00  0.00    +0.000 OA
ATOM      5  N   UNL     1       2.254   3.868  19.325  0.00  0.00    +0.000 N 
ATOM      6  C   UNL     1       2.579   4.423  18.108  0.00  0.00    +0.000 C 
ATOM      7  O   UNL     1       2.943   3.753  17.136  0.00  0.00    +0.000 OA
ENDROOT
BRANCH   1   8
ATOM      8  N   UNL     1       3.714   6.621  17.627  0.00  0.00    +0.000 N 
ATOM      9  H   UNL     1       3.880   7.541  18.023  0.00  0.00    +0.000 HD
BRANCH   8  15
ATOM     10  C   UNL     1       6.930   4.787  14.290  0.00  0.00    +0.000 C 
ATOM     11  C   UNL     1       6.553   5.086  15.712  0.00  0.00    +0.000 A 
ATOM     12  C   UNL     1       7.391   4.718  16.766  0.00  0.00    +0.000 A 
ATOM     13  C   UNL     1       7.007   4.987  18.075  0.00  0.00    +0.000 A 
ATOM     14  C   UNL     1       5.775   5.604  18.332  0.00  0.00    +0.000 A 
ATOM     15  C   UNL     1       4.894   5.959  17.297  0.00  0.00    +0.000 A 
ATOM     16  C   UNL     1       5.326   5.721  15.988  0.00  0.00    +0.000 A 
ENDBRANCH   8  15
ENDBRANCH   1   8
BRANCH   5  17
ATOM     17  C   UNL     1       2.338   2.417  19.502  0.00  0.00    +0.000 C 
BRANCH  17  18
ATOM     18  C   UNL     1       3.728   1.808  19.379  0.00  0.00    +0.000 C 
ATOM     19  O   UNL     1       4.674   2.010  20.130  0.00  0.00    +0.000 OA
BRANCH  18  20
ATOM     20  O   UNL     1       3.839   0.981  18.302  0.00  0.00    +0.000 OA
ATOM     21  H   UNL     1       4.150   1.409  17.477  0.00  0.00    +0.000 HD
ENDBRANCH  18  20
ENDBRANCH  17  18
ENDBRANCH   5  17
TORSDOF 5
ENDMDL
MODEL 8
REMARK VINA RESULT:      -6.7      2.760      6.226
REMARK  Name = 
REMARK  6 active torsions:
REMARK  status: ('A' for Active; 'I' for Inactive)
REMARK    1  A    between atoms: C_1  and  C_2
REMARK    2  A    between atoms: C_6  and  N_7
REMARK    3  A    between atoms: N_7  and  C_8
REMARK    4  A    between atoms: N_12  and  C_13
REMARK    5  A    between atoms: C_13  and  C_14
REMARK    6  A    between atoms: C_14  and  O_16
REMARK                            x       y       z     vdW  Elec       q    Type
REMARK                         _______ _______ _______ _____ _____    ______ ____
ROOT
ATOM      1  C   UNL     1       3.699   4.639  16.957  0.00  0.00    +0.000 C 
ATOM      2  S   UNL     1       3.253   6.041  18.011  0.00  0.00    +0.000 S 
ATOM      3  C   UNL     1       2.992   5.035  19.412  0.00  0.00    +0.000 C 
ATOM      4  O   UNL     1       2.967   5.491  20.543  0.00  0.00    +0.000 OA
ATOM      5  N   UNL     1       2.963   3.721  19.073  0.00  0.00    +0.000 N 
ATOM      6  C   UNL     1       3.564   3.417  17.872  0.00  0.00    +0.000 C 
ATOM      7  O   UNL     1       3.994   2.292  17.598  0.00  0.00    +0.000 OA
ENDROOT
BRANCH   1   8
ATOM      8  N   UNL     1       5.051   4.861  16.439  0.00  0.00    +0.000 N 
ATOM      9  H   UNL     1       5.092   5.085  15.449  0.00  0.00    +0.000 HD
BRANCH   8  15
ATOM     10  C   UNL     1       7.855   8.798  17.652  0.00  0.00    +0.000 C 
ATOM     11  C   UNL     1       7.458   7.365  17.859  0.00  0.00    +0.000 A 
ATOM     12  C   UNL     1       8.105   6.574  18.809  0.00  0.00    +0.000 A 
ATOM     13  C   UNL     1       7.733   5.243  18.964  0.00  0.00    +0.000 A 
ATOM     14  C   UNL     1       6.729   4.697  18.153  0.00  0.00    +0.000 A 
ATOM     15  C   UNL     1       6.079   5.457  17.165  0.00  0.00    +0.000 A 
ATOM     16  C   UNL     1       6.439   6.804  17.063  0.00  0.00    +0.000 A 
ENDBRANCH   8  15
ENDBRANCH   1   8
BRANCH   5  17
ATOM     17  C   UNL     1       2.818   2.681  20.092  0.00  0.00    +0.000 C 
BRANCH  17  18
ATOM     18  C   UNL     1       1.588   2.781  20.982  0.00  0.00    +0.000 C 
ATOM     19  O   UNL     1       1.537   2.517  22.177  0.00  0.00    +0.000 OA
BRANCH  18  20
ATOM     20  O   UNL     1       0.487   3.206  20.301  0.00  0.00    +0.000 OA
ATOM     21  H   UNL     1      -0.082   3.843  20.782  0.00  0.00    +0.000 HD
ENDBRANCH  18  20
ENDBRANCH  17  18
ENDBRANCH   5  17
TORSDOF 5
ENDMDL
MODEL 9
REMARK VINA RESULT:      -6.7      4.050      4.818
REMARK  Name = 
REMARK  6 active torsions:
REMARK  status: ('A' for Active; 'I' for Inactive)
REMARK    1  A    between atoms: C_1  and  C_2
REMARK    2  A    between atoms: C_6  and  N_7
REMARK    3  A    between atoms: N_7  and  C_8
REMARK    4  A    between atoms: N_12  and  C_13
REMARK    5  A    between atoms: C_13  and  C_14
REMARK    6  A    between atoms: C_14  and  O_16
REMARK                            x       y       z     vdW  Elec       q    Type
REMARK                         _______ _______ _______ _____ _____    ______ ____
ROOT
ATOM      1  C   UNL     1       2.970   6.011  17.901  0.00  0.00    +0.000 C 
ATOM      2  S   UNL     1       2.246   4.352  17.907  0.00  0.00    +0.000 S 
ATOM      3  C   UNL     1       3.745   3.587  17.448  0.00  0.00    +0.000 C 
ATOM      4  O   UNL     1       3.938   2.392  17.602  0.00  0.00    +0.000 OA
ATOM      5  N   UNL     1       4.659   4.504  17.044  0.00  0.00    +0.000 N 
ATOM      6  C   UNL     1       4.427   5.790  17.480  0.00  0.00    +0.000 C 
ATOM      7  O   UNL     1       5.315   6.643  17.572  0.00  0.00    +0.000 OA
ENDROOT
BRANCH   1   8
ATOM      8  N   UNL     1       2.807   6.592  19.236  0.00  0.00    +0.000 N 
ATOM      9  H   UNL     1       3.631   6.531  19.826  0.00  0.00    +0.000 HD
BRANCH   8  15
ATOM     10  C   UNL     1       0.083   9.402  22.322  0.00  0.00    +0.000 C 
ATOM     11  C   UNL     1       0.734   9.185  20.987  0.00  0.00    +0.000 A 
ATOM     12  C   UNL     1       0.599  10.125  19.964  0.00  0.00    +0.000 A 
ATOM     13  C   UNL     1       1.194   9.887  18.730  0.00  0.00    +0.000 A 
ATOM     14  C   UNL     1       1.906   8.701  18.512  0.00  0.00    +0.000 A 
ATOM     15  C   UNL     1       2.035   7.719  19.509  0.00  0.00    +0.000 A 
ATOM     16  C   UNL     1       1.468   8.005  20.755  0.00  0.00    +0.000 A 
ENDBRANCH   8  15
ENDBRANCH   1   8
BRANCH   5  17
ATOM     17  C   UNL     1       6.016   4.105  16.668  0.00  0.00    +0.000 C 
BRANCH  17  18
ATOM     18  C   UNL     1       6.482   4.537  15.285  0.00  0.00    +0.000 C 
ATOM     19  O   UNL     1       6.168   4.016  14.221  0.00  0.00    +0.000 OA
BRANCH  18  20
ATOM     20  O   UNL     1       7.329   5.602  15.331  0.00  0.00    +0.000 OA
ATOM     21  H   UNL     1       6.901   6.480  15.247  0.00  0.00    +0.000 HD
ENDBRANCH  18  20
ENDBRANCH  17  18
ENDBRANCH   5  17
TORSDOF 5
ENDMDL
