MODEL 1
REMARK VINA RESULT:      -6.6      0.000      0.000
REMARK  Name = 
REMARK  12 active torsions:
REMARK  status: ('A' for Active; 'I' for Inactive)
REMARK    1  A    between atoms: C_1  and  C_2
REMARK    2  A    between atoms: C_4  and  C_5
REMARK    3  A    between atoms: C_6  and  S_7
REMARK    4  A    between atoms: S_7  and  N_10
REMARK    5  A    between atoms: N_10  and  C_11
REMARK    6  A    between atoms: N_10  and  C_12
REMARK    7  A    between atoms: C_12  and  C_13
REMARK    8  A    between atoms: N_15  and  C_16
REMARK    9  A    between atoms: C_16  and  C_17
REMARK   10  A    between atoms: C_17  and  C_18
REMARK   11  A    between atoms: C_18  and  N_19
REMARK   12  A    between atoms: C_24  and  C_25
REMARK                            x       y       z     vdW  Elec       q    Type
REMARK                         _______ _______ _______ _____ _____    ______ ____
ROOT
ATOM      1  N   UNL     1       6.525   6.547  17.836  0.00  0.00    +0.000 NA
ATOM      2  C   UNL     1       6.647   5.609  18.980  0.00  0.00    +0.000 C 
ENDROOT
BRANCH   1   3
ATOM      3  S   UNL     1       5.715   5.891  16.469  0.00  0.00    +0.000 S 
ATOM      4  O   UNL     1       6.607   4.902  15.909  0.00  0.00    +0.000 OA
ATOM      5  O   UNL     1       5.279   7.006  15.645  0.00  0.00    +0.000 OA
BRANCH   3  11
ATOM      6  C   UNL     1       0.994   3.065  19.192  0.00  0.00    +0.000 C 
ATOM      7  C   UNL     1       2.106   3.758  18.459  0.00  0.00    +0.000 A 
ATOM      8  C   UNL     1       3.056   3.047  17.732  0.00  0.00    +0.000 A 
ATOM      9  C   UNL     1       4.114   3.702  17.067  0.00  0.00    +0.000 A 
ATOM     10  C   UNL     1       5.079   2.830  16.304  0.00  0.00    +0.000 C 
ATOM     11  C   UNL     1       4.221   5.120  17.141  0.00  0.00    +0.000 A 
ATOM     12  C   UNL     1       3.224   5.856  17.826  0.00  0.00    +0.000 A 
ATOM     13  C   UNL     1       3.128   7.351  17.965  0.00  0.00    +0.000 C 
ATOM     14  C   UNL     1       2.203   5.148  18.502  0.00  0.00    +0.000 A 
ENDBRANCH   3  11
ENDBRANCH   1   3
BRANCH   1  15
ATOM     15  C   UNL     1       7.835   7.175  17.464  0.00  0.00    +0.000 C 
BRANCH  15  16
ATOM     16  C   UNL     1       8.002   8.624  17.917  0.00  0.00    +0.000 C 
ATOM     17  O   UNL     1       7.335   9.547  17.450  0.00  0.00    +0.000 OA
ATOM     18  N   UNL     1       8.957   8.846  18.892  0.00  0.00    +0.000 N 
ATOM     19  H   UNL     1       9.443   8.061  19.308  0.00  0.00    +0.000 HD
BRANCH  18  20
ATOM     20  C   UNL     1       9.207  10.179  19.407  0.00  0.00    +0.000 C 
BRANCH  20  21
ATOM     21  C   UNL     1      10.160  10.969  18.509  0.00  0.00    +0.000 C 
BRANCH  21  22
ATOM     22  C   UNL     1      11.057  11.886  19.336  0.00  0.00    +0.000 C 
BRANCH  22  23
ATOM     23  N   UNL     1      11.061  13.252  18.849  0.00  0.00    +0.000 N 
ATOM     24  C   UNL     1      11.791  14.288  19.360  0.00  0.00    +0.000 A 
ATOM     25  C   UNL     1      11.493  15.363  18.552  0.00  0.00    +0.000 A 
ATOM     26  N   UNL     1      10.612  14.998  17.569  0.00  0.00    +0.000 NA
ATOM     27  C   UNL     1      10.372  13.723  17.764  0.00  0.00    +0.000 A 
ENDBRANCH  22  23
ENDBRANCH  21  22
ENDBRANCH  20  21
ENDBRANCH  18  20
ENDBRANCH  15  16
ENDBRANCH   1  15
TORSDOF 8
ENDMDL
MODEL 2
REMARK VINA RESULT:      -6.6      5.124      7.504
REMARK  Name = 
REMARK  12 active torsions:
REMARK  status: ('A' for Active; 'I' for Inactive)
REMARK    1  A    between atoms: C_1  and  C_2
REMARK    2  A    between atoms: C_4  and  C_5
REMARK    3  A    between atoms: C_6  and  S_7
REMARK    4  A    between atoms: S_7  and  N_10
REMARK    5  A    between atoms: N_10  and  C_11
REMARK    6  A    between atoms: N_10  and  C_12
REMARK    7  A    between atoms: C_12  and  C_13
REMARK    8  A    between atoms: N_15  and  C_16
REMARK    9  A    between atoms: C_16  and  C_17
REMARK   10  A    between atoms: C_17  and  C_18
REMARK   11  A    between atoms: C_18  and  N_19
REMARK   12  A    between atoms: C_24  and  C_25
REMARK                            x       y       z     vdW  Elec       q    Type
REMARK                         _______ _______ _______ _____ _____    ______ ____
ROOT
ATOM      1  N   UNL     1       4.159   5.655  19.486  0.00  0.00    +0.000 NA
ATOM      2  C   UNL     1       3.624   6.329  18.276  0.00  0.00    +0.000 C 
ENDROOT
BRANCH   1   3
ATOM      3  S   UNL     1       5.568   4.712  19.204  0.00  0.00    +0.000 S 
ATOM      4  O   UNL     1       5.287   3.398  19.734  0.00  0.00    +0.000 OA
ATOM      5  O   UNL     1       6.703   5.461  19.718  0.00  0.00    +0.000 OA
BRANCH   3  11
ATOM      6  C   UNL     1       6.690   4.279  13.183  0.00  0.00    +0.000 C 
ATOM      7  C   UNL     1       6.363   4.443  14.639  0.00  0.00    +0.000 A 
ATOM      8  C   UNL     1       7.025   5.373  15.436  0.00  0.00    +0.000 A 
ATOM      9  C   UNL     1       6.733   5.505  16.810  0.00  0.00    +0.000 A 
ATOM     10  C   UNL     1       7.507   6.550  17.571  0.00  0.00    +0.000 C 
ATOM     11  C   UNL     1       5.744   4.668  17.402  0.00  0.00    +0.000 A 
ATOM     12  C   UNL     1       5.022   3.763  16.586  0.00  0.00    +0.000 A 
ATOM     13  C   UNL     1       3.908   2.845  17.009  0.00  0.00    +0.000 C 
ATOM     14  C   UNL     1       5.376   3.649  15.222  0.00  0.00    +0.000 A 
ENDBRANCH   3  11
ENDBRANCH   1   3
BRANCH   1  15
ATOM     15  C   UNL     1       3.107   4.884  20.226  0.00  0.00    +0.000 C 
BRANCH  15  16
ATOM     16  C   UNL     1       1.831   5.667  20.525  0.00  0.00    +0.000 C 
ATOM     17  O   UNL     1       0.709   5.167  20.441  0.00  0.00    +0.000 OA
ATOM     18  N   UNL     1       2.005   6.987  20.900  0.00  0.00    +0.000 N 
ATOM     19  H   UNL     1       2.940   7.354  21.028  0.00  0.00    +0.000 HD
BRANCH  18  20
ATOM     20  C   UNL     1       0.869   7.834  21.213  0.00  0.00    +0.000 C 
BRANCH  20  21
ATOM     21  C   UNL     1       1.267   9.023  22.087  0.00  0.00    +0.000 C 
BRANCH  21  22
ATOM     22  C   UNL     1       0.176  10.090  22.089  0.00  0.00    +0.000 C 
BRANCH  22  23
ATOM     23  N   UNL     1       0.158  10.873  20.867  0.00  0.00    +0.000 N 
ATOM     24  C   UNL     1      -0.859  10.921  19.956  0.00  0.00    +0.000 A 
ATOM     25  C   UNL     1      -0.435  11.818  19.000  0.00  0.00    +0.000 A 
ATOM     26  N   UNL     1       0.801  12.313  19.318  0.00  0.00    +0.000 NA
ATOM     27  C   UNL     1       1.134  11.735  20.448  0.00  0.00    +0.000 A 
ENDBRANCH  22  23
ENDBRANCH  21  22
ENDBRANCH  20  21
ENDBRANCH  18  20
ENDBRANCH  15  16
ENDBRANCH   1  15
TORSDOF 8
ENDMDL
MODEL 3
REMARK VINA RESULT:      -6.6      2.311      3.522
REMARK  Name = 
REMARK  12 active torsions:
REMARK  status: ('A' for Active; 'I' for Inactive)
REMARK    1  A    between atoms: C_1  and  C_2
REMARK    2  A    between atoms: C_4  and  C_5
REMARK    3  A    between atoms: C_6  and  S_7
REMARK    4  A    between atoms: S_7  and  N_10
REMARK    5  A    between atoms: N_10  and  C_11
REMARK    6  A    between atoms: N_10  and  C_12
REMARK    7  A    between atoms: C_12  and  C_13
REMARK    8  A    between atoms: N_15  and  C_16
REMARK    9  A    between atoms: C_16  and  C_17
REMARK   10  A    between atoms: C_17  and  C_18
REMARK   11  A    between atoms: C_18  and  N_19
REMARK   12  A    between atoms: C_24  and  C_25
REMARK                            x       y       z     vdW  Elec       q    Type
REMARK                         _______ _______ _______ _____ _____    ______ ____
ROOT
ATOM      1  N   UNL     1       5.065   5.167  18.423  0.00  0.00    +0.000 NA
ATOM      2  C   UNL     1       6.007   4.325  19.203  0.00  0.00    +0.000 C 
ENDROOT
BRANCH   1   3
ATOM      3  S   UNL     1       3.442   4.600  18.428  0.00  0.00    +0.000 S 
ATOM      4  O   UNL     1       3.444   3.382  19.205  0.00  0.00    +0.000 OA
ATOM      5  O   UNL     1       2.990   4.563  17.047  0.00  0.00    +0.000 OA
BRANCH   3  11
ATOM      6  C   UNL     1       0.661   9.018  21.658  0.00  0.00    +0.000 C 
ATOM      7  C   UNL     1       1.271   7.924  20.832  0.00  0.00    +0.000 A 
ATOM      8  C   UNL     1       1.224   6.592  21.232  0.00  0.00    +0.000 A 
ATOM      9  C   UNL     1       1.822   5.571  20.465  0.00  0.00    +0.000 A 
ATOM     10  C   UNL     1       1.700   4.164  20.993  0.00  0.00    +0.000 C 
ATOM     11  C   UNL     1       2.497   5.904  19.254  0.00  0.00    +0.000 A 
ATOM     12  C   UNL     1       2.496   7.247  18.808  0.00  0.00    +0.000 A 
ATOM     13  C   UNL     1       3.097   7.785  17.538  0.00  0.00    +0.000 C 
ATOM     14  C   UNL     1       1.909   8.236  19.631  0.00  0.00    +0.000 A 
ENDBRANCH   3  11
ENDBRANCH   1   3
BRANCH   1  15
ATOM     15  C   UNL     1       5.557   5.447  17.035  0.00  0.00    +0.000 C 
BRANCH  15  16
ATOM     16  C   UNL     1       6.875   6.217  16.966  0.00  0.00    +0.000 C 
ATOM     17  O   UNL     1       7.655   6.115  16.019  0.00  0.00    +0.000 OA
ATOM     18  N   UNL     1       7.148   7.044  18.040  0.00  0.00    +0.000 N 
ATOM     19  H   UNL     1       6.459   7.162  18.772  0.00  0.00    +0.000 HD
BRANCH  18  20
ATOM     20  C   UNL     1       8.367   7.830  18.089  0.00  0.00    +0.000 C 
BRANCH  20  21
ATOM     21  C   UNL     1       8.090   9.325  17.928  0.00  0.00    +0.000 C 
BRANCH  21  22
ATOM     22  C   UNL     1       8.905  10.143  18.926  0.00  0.00    +0.000 C 
BRANCH  22  23
ATOM     23  N   UNL     1       9.458  11.350  18.340  0.00  0.00    +0.000 N 
ATOM     24  C   UNL     1       8.902  12.597  18.389  0.00  0.00    +0.000 A 
ATOM     25  C   UNL     1       9.800  13.411  17.734  0.00  0.00    +0.000 A 
ATOM     26  N   UNL     1      10.879  12.687  17.301  0.00  0.00    +0.000 NA
ATOM     27  C   UNL     1      10.654  11.452  17.683  0.00  0.00    +0.000 A 
ENDBRANCH  22  23
ENDBRANCH  21  22
ENDBRANCH  20  21
ENDBRANCH  18  20
ENDBRANCH  15  16
ENDBRANCH   1  15
TORSDOF 8
ENDMDL
MODEL 4
REMARK VINA RESULT:      -6.6      4.544      8.071
REMARK  Name = 
REMARK  12 active torsions:
REMARK  status: ('A' for Active; 'I' for Inactive)
REMARK    1  A    between atoms: C_1  and  C_2
REMARK    2  A    between atoms: C_4  and  C_5
REMARK    3  A    between atoms: C_6  and  S_7
REMARK    4  A    between atoms: S_7  and  N_10
REMARK    5  A    between atoms: N_10  and  C_11
REMARK    6  A    between atoms: N_10  and  C_12
REMARK    7  A    between atoms: C_12  and  C_13
REMARK    8  A    between atoms: N_15  and  C_16
REMARK    9  A    between atoms: C_16  and  C_17
REMARK   10  A    between atoms: C_17  and  C_18
REMARK   11  A    between atoms: C_18  and  N_19
REMARK   12  A    between atoms: C_24  and  C_25
REMARK                            x       y       z     vdW  Elec       q    Type
REMARK                         _______ _______ _______ _____ _____    ______ ____
ROOT
ATOM      1  N   UNL     1       3.851   5.118  18.182  0.00  0.00    +0.000 NA
ATOM      2  C   UNL     1       2.801   4.233  17.617  0.00  0.00    +0.000 C 
ENDROOT
BRANCH   1   3
ATOM      3  S   UNL     1       5.448   4.498  18.040  0.00  0.00    +0.000 S 
ATOM      4  O   UNL     1       5.478   3.742  16.809  0.00  0.00    +0.000 OA
ATOM      5  O   UNL     1       5.770   3.834  19.292  0.00  0.00    +0.000 OA
BRANCH   3  11
ATOM      6  C   UNL     1       8.613   9.758  17.995  0.00  0.00    +0.000 C 
ATOM      7  C   UNL     1       7.884   8.447  17.944  0.00  0.00    +0.000 A 
ATOM      8  C   UNL     1       6.787   8.252  17.110  0.00  0.00    +0.000 A 
ATOM      9  C   UNL     1       6.089   7.027  17.087  0.00  0.00    +0.000 A 
ATOM     10  C   UNL     1       4.922   6.929  16.138  0.00  0.00    +0.000 C 
ATOM     11  C   UNL     1       6.507   5.962  17.936  0.00  0.00    +0.000 A 
ATOM     12  C   UNL     1       7.660   6.130  18.741  0.00  0.00    +0.000 A 
ATOM     13  C   UNL     1       8.290   5.113  19.653  0.00  0.00    +0.000 C 
ATOM     14  C   UNL     1       8.303   7.389  18.751  0.00  0.00    +0.000 A 
ENDBRANCH   3  11
ENDBRANCH   1   3
BRANCH   1  15
ATOM     15  C   UNL     1       3.543   5.556  19.582  0.00  0.00    +0.000 C 
BRANCH  15  16
ATOM     16  C   UNL     1       2.520   6.685  19.690  0.00  0.00    +0.000 C 
ATOM     17  O   UNL     1       2.334   7.501  18.786  0.00  0.00    +0.000 OA
ATOM     18  N   UNL     1       1.805   6.743  20.872  0.00  0.00    +0.000 N 
ATOM     19  H   UNL     1       1.929   6.021  21.570  0.00  0.00    +0.000 HD
BRANCH  18  20
ATOM     20  C   UNL     1       0.803   7.769  21.092  0.00  0.00    +0.000 C 
BRANCH  20  21
ATOM     21  C   UNL     1       1.379   8.984  21.819  0.00  0.00    +0.000 C 
BRANCH  21  22
ATOM     22  C   UNL     1       0.951  10.282  21.139  0.00  0.00    +0.000 C 
BRANCH  22  23
ATOM     23  N   UNL     1      -0.198  10.896  21.778  0.00  0.00    +0.000 N 
ATOM     24  C   UNL     1      -0.761  10.513  22.962  0.00  0.00    +0.000 A 
ATOM     25  C   UNL     1      -1.789  11.407  23.170  0.00  0.00    +0.000 A 
ATOM     26  N   UNL     1      -1.850  12.317  22.149  0.00  0.00    +0.000 NA
ATOM     27  C   UNL     1      -0.879  11.994  21.328  0.00  0.00    +0.000 A 
ENDBRANCH  22  23
ENDBRANCH  21  22
ENDBRANCH  20  21
ENDBRANCH  18  20
ENDBRANCH  15  16
ENDBRANCH   1  15
TORSDOF 8
ENDMDL
MODEL 5
REMARK VINA RESULT:      -6.5      1.553      1.694
REMARK  Name = 
REMARK  12 active torsions:
REMARK  status: ('A' for Active; 'I' for Inactive)
REMARK    1  A    between atoms: C_1  and  C_2
REMARK    2  A    between atoms: C_4  and  C_5
REMARK    3  A    between atoms: C_6  and  S_7
REMARK    4  A    between atoms: S_7  and  N_10
REMARK    5  A    between atoms: N_10  and  C_11
REMARK    6  A    between atoms: N_10  and  C_12
REMARK    7  A    between atoms: C_12  and  C_13
REMARK    8  A    between atoms: N_15  and  C_16
REMARK    9  A    between atoms: C_16  and  C_17
REMARK   10  A    between atoms: C_17  and  C_18
REMARK   11  A    between atoms: C_18  and  N_19
REMARK   12  A    between atoms: C_24  and  C_25
REMARK                            x       y       z     vdW  Elec       q    Type
REMARK                         _______ _______ _______ _____ _____    ______ ____
ROOT
ATOM      1  N   UNL     1       6.146   5.572  17.528  0.00  0.00    +0.000 NA
ATOM      2  C   UNL     1       7.097   4.442  17.368  0.00  0.00    +0.000 C 
ENDROOT
BRANCH   1   3
ATOM      3  S   UNL     1       4.588   5.282  16.864  0.00  0.00    +0.000 S 
ATOM      4  O   UNL     1       4.767   4.281  15.838  0.00  0.00    +0.000 OA
ATOM      5  O   UNL     1       4.019   6.572  16.509  0.00  0.00    +0.000 OA
BRANCH   3  11
ATOM      6  C   UNL     1       1.786   2.976  21.816  0.00  0.00    +0.000 C 
ATOM      7  C   UNL     1       2.403   3.530  20.565  0.00  0.00    +0.000 A 
ATOM      8  C   UNL     1       2.997   2.703  19.615  0.00  0.00    +0.000 A 
ATOM      9  C   UNL     1       3.599   3.231  18.454  0.00  0.00    +0.000 A 
ATOM     10  C   UNL     1       4.204   2.239  17.493  0.00  0.00    +0.000 C 
ATOM     11  C   UNL     1       3.607   4.640  18.244  0.00  0.00    +0.000 A 
ATOM     12  C   UNL     1       2.951   5.483  19.173  0.00  0.00    +0.000 A 
ATOM     13  C   UNL     1       2.800   6.978  19.097  0.00  0.00    +0.000 C 
ATOM     14  C   UNL     1       2.391   4.905  20.335  0.00  0.00    +0.000 A 
ENDBRANCH   3  11
ENDBRANCH   1   3
BRANCH   1  15
ATOM     15  C   UNL     1       6.721   6.876  17.063  0.00  0.00    +0.000 C 
BRANCH  15  16
ATOM     16  C   UNL     1       7.709   7.523  18.032  0.00  0.00    +0.000 C 
ATOM     17  O   UNL     1       8.200   6.915  18.984  0.00  0.00    +0.000 OA
ATOM     18  N   UNL     1       8.027   8.844  17.779  0.00  0.00    +0.000 N 
ATOM     19  H   UNL     1       7.663   9.299  16.951  0.00  0.00    +0.000 HD
BRANCH  18  20
ATOM     20  C   UNL     1       8.957   9.567  18.626  0.00  0.00    +0.000 C 
BRANCH  20  21
ATOM     21  C   UNL     1       9.507  10.815  17.936  0.00  0.00    +0.000 C 
BRANCH  21  22
ATOM     22  C   UNL     1       9.702  11.952  18.935  0.00  0.00    +0.000 C 
BRANCH  22  23
ATOM     23  N   UNL     1      10.376  13.098  18.354  0.00  0.00    +0.000 N 
ATOM     24  C   UNL     1      11.048  13.119  17.165  0.00  0.00    +0.000 A 
ATOM     25  C   UNL     1      11.477  14.421  17.025  0.00  0.00    +0.000 A 
ATOM     26  N   UNL     1      11.076  15.179  18.092  0.00  0.00    +0.000 NA
ATOM     27  C   UNL     1      10.410  14.363  18.875  0.00  0.00    +0.000 A 
ENDBRANCH  22  23
ENDBRANCH  21  22
ENDBRANCH  20  21
ENDBRANCH  18  20
ENDBRANCH  15  16
ENDBRANCH   1  15
TORSDOF 8
ENDMDL
MODEL 6
REMARK VINA RESULT:      -6.4      5.609      7.178
REMARK  Name = 
REMARK  12 active torsions:
REMARK  status: ('A' for Active; 'I' for Inactive)
REMARK    1  A    between atoms: C_1  and  C_2
REMARK    2  A    between atoms: C_4  and  C_5
REMARK    3  A    between atoms: C_6  and  S_7
REMARK    4  A    between atoms: S_7  and  N_10
REMARK    5  A    between atoms: N_10  and  C_11
REMARK    6  A    between atoms: N_10  and  C_12
REMARK    7  A    between atoms: C_12  and  C_13
REMARK    8  A    between atoms: N_15  and  C_16
REMARK    9  A    between atoms: C_16  and  C_17
REMARK   10  A    between atoms: C_17  and  C_18
REMARK   11  A    between atoms: C_18  and  N_19
REMARK   12  A    between atoms: C_24  and  C_25
REMARK                            x       y       z     vdW  Elec       q    Type
REMARK                         _______ _______ _______ _____ _____    ______ ____
ROOT
ATOM      1  N   UNL     1       3.829   3.678  19.672  0.00  0.00    +0.000 NA
ATOM      2  C   UNL     1       4.418   2.316  19.726  0.00  0.00    +0.000 C 
ENDROOT
BRANCH   1   3
ATOM      3  S   UNL     1       4.927   4.901  19.168  0.00  0.00    +0.000 S 
ATOM      4  O   UNL     1       6.052   4.830  20.072  0.00  0.00    +0.000 OA
ATOM      5  O   UNL     1       4.177   6.141  19.060  0.00  0.00    +0.000 OA
BRANCH   3  11
ATOM      6  C   UNL     1       6.332   3.839  13.287  0.00  0.00    +0.000 C 
ATOM      7  C   UNL     1       5.993   4.020  14.738  0.00  0.00    +0.000 A 
ATOM      8  C   UNL     1       4.683   3.932  15.199  0.00  0.00    +0.000 A 
ATOM      9  C   UNL     1       4.367   4.129  16.559  0.00  0.00    +0.000 A 
ATOM     10  C   UNL     1       2.915   4.001  16.944  0.00  0.00    +0.000 C 
ATOM     11  C   UNL     1       5.406   4.430  17.487  0.00  0.00    +0.000 A 
ATOM     12  C   UNL     1       6.748   4.460  17.038  0.00  0.00    +0.000 A 
ATOM     13  C   UNL     1       7.981   4.700  17.867  0.00  0.00    +0.000 C 
ATOM     14  C   UNL     1       7.006   4.287  15.658  0.00  0.00    +0.000 A 
ENDBRANCH   3  11
ENDBRANCH   1   3
BRANCH   1  15
ATOM     15  C   UNL     1       3.121   4.049  20.941  0.00  0.00    +0.000 C 
BRANCH  15  16
ATOM     16  C   UNL     1       1.871   4.905  20.749  0.00  0.00    +0.000 C 
ATOM     17  O   UNL     1       0.785   4.431  20.415  0.00  0.00    +0.000 OA
ATOM     18  N   UNL     1       2.027   6.261  20.972  0.00  0.00    +0.000 N 
ATOM     19  H   UNL     1       2.912   6.616  21.312  0.00  0.00    +0.000 HD
BRANCH  18  20
ATOM     20  C   UNL     1       0.912   7.178  20.825  0.00  0.00    +0.000 C 
BRANCH  20  21
ATOM     21  C   UNL     1       1.206   8.540  21.455  0.00  0.00    +0.000 C 
BRANCH  21  22
ATOM     22  C   UNL     1       0.165   9.574  21.033  0.00  0.00    +0.000 C 
BRANCH  22  23
ATOM     23  N   UNL     1       0.744  10.682  20.296  0.00  0.00    +0.000 N 
ATOM     24  C   UNL     1       1.054  11.912  20.804  0.00  0.00    +0.000 A 
ATOM     25  C   UNL     1       1.607  12.601  19.746  0.00  0.00    +0.000 A 
ATOM     26  N   UNL     1       1.642  11.816  18.625  0.00  0.00    +0.000 NA
ATOM     27  C   UNL     1       1.125  10.665  18.982  0.00  0.00    +0.000 A 
ENDBRANCH  22  23
ENDBRANCH  21  22
ENDBRANCH  20  21
ENDBRANCH  18  20
ENDBRANCH  15  16
ENDBRANCH   1  15
TORSDOF 8
ENDMDL
MODEL 7
REMARK VINA RESULT:      -6.4      1.064      2.085
REMARK  Name = 
REMARK  12 active torsions:
REMARK  status: ('A' for Active; 'I' for Inactive)
REMARK    1  A    between atoms: C_1  and  C_2
REMARK    2  A    between atoms: C_4  and  C_5
REMARK    3  A    between atoms: C_6  and  S_7
REMARK    4  A    between atoms: S_7  and  N_10
REMARK    5  A    between atoms: N_10  and  C_11
REMARK    6  A    between atoms: N_10  and  C_12
REMARK    7  A    between atoms: C_12  and  C_13
REMARK    8  A    between atoms: N_15  and  C_16
REMARK    9  A    between atoms: C_16  and  C_17
REMARK   10  A    between atoms: C_17  and  C_18
REMARK   11  A    between atoms: C_18  and  N_19
REMARK   12  A    between atoms: C_24  and  C_25
REMARK                            x       y       z     vdW  Elec       q    Type
REMARK                         _______ _______ _______ _____ _____    ______ ____
ROOT
ATOM      1  N   UNL     1       6.583   6.852  17.766  0.00  0.00    +0.000 NA
ATOM      2  C   UNL     1       6.848   5.815  18.795  0.00  0.00    +0.000 C 
ENDROOT
BRANCH   1   3
ATOM      3  S   UNL     1       5.660   6.297  16.427  0.00  0.00    +0.000 S 
ATOM      4  O   UNL     1       6.569   5.538  15.598  0.00  0.00    +0.000 OA
ATOM      5  O   UNL     1       4.974   7.448  15.864  0.00  0.00    +0.000 OA
BRANCH   3  11
ATOM      6  C   UNL     1       0.976   2.879  18.445  0.00  0.00    +0.000 C 
ATOM      7  C   UNL     1       2.155   3.707  18.023  0.00  0.00    +0.000 A 
ATOM      8  C   UNL     1       2.202   5.080  18.247  0.00  0.00    +0.000 A 
ATOM      9  C   UNL     1       3.301   5.857  17.825  0.00  0.00    +0.000 A 
ATOM     10  C   UNL     1       3.245   7.333  18.128  0.00  0.00    +0.000 C 
ATOM     11  C   UNL     1       4.388   5.231  17.150  0.00  0.00    +0.000 A 
ATOM     12  C   UNL     1       4.378   3.826  16.974  0.00  0.00    +0.000 A 
ATOM     13  C   UNL     1       5.450   2.979  16.344  0.00  0.00    +0.000 C 
ATOM     14  C   UNL     1       3.237   3.099  17.388  0.00  0.00    +0.000 A 
ENDBRANCH   3  11
ENDBRANCH   1   3
BRANCH   1  15
ATOM     15  C   UNL     1       7.830   7.562  17.331  0.00  0.00    +0.000 C 
BRANCH  15  16
ATOM     16  C   UNL     1       8.011   8.958  17.925  0.00  0.00    +0.000 C 
ATOM     17  O   UNL     1       7.347   9.928  17.558  0.00  0.00    +0.000 OA
ATOM     18  N   UNL     1       8.975   9.076  18.909  0.00  0.00    +0.000 N 
ATOM     19  H   UNL     1       9.459   8.250  19.240  0.00  0.00    +0.000 HD
BRANCH  18  20
ATOM     20  C   UNL     1       9.239  10.350  19.552  0.00  0.00    +0.000 C 
BRANCH  20  21
ATOM     21  C   UNL     1      10.509  11.009  19.015  0.00  0.00    +0.000 C 
BRANCH  21  22
ATOM     22  C   UNL     1      10.201  11.885  17.804  0.00  0.00    +0.000 C 
BRANCH  22  23
ATOM     23  N   UNL     1       9.412  13.053  18.145  0.00  0.00    +0.000 N 
ATOM     24  C   UNL     1       9.801  14.077  18.962  0.00  0.00    +0.000 A 
ATOM     25  C   UNL     1       8.743  14.960  18.950  0.00  0.00    +0.000 A 
ATOM     26  N   UNL     1       7.737  14.496  18.145  0.00  0.00    +0.000 NA
ATOM     27  C   UNL     1       8.165  13.352  17.667  0.00  0.00    +0.000 A 
ENDBRANCH  22  23
ENDBRANCH  21  22
ENDBRANCH  20  21
ENDBRANCH  18  20
ENDBRANCH  15  16
ENDBRANCH   1  15
TORSDOF 8
ENDMDL
MODEL 8
REMARK VINA RESULT:      -6.4      5.542      7.577
REMARK  Name = 
REMARK  12 active torsions:
REMARK  status: ('A' for Active; 'I' for Inactive)
REMARK    1  A    between atoms: C_1  and  C_2
REMARK    2  A    between atoms: C_4  and  C_5
REMARK    3  A    between atoms: C_6  and  S_7
REMARK    4  A    between atoms: S_7  and  N_10
REMARK    5  A    between atoms: N_10  and  C_11
REMARK    6  A    between atoms: N_10  and  C_12
REMARK    7  A    between atoms: C_12  and  C_13
REMARK    8  A    between atoms: N_15  and  C_16
REMARK    9  A    between atoms: C_16  and  C_17
REMARK   10  A    between atoms: C_17  and  C_18
REMARK   11  A    between atoms: C_18  and  N_19
REMARK   12  A    between atoms: C_24  and  C_25
REMARK                            x       y       z     vdW  Elec       q    Type
REMARK                         _______ _______ _______ _____ _____    ______ ____
ROOT
ATOM      1  N   UNL     1       3.949   6.352  18.949  0.00  0.00    +0.000 NA
ATOM      2  C   UNL     1       4.069   6.932  17.588  0.00  0.00    +0.000 C 
ENDROOT
BRANCH   1   3
ATOM      3  S   UNL     1       4.731   4.834  19.141  0.00  0.00    +0.000 S 
ATOM      4  O   UNL     1       3.714   3.910  19.588  0.00  0.00    +0.000 OA
ATOM      5  O   UNL     1       5.908   5.052  19.967  0.00  0.00    +0.000 OA
BRANCH   3  11
ATOM      6  C   UNL     1       6.424   3.848  13.323  0.00  0.00    +0.000 C 
ATOM      7  C   UNL     1       6.031   4.014  14.762  0.00  0.00    +0.000 A 
ATOM      8  C   UNL     1       4.760   3.673  15.217  0.00  0.00    +0.000 A 
ATOM      9  C   UNL     1       4.388   3.856  16.565  0.00  0.00    +0.000 A 
ATOM     10  C   UNL     1       2.988   3.443  16.944  0.00  0.00    +0.000 C 
ATOM     11  C   UNL     1       5.325   4.406  17.486  0.00  0.00    +0.000 A 
ATOM     12  C   UNL     1       6.639   4.697  17.046  0.00  0.00    +0.000 A 
ATOM     13  C   UNL     1       7.781   5.223  17.873  0.00  0.00    +0.000 C 
ATOM     14  C   UNL     1       6.950   4.525  15.677  0.00  0.00    +0.000 A 
ENDBRANCH   3  11
ENDBRANCH   1   3
BRANCH   1  15
ATOM     15  C   UNL     1       2.531   6.318  19.436  0.00  0.00    +0.000 C 
BRANCH  15  16
ATOM     16  C   UNL     1       2.008   7.646  19.980  0.00  0.00    +0.000 C 
ATOM     17  O   UNL     1       1.783   8.617  19.257  0.00  0.00    +0.000 OA
ATOM     18  N   UNL     1       1.799   7.700  21.345  0.00  0.00    +0.000 N 
ATOM     19  H   UNL     1       1.927   6.867  21.907  0.00  0.00    +0.000 HD
BRANCH  18  20
ATOM     20  C   UNL     1       1.302   8.906  21.981  0.00  0.00    +0.000 C 
BRANCH  20  21
ATOM     21  C   UNL     1      -0.220   9.015  21.886  0.00  0.00    +0.000 C 
BRANCH  21  22
ATOM     22  C   UNL     1      -0.664  10.475  21.868  0.00  0.00    +0.000 C 
BRANCH  22  23
ATOM     23  N   UNL     1      -0.640  11.051  20.536  0.00  0.00    +0.000 N 
ATOM     24  C   UNL     1      -0.121  12.267  20.194  0.00  0.00    +0.000 A 
ATOM     25  C   UNL     1      -0.294  12.354  18.830  0.00  0.00    +0.000 A 
ATOM     26  N   UNL     1      -0.895  11.222  18.347  0.00  0.00    +0.000 NA
ATOM     27  C   UNL     1      -1.086  10.451  19.391  0.00  0.00    +0.000 A 
ENDBRANCH  22  23
ENDBRANCH  21  22
ENDBRANCH  20  21
ENDBRANCH  18  20
ENDBRANCH  15  16
ENDBRANCH   1  15
TORSDOF 8
ENDMDL
MODEL 9
REMARK VINA RESULT:      -6.4      6.172      9.470
REMARK  Name = 
REMARK  12 active torsions:
REMARK  status: ('A' for Active; 'I' for Inactive)
REMARK    1  A    between atoms: C_1  and  C_2
REMARK    2  A    between atoms: C_4  and  C_5
REMARK    3  A    between atoms: C_6  and  S_7
REMARK    4  A    between atoms: S_7  and  N_10
REMARK    5  A    between atoms: N_10  and  C_11
REMARK    6  A    between atoms: N_10  and  C_12
REMARK    7  A    between atoms: C_12  and  C_13
REMARK    8  A    between atoms: N_15  and  C_16
REMARK    9  A    between atoms: C_16  and  C_17
REMARK   10  A    between atoms: C_17  and  C_18
REMARK   11  A    between atoms: C_18  and  N_19
REMARK   12  A    between atoms: C_24  and  C_25
REMARK                            x       y       z     vdW  Elec       q    Type
REMARK                         _______ _______ _______ _____ _____    ______ ____
ROOT
ATOM      1  N   UNL     1       0.342  10.082  19.577  0.00  0.00    +0.000 NA
ATOM      2  C   UNL     1      -0.846  10.376  18.736  0.00  0.00    +0.000 C 
ENDROOT
BRANCH   1   3
ATOM      3  S   UNL     1       0.832  11.386  20.584  0.00  0.00    +0.000 S 
ATOM      4  O   UNL     1       1.314  12.420  19.699  0.00  0.00    +0.000 OA
ATOM      5  O   UNL     1       1.723  10.843  21.597  0.00  0.00    +0.000 OA
BRANCH   3  11
ATOM      6  C   UNL     1      -3.932  13.318  23.940  0.00  0.00    +0.000 C 
ATOM      7  C   UNL     1      -2.819  12.802  23.076  0.00  0.00    +0.000 A 
ATOM      8  C   UNL     1      -2.168  11.605  23.360  0.00  0.00    +0.000 A 
ATOM      9  C   UNL     1      -1.104  11.138  22.561  0.00  0.00    +0.000 A 
ATOM     10  C   UNL     1      -0.481   9.824  22.960  0.00  0.00    +0.000 C 
ATOM     11  C   UNL     1      -0.677  11.905  21.439  0.00  0.00    +0.000 A 
ATOM     12  C   UNL     1      -1.373  13.093  21.106  0.00  0.00    +0.000 A 
ATOM     13  C   UNL     1      -1.115  14.003  19.936  0.00  0.00    +0.000 C 
ATOM     14  C   UNL     1      -2.412  13.532  21.959  0.00  0.00    +0.000 A 
ENDBRANCH   3  11
ENDBRANCH   1   3
BRANCH   1  15
ATOM     15  C   UNL     1       1.486   9.526  18.784  0.00  0.00    +0.000 C 
BRANCH  15  16
ATOM     16  C   UNL     1       1.930   8.124  19.196  0.00  0.00    +0.000 C 
ATOM     17  O   UNL     1       1.871   7.724  20.359  0.00  0.00    +0.000 OA
ATOM     18  N   UNL     1       2.408   7.318  18.180  0.00  0.00    +0.000 N 
ATOM     19  H   UNL     1       2.382   7.647  17.223  0.00  0.00    +0.000 HD
BRANCH  18  20
ATOM     20  C   UNL     1       2.857   5.964  18.445  0.00  0.00    +0.000 C 
BRANCH  20  21
ATOM     21  C   UNL     1       4.382   5.859  18.452  0.00  0.00    +0.000 C 
BRANCH  21  22
ATOM     22  C   UNL     1       4.843   4.550  17.816  0.00  0.00    +0.000 C 
BRANCH  22  23
ATOM     23  N   UNL     1       5.790   4.757  16.736  0.00  0.00    +0.000 N 
ATOM     24  C   UNL     1       5.944   3.961  15.637  0.00  0.00    +0.000 A 
ATOM     25  C   UNL     1       6.923   4.577  14.888  0.00  0.00    +0.000 A 
ATOM     26  N   UNL     1       7.353   5.721  15.505  0.00  0.00    +0.000 NA
ATOM     27  C   UNL     1       6.652   5.812  16.611  0.00  0.00    +0.000 A 
ENDBRANCH  22  23
ENDBRANCH  21  22
ENDBRANCH  20  21
ENDBRANCH  18  20
ENDBRANCH  15  16
ENDBRANCH   1  15
TORSDOF 8
ENDMDL
