MODEL 1
REMARK VINA RESULT:      -8.8      0.000      0.000
REMARK  Name = 
REMARK  3 active torsions:
REMARK  status: ('A' for Active; 'I' for Inactive)
REMARK    1  A    between atoms: C_2  and  C_3
REMARK    2  A    between atoms: C_3  and  N_4
REMARK    3  A    between atoms: N_14  and  C_15
REMARK                            x       y       z     vdW  Elec       q    Type
REMARK                         _______ _______ _______ _____ _____    ______ ____
ROOT
ATOM      1  O   UNL     1       6.507   5.549  19.512  0.00  0.00    +0.000 OA
ATOM      2  C   UNL     1       6.488   4.693  18.628  0.00  0.00    +0.000 C 
ATOM      3  N   UNL     1       5.494   3.746  18.446  0.00  0.00    +0.000 N 
ATOM      4  H   UNL     1       5.733   2.920  17.898  0.00  0.00    +0.000 HD
ENDROOT
BRANCH   3   5
ATOM      5  C   UNL     1       4.248   3.700  19.125  0.00  0.00    +0.000 A 
ATOM      6  C   UNL     1       3.929   2.739  20.094  0.00  0.00    +0.000 A 
ATOM      7  F   UNL     1       4.849   1.886  20.567  0.00  0.00    +0.000 F 
ATOM      8  C   UNL     1       2.674   2.688  20.693  0.00  0.00    +0.000 A 
ATOM      9  C   UNL     1       1.726   3.638  20.355  0.00  0.00    +0.000 A 
ATOM     10  F   UNL     1       0.516   3.595  20.926  0.00  0.00    +0.000 F 
ATOM     11  C   UNL     1       2.020   4.651  19.451  0.00  0.00    +0.000 A 
ATOM     12  C   UNL     1       3.281   4.684  18.846  0.00  0.00    +0.000 A 
ATOM     13 BR   UNL     1       3.622   6.097  17.615  0.00  0.00    +0.000 Br
ENDBRANCH   3   5
BRANCH   2  14
ATOM     14  C   UNL     1       7.653   4.567  17.679  0.00  0.00    +0.000 C 
BRANCH  14  15
ATOM     15  N   UNL     1       7.199   4.485  16.309  0.00  0.00    +0.000 N 
ATOM     16  C   UNL     1       6.054   3.903  15.854  0.00  0.00    +0.000 A 
ATOM     17  C   UNL     1       6.001   4.152  14.498  0.00  0.00    +0.000 A 
ATOM     18  C   UNL     1       7.172   4.911  14.237  0.00  0.00    +0.000 A 
ATOM     19  N   UNL     1       7.907   5.093  15.342  0.00  0.00    +0.000 NA
ATOM     20  C   UNL     1       7.608   5.524  12.953  0.00  0.00    +0.000 C 
ATOM     21  C   UNL     1       7.431   4.685  11.685  0.00  0.00    +0.000 C 
ATOM     22  C   UNL     1       6.845   3.283  11.828  0.00  0.00    +0.000 C 
ATOM     23  C   UNL     1       5.355   3.272  12.166  0.00  0.00    +0.000 C 
ATOM     24  C   UNL     1       4.923   3.757  13.553  0.00  0.00    +0.000 C 
ENDBRANCH  14  15
ENDBRANCH   2  14
TORSDOF 3
ENDMDL
MODEL 2
REMARK VINA RESULT:      -8.5      1.613      1.896
REMARK  Name = 
REMARK  3 active torsions:
REMARK  status: ('A' for Active; 'I' for Inactive)
REMARK    1  A    between atoms: C_2  and  C_3
REMARK    2  A    between atoms: C_3  and  N_4
REMARK    3  A    between atoms: N_14  and  C_15
REMARK                            x       y       z     vdW  Elec       q    Type
REMARK                         _______ _______ _______ _____ _____    ______ ____
ROOT
ATOM      1  O   UNL     1       5.835   5.666  19.171  0.00  0.00    +0.000 OA
ATOM      2  C   UNL     1       6.002   4.685  18.446  0.00  0.00    +0.000 C 
ATOM      3  N   UNL     1       5.154   3.593  18.363  0.00  0.00    +0.000 N 
ATOM      4  H   UNL     1       5.542   2.731  17.981  0.00  0.00    +0.000 HD
ENDROOT
BRANCH   3   5
ATOM      5  C   UNL     1       3.869   3.483  18.957  0.00  0.00    +0.000 A 
ATOM      6  C   UNL     1       2.741   4.175  18.496  0.00  0.00    +0.000 A 
ATOM      7  F   UNL     1       2.764   4.872  17.351  0.00  0.00    +0.000 F 
ATOM      8  C   UNL     1       1.512   4.091  19.143  0.00  0.00    +0.000 A 
ATOM      9  C   UNL     1       1.386   3.266  20.248  0.00  0.00    +0.000 A 
ATOM     10  F   UNL     1       0.207   3.180  20.876  0.00  0.00    +0.000 F 
ATOM     11  C   UNL     1       2.459   2.507  20.698  0.00  0.00    +0.000 A 
ATOM     12  C   UNL     1       3.693   2.611  20.048  0.00  0.00    +0.000 A 
ATOM     13 BR   UNL     1       5.124   1.546  20.715  0.00  0.00    +0.000 Br
ENDBRANCH   3   5
BRANCH   2  14
ATOM     14  C   UNL     1       7.251   4.572  17.611  0.00  0.00    +0.000 C 
BRANCH  14  15
ATOM     15  N   UNL     1       6.928   4.465  16.205  0.00  0.00    +0.000 N 
ATOM     16  C   UNL     1       5.841   3.854  15.655  0.00  0.00    +0.000 A 
ATOM     17  C   UNL     1       5.910   4.086  14.296  0.00  0.00    +0.000 A 
ATOM     18  C   UNL     1       7.084   4.866  14.134  0.00  0.00    +0.000 A 
ATOM     19  N   UNL     1       7.710   5.077  15.300  0.00  0.00    +0.000 NA
ATOM     20  C   UNL     1       7.625   5.473  12.888  0.00  0.00    +0.000 C 
ATOM     21  C   UNL     1       7.583   4.617  11.620  0.00  0.00    +0.000 C 
ATOM     22  C   UNL     1       7.013   3.204  11.727  0.00  0.00    +0.000 C 
ATOM     23  C   UNL     1       5.499   3.166  11.927  0.00  0.00    +0.000 C 
ATOM     24  C   UNL     1       4.931   3.658  13.262  0.00  0.00    +0.000 C 
ENDBRANCH  14  15
ENDBRANCH   2  14
TORSDOF 3
ENDMDL
MODEL 3
REMARK VINA RESULT:      -8.5      5.578      7.917
REMARK  Name = 
REMARK  3 active torsions:
REMARK  status: ('A' for Active; 'I' for Inactive)
REMARK    1  A    between atoms: C_2  and  C_3
REMARK    2  A    between atoms: C_3  and  N_4
REMARK    3  A    between atoms: N_14  and  C_15
REMARK                            x       y       z     vdW  Elec       q    Type
REMARK                         _______ _______ _______ _____ _____    ______ ____
ROOT
ATOM      1  O   UNL     1       0.242   9.727  18.190  0.00  0.00    +0.000 OA
ATOM      2  C   UNL     1       1.272   9.436  18.798  0.00  0.00    +0.000 C 
ATOM      3  N   UNL     1       1.573   9.813  20.096  0.00  0.00    +0.000 N 
ATOM      4  H   UNL     1       2.554   9.784  20.373  0.00  0.00    +0.000 HD
ENDROOT
BRANCH   3   5
ATOM      5  C   UNL     1       0.690  10.446  21.010  0.00  0.00    +0.000 A 
ATOM      6  C   UNL     1      -0.076   9.751  21.954  0.00  0.00    +0.000 A 
ATOM      7  F   UNL     1       0.094   8.438  22.169  0.00  0.00    +0.000 F 
ATOM      8  C   UNL     1      -0.978  10.401  22.792  0.00  0.00    +0.000 A 
ATOM      9  C   UNL     1      -1.091  11.779  22.722  0.00  0.00    +0.000 A 
ATOM     10  F   UNL     1      -1.957  12.411  23.524  0.00  0.00    +0.000 F 
ATOM     11  C   UNL     1      -0.300  12.517  21.850  0.00  0.00    +0.000 A 
ATOM     12  C   UNL     1       0.592  11.851  21.004  0.00  0.00    +0.000 A 
ATOM     13 BR   UNL     1       1.646  12.919  19.831  0.00  0.00    +0.000 Br
ENDBRANCH   3   5
BRANCH   2  14
ATOM     14  C   UNL     1       2.365   8.669  18.099  0.00  0.00    +0.000 C 
BRANCH  14  15
ATOM     15  N   UNL     1       2.333   7.270  18.466  0.00  0.00    +0.000 N 
ATOM     16  C   UNL     1       2.551   6.200  17.651  0.00  0.00    +0.000 A 
ATOM     17  C   UNL     1       2.508   5.080  18.456  0.00  0.00    +0.000 A 
ATOM     18  C   UNL     1       2.266   5.595  19.757  0.00  0.00    +0.000 A 
ATOM     19  N   UNL     1       2.141   6.929  19.752  0.00  0.00    +0.000 NA
ATOM     20  C   UNL     1       2.193   4.854  21.045  0.00  0.00    +0.000 C 
ATOM     21  C   UNL     1       1.441   3.521  21.040  0.00  0.00    +0.000 C 
ATOM     22  C   UNL     1       0.807   3.060  19.729  0.00  0.00    +0.000 C 
ATOM     23  C   UNL     1       1.824   2.608  18.681  0.00  0.00    +0.000 C 
ATOM     24  C   UNL     1       2.728   3.669  18.045  0.00  0.00    +0.000 C 
ENDBRANCH  14  15
ENDBRANCH   2  14
TORSDOF 3
ENDMDL
MODEL 4
REMARK VINA RESULT:      -8.2      6.489      8.546
REMARK  Name = 
REMARK  3 active torsions:
REMARK  status: ('A' for Active; 'I' for Inactive)
REMARK    1  A    between atoms: C_2  and  C_3
REMARK    2  A    between atoms: C_3  and  N_4
REMARK    3  A    between atoms: N_14  and  C_15
REMARK                            x       y       z     vdW  Elec       q    Type
REMARK                         _______ _______ _______ _____ _____    ______ ____
ROOT
ATOM      1  O   UNL     1      -0.345  10.085  18.372  0.00  0.00    +0.000 OA
ATOM      2  C   UNL     1       0.716  10.354  18.934  0.00  0.00    +0.000 C 
ATOM      3  N   UNL     1       0.845  11.075  20.109  0.00  0.00    +0.000 N 
ATOM      4  H   UNL     1       1.755  11.491  20.303  0.00  0.00    +0.000 HD
ENDROOT
BRANCH   3   5
ATOM      5  C   UNL     1      -0.215  11.482  20.962  0.00  0.00    +0.000 A 
ATOM      6  C   UNL     1      -1.090  12.534  20.662  0.00  0.00    +0.000 A 
ATOM      7  F   UNL     1      -1.085  13.132  19.462  0.00  0.00    +0.000 F 
ATOM      8  C   UNL     1      -2.079  12.945  21.552  0.00  0.00    +0.000 A 
ATOM      9  C   UNL     1      -2.233  12.267  22.748  0.00  0.00    +0.000 A 
ATOM     10  F   UNL     1      -3.181  12.656  23.609  0.00  0.00    +0.000 F 
ATOM     11  C   UNL     1      -1.434  11.173  23.058  0.00  0.00    +0.000 A 
ATOM     12  C   UNL     1      -0.436  10.779  22.162  0.00  0.00    +0.000 A 
ATOM     13 BR   UNL     1       0.626   9.272  22.644  0.00  0.00    +0.000 Br
ENDBRANCH   3   5
BRANCH   2  14
ATOM     14  C   UNL     1       2.024   9.953  18.300  0.00  0.00    +0.000 C 
BRANCH  14  15
ATOM     15  N   UNL     1       2.244   8.529  18.419  0.00  0.00    +0.000 N 
ATOM     16  C   UNL     1       2.894   7.719  17.536  0.00  0.00    +0.000 A 
ATOM     17  C   UNL     1       2.935   6.466  18.112  0.00  0.00    +0.000 A 
ATOM     18  C   UNL     1       2.283   6.635  19.362  0.00  0.00    +0.000 A 
ATOM     19  N   UNL     1       1.847   7.891  19.533  0.00  0.00    +0.000 NA
ATOM     20  C   UNL     1       2.093   5.635  20.447  0.00  0.00    +0.000 C 
ATOM     21  C   UNL     1       1.705   4.216  20.027  0.00  0.00    +0.000 C 
ATOM     22  C   UNL     1       1.521   3.934  18.537  0.00  0.00    +0.000 C 
ATOM     23  C   UNL     1       2.830   3.919  17.749  0.00  0.00    +0.000 C 
ATOM     24  C   UNL     1       3.576   5.244  17.559  0.00  0.00    +0.000 C 
ENDBRANCH  14  15
ENDBRANCH   2  14
TORSDOF 3
ENDMDL
MODEL 5
REMARK VINA RESULT:      -8.2      1.910      2.253
REMARK  Name = 
REMARK  3 active torsions:
REMARK  status: ('A' for Active; 'I' for Inactive)
REMARK    1  A    between atoms: C_2  and  C_3
REMARK    2  A    between atoms: C_3  and  N_4
REMARK    3  A    between atoms: N_14  and  C_15
REMARK                            x       y       z     vdW  Elec       q    Type
REMARK                         _______ _______ _______ _____ _____    ______ ____
ROOT
ATOM      1  O   UNL     1       6.726   6.221  18.949  0.00  0.00    +0.000 OA
ATOM      2  C   UNL     1       6.385   5.172  18.402  0.00  0.00    +0.000 C 
ATOM      3  N   UNL     1       5.137   4.581  18.502  0.00  0.00    +0.000 N 
ATOM      4  H   UNL     1       5.071   3.590  18.274  0.00  0.00    +0.000 HD
ENDROOT
BRANCH   3   5
ATOM      5  C   UNL     1       3.985   5.155  19.102  0.00  0.00    +0.000 A 
ATOM      6  C   UNL     1       3.513   6.440  18.800  0.00  0.00    +0.000 A 
ATOM      7  F   UNL     1       4.031   7.161  17.795  0.00  0.00    +0.000 F 
ATOM      8  C   UNL     1       2.416   6.993  19.454  0.00  0.00    +0.000 A 
ATOM      9  C   UNL     1       1.743   6.238  20.399  0.00  0.00    +0.000 A 
ATOM     10  F   UNL     1       0.688   6.764  21.033  0.00  0.00    +0.000 F 
ATOM     11  C   UNL     1       2.132   4.934  20.681  0.00  0.00    +0.000 A 
ATOM     12  C   UNL     1       3.244   4.395  20.027  0.00  0.00    +0.000 A 
ATOM     13 BR   UNL     1       3.727   2.603  20.458  0.00  0.00    +0.000 Br
ENDBRANCH   3   5
BRANCH   2  14
ATOM     14  C   UNL     1       7.389   4.381  17.603  0.00  0.00    +0.000 C 
BRANCH  14  15
ATOM     15  N   UNL     1       7.015   4.328  16.207  0.00  0.00    +0.000 N 
ATOM     16  C   UNL     1       5.906   3.743  15.673  0.00  0.00    +0.000 A 
ATOM     17  C   UNL     1       5.927   4.025  14.323  0.00  0.00    +0.000 A 
ATOM     18  C   UNL     1       7.099   4.807  14.148  0.00  0.00    +0.000 A 
ATOM     19  N   UNL     1       7.767   4.971  15.297  0.00  0.00    +0.000 NA
ATOM     20  C   UNL     1       7.597   5.459  12.907  0.00  0.00    +0.000 C 
ATOM     21  C   UNL     1       7.505   4.651  11.610  0.00  0.00    +0.000 C 
ATOM     22  C   UNL     1       6.933   3.238  11.684  0.00  0.00    +0.000 C 
ATOM     23  C   UNL     1       5.426   3.197  11.936  0.00  0.00    +0.000 C 
ATOM     24  C   UNL     1       4.910   3.641  13.309  0.00  0.00    +0.000 C 
ENDBRANCH  14  15
ENDBRANCH   2  14
TORSDOF 3
ENDMDL
MODEL 6
REMARK VINA RESULT:      -8.2      1.616      1.849
REMARK  Name = 
REMARK  3 active torsions:
REMARK  status: ('A' for Active; 'I' for Inactive)
REMARK    1  A    between atoms: C_2  and  C_3
REMARK    2  A    between atoms: C_3  and  N_4
REMARK    3  A    between atoms: N_14  and  C_15
REMARK                            x       y       z     vdW  Elec       q    Type
REMARK                         _______ _______ _______ _____ _____    ______ ____
ROOT
ATOM      1  O   UNL     1       6.495   5.107  19.710  0.00  0.00    +0.000 OA
ATOM      2  C   UNL     1       6.337   4.708  18.557  0.00  0.00    +0.000 C 
ATOM      3  N   UNL     1       5.140   4.268  18.014  0.00  0.00    +0.000 N 
ATOM      4  H   UNL     1       5.194   3.685  17.180  0.00  0.00    +0.000 HD
ENDROOT
BRANCH   3   5
ATOM      5  C   UNL     1       3.861   4.360  18.624  0.00  0.00    +0.000 A 
ATOM      6  C   UNL     1       3.258   5.574  18.979  0.00  0.00    +0.000 A 
ATOM      7  F   UNL     1       3.785   6.753  18.618  0.00  0.00    +0.000 F 
ATOM      8  C   UNL     1       2.030   5.621  19.633  0.00  0.00    +0.000 A 
ATOM      9  C   UNL     1       1.362   4.439  19.900  0.00  0.00    +0.000 A 
ATOM     10  F   UNL     1       0.181   4.476  20.529  0.00  0.00    +0.000 F 
ATOM     11  C   UNL     1       1.889   3.216  19.504  0.00  0.00    +0.000 A 
ATOM     12  C   UNL     1       3.130   3.181  18.860  0.00  0.00    +0.000 A 
ATOM     13 BR   UNL     1       3.798   1.473  18.343  0.00  0.00    +0.000 Br
ENDBRANCH   3   5
BRANCH   2  14
ATOM     14  C   UNL     1       7.521   4.595  17.632  0.00  0.00    +0.000 C 
BRANCH  14  15
ATOM     15  N   UNL     1       7.095   4.488  16.254  0.00  0.00    +0.000 N 
ATOM     16  C   UNL     1       5.969   3.881  15.785  0.00  0.00    +0.000 A 
ATOM     17  C   UNL     1       5.939   4.111  14.425  0.00  0.00    +0.000 A 
ATOM     18  C   UNL     1       7.101   4.887  14.176  0.00  0.00    +0.000 A 
ATOM     19  N   UNL     1       7.812   5.096  15.293  0.00  0.00    +0.000 NA
ATOM     20  C   UNL     1       7.551   5.492  12.893  0.00  0.00    +0.000 C 
ATOM     21  C   UNL     1       7.413   4.635  11.633  0.00  0.00    +0.000 C 
ATOM     22  C   UNL     1       6.848   3.224  11.783  0.00  0.00    +0.000 C 
ATOM     23  C   UNL     1       5.352   3.192  12.092  0.00  0.00    +0.000 C 
ATOM     24  C   UNL     1       4.886   3.687  13.465  0.00  0.00    +0.000 C 
ENDBRANCH  14  15
ENDBRANCH   2  14
TORSDOF 3
ENDMDL
MODEL 7
REMARK VINA RESULT:      -8.1      4.055      5.546
REMARK  Name = 
REMARK  3 active torsions:
REMARK  status: ('A' for Active; 'I' for Inactive)
REMARK    1  A    between atoms: C_2  and  C_3
REMARK    2  A    between atoms: C_3  and  N_4
REMARK    3  A    between atoms: N_14  and  C_15
REMARK                            x       y       z     vdW  Elec       q    Type
REMARK                         _______ _______ _______ _____ _____    ______ ____
ROOT
ATOM      1  O   UNL     1       0.569   5.584  20.603  0.00  0.00    +0.000 OA
ATOM      2  C   UNL     1       1.754   5.914  20.589  0.00  0.00    +0.000 C 
ATOM      3  N   UNL     1       2.228   7.208  20.454  0.00  0.00    +0.000 N 
ATOM      4  H   UNL     1       3.194   7.321  20.149  0.00  0.00    +0.000 HD
ENDROOT
BRANCH   3   5
ATOM      5  C   UNL     1       1.446   8.393  20.483  0.00  0.00    +0.000 A 
ATOM      6  C   UNL     1       0.857   8.905  21.647  0.00  0.00    +0.000 A 
ATOM      7  F   UNL     1       1.129   8.393  22.855  0.00  0.00    +0.000 F 
ATOM      8  C   UNL     1       0.045  10.035  21.624  0.00  0.00    +0.000 A 
ATOM      9  C   UNL     1      -0.153  10.699  20.425  0.00  0.00    +0.000 A 
ATOM     10  F   UNL     1      -0.934  11.786  20.395  0.00  0.00    +0.000 F 
ATOM     11  C   UNL     1       0.467  10.269  19.259  0.00  0.00    +0.000 A 
ATOM     12  C   UNL     1       1.270   9.124  19.292  0.00  0.00    +0.000 A 
ATOM     13 BR   UNL     1       2.090   8.585  17.660  0.00  0.00    +0.000 Br
ENDBRANCH   3   5
BRANCH   2  14
ATOM     14  C   UNL     1       2.828   4.858  20.647  0.00  0.00    +0.000 C 
BRANCH  14  15
ATOM     15  N   UNL     1       3.653   4.891  19.459  0.00  0.00    +0.000 N 
ATOM     16  C   UNL     1       3.583   4.055  18.384  0.00  0.00    +0.000 A 
ATOM     17  C   UNL     1       4.497   4.526  17.464  0.00  0.00    +0.000 A 
ATOM     18  C   UNL     1       5.062   5.669  18.087  0.00  0.00    +0.000 A 
ATOM     19  N   UNL     1       4.557   5.874  19.311  0.00  0.00    +0.000 NA
ATOM     20  C   UNL     1       6.057   6.626  17.532  0.00  0.00    +0.000 C 
ATOM     21  C   UNL     1       7.224   6.035  16.736  0.00  0.00    +0.000 C 
ATOM     22  C   UNL     1       7.294   4.517  16.587  0.00  0.00    +0.000 C 
ATOM     23  C   UNL     1       6.231   3.942  15.652  0.00  0.00    +0.000 C 
ATOM     24  C   UNL     1       4.769   3.980  16.108  0.00  0.00    +0.000 C 
ENDBRANCH  14  15
ENDBRANCH   2  14
TORSDOF 3
ENDMDL
MODEL 8
REMARK VINA RESULT:      -8.0      6.065      8.368
REMARK  Name = 
REMARK  3 active torsions:
REMARK  status: ('A' for Active; 'I' for Inactive)
REMARK    1  A    between atoms: C_2  and  C_3
REMARK    2  A    between atoms: C_3  and  N_4
REMARK    3  A    between atoms: N_14  and  C_15
REMARK                            x       y       z     vdW  Elec       q    Type
REMARK                         _______ _______ _______ _____ _____    ______ ____
ROOT
ATOM      1  O   UNL     1       0.130   9.465  17.759  0.00  0.00    +0.000 OA
ATOM      2  C   UNL     1       1.145   9.619  18.436  0.00  0.00    +0.000 C 
ATOM      3  N   UNL     1       1.259  10.448  19.540  0.00  0.00    +0.000 N 
ATOM      4  H   UNL     1       2.199  10.726  19.819  0.00  0.00    +0.000 HD
ENDROOT
BRANCH   3   5
ATOM      5  C   UNL     1       0.194  11.128  20.189  0.00  0.00    +0.000 A 
ATOM      6  C   UNL     1      -0.529  12.174  19.600  0.00  0.00    +0.000 A 
ATOM      7  F   UNL     1      -0.369  12.500  18.310  0.00  0.00    +0.000 F 
ATOM      8  C   UNL     1      -1.525  12.858  20.291  0.00  0.00    +0.000 A 
ATOM      9  C   UNL     1      -1.842  12.468  21.581  0.00  0.00    +0.000 A 
ATOM     10  F   UNL     1      -2.798  13.122  22.251  0.00  0.00    +0.000 F 
ATOM     11  C   UNL     1      -1.200  11.391  22.179  0.00  0.00    +0.000 A 
ATOM     12  C   UNL     1      -0.192  10.720  21.480  0.00  0.00    +0.000 A 
ATOM     13 BR   UNL     1       0.651   9.253  22.356  0.00  0.00    +0.000 Br
ENDBRANCH   3   5
BRANCH   2  14
ATOM     14  C   UNL     1       2.426   8.930  18.038  0.00  0.00    +0.000 C 
BRANCH  14  15
ATOM     15  N   UNL     1       2.396   7.530  18.396  0.00  0.00    +0.000 N 
ATOM     16  C   UNL     1       2.712   6.469  17.602  0.00  0.00    +0.000 A 
ATOM     17  C   UNL     1       2.625   5.345  18.398  0.00  0.00    +0.000 A 
ATOM     18  C   UNL     1       2.255   5.848  19.672  0.00  0.00    +0.000 A 
ATOM     19  N   UNL     1       2.098   7.179  19.659  0.00  0.00    +0.000 NA
ATOM     20  C   UNL     1       2.085   5.099  20.947  0.00  0.00    +0.000 C 
ATOM     21  C   UNL     1       1.371   3.748  20.871  0.00  0.00    +0.000 C 
ATOM     22  C   UNL     1       0.868   3.277  19.508  0.00  0.00    +0.000 C 
ATOM     23  C   UNL     1       1.985   2.856  18.554  0.00  0.00    +0.000 C 
ATOM     24  C   UNL     1       2.916   3.941  18.004  0.00  0.00    +0.000 C 
ENDBRANCH  14  15
ENDBRANCH   2  14
TORSDOF 3
ENDMDL
MODEL 9
REMARK VINA RESULT:      -8.0      1.133      1.162
REMARK  Name = 
REMARK  3 active torsions:
REMARK  status: ('A' for Active; 'I' for Inactive)
REMARK    1  A    between atoms: C_2  and  C_3
REMARK    2  A    between atoms: C_3  and  N_4
REMARK    3  A    between atoms: N_14  and  C_15
REMARK                            x       y       z     vdW  Elec       q    Type
REMARK                         _______ _______ _______ _____ _____    ______ ____
ROOT
ATOM      1  O   UNL     1       6.396   4.196  18.969  0.00  0.00    +0.000 OA
ATOM      2  C   UNL     1       5.796   4.880  18.141  0.00  0.00    +0.000 C 
ATOM      3  N   UNL     1       4.422   4.920  17.974  0.00  0.00    +0.000 N 
ATOM      4  H   UNL     1       4.071   5.266  17.082  0.00  0.00    +0.000 HD
ENDROOT
BRANCH   3   5
ATOM      5  C   UNL     1       3.458   4.323  18.828  0.00  0.00    +0.000 A 
ATOM      6  C   UNL     1       3.361   2.942  19.042  0.00  0.00    +0.000 A 
ATOM      7  F   UNL     1       4.286   2.092  18.573  0.00  0.00    +0.000 F 
ATOM      8  C   UNL     1       2.362   2.389  19.839  0.00  0.00    +0.000 A 
ATOM      9  C   UNL     1       1.464   3.229  20.474  0.00  0.00    +0.000 A 
ATOM     10  F   UNL     1       0.501   2.704  21.241  0.00  0.00    +0.000 F 
ATOM     11  C   UNL     1       1.564   4.609  20.348  0.00  0.00    +0.000 A 
ATOM     12  C   UNL     1       2.564   5.151  19.534  0.00  0.00    +0.000 A 
ATOM     13 BR   UNL     1       2.647   7.050  19.401  0.00  0.00    +0.000 Br
ENDBRANCH   3   5
BRANCH   2  14
ATOM     14  C   UNL     1       6.571   5.709  17.148  0.00  0.00    +0.000 C 
BRANCH  14  15
ATOM     15  N   UNL     1       6.403   5.200  15.804  0.00  0.00    +0.000 N 
ATOM     16  C   UNL     1       5.322   4.540  15.302  0.00  0.00    +0.000 A 
ATOM     17  C   UNL     1       5.577   4.335  13.962  0.00  0.00    +0.000 A 
ATOM     18  C   UNL     1       6.850   4.928  13.754  0.00  0.00    +0.000 A 
ATOM     19  N   UNL     1       7.356   5.436  14.886  0.00  0.00    +0.000 NA
ATOM     20  C   UNL     1       7.604   5.074  12.480  0.00  0.00    +0.000 C 
ATOM     21  C   UNL     1       7.605   3.875  11.529  0.00  0.00    +0.000 C 
ATOM     22  C   UNL     1       6.857   2.616  11.961  0.00  0.00    +0.000 C 
ATOM     23  C   UNL     1       5.336   2.766  11.935  0.00  0.00    +0.000 C 
ATOM     24  C   UNL     1       4.681   3.691  12.965  0.00  0.00    +0.000 C 
ENDBRANCH  14  15
ENDBRANCH   2  14
TORSDOF 3
ENDMDL
