MODEL 1
REMARK VINA RESULT:      -8.6      0.000      0.000
REMARK  Name = 
REMARK  9 active torsions:
REMARK  status: ('A' for Active; 'I' for Inactive)
REMARK    1  A    between atoms: N_1  and  C_2
REMARK    2  A    between atoms: C_5  and  C_6
REMARK    3  A    between atoms: C_6  and  C_7
REMARK    4  A    between atoms: C_6  and  C_28
REMARK    5  A    between atoms: N_14  and  C_15
REMARK    6  A    between atoms: C_15  and  C_16
REMARK    7  A    between atoms: C_24  and  C_25
REMARK    8  A    between atoms: C_25  and  O_27
REMARK    9  A    between atoms: C_31  and  N_32
REMARK                            x       y       z     vdW  Elec       q    Type
REMARK                         _______ _______ _______ _____ _____    ______ ____
ROOT
ATOM      1  C   UNL     1      -1.103  11.676  19.942  0.00  0.00    +0.000 C 
ATOM      2  O   UNL     1      -1.327  12.166  18.824  0.00  0.00    +0.000 OA
ATOM      3  N   UNL     1      -0.155  10.622  20.025  0.00  0.00    +0.000 N 
ATOM      4  C   UNL     1       0.635  10.548  18.748  0.00  0.00    +0.000 C 
ATOM      5  C   UNL     1       1.478   9.330  18.660  0.00  0.00    +0.000 A 
ATOM      6  N   UNL     1       2.112   8.879  17.532  0.00  0.00    +0.000 NA
ATOM      7  C   UNL     1       2.677   7.740  17.882  0.00  0.00    +0.000 A 
ATOM      8  N   UNL     1       2.467   7.458  19.206  0.00  0.00    +0.000 N 
ATOM      9  C   UNL     1       1.718   8.485  19.706  0.00  0.00    +0.000 A 
ATOM     10  C   UNL     1       1.161   8.646  21.049  0.00  0.00    +0.000 C 
ATOM     11  C   UNL     1       0.541  10.076  21.271  0.00  0.00    +0.000 C 
ENDROOT
BRANCH  11  12
ATOM     12  C   UNL     1      -0.221   9.787  22.568  0.00  0.00    +0.000 C 
ATOM     13  O   UNL     1      -0.298  10.543  23.527  0.00  0.00    +0.000 OA
BRANCH  12  14
ATOM     14  O   UNL     1      -0.963   8.646  22.546  0.00  0.00    +0.000 OA
ATOM     15  H   UNL     1      -1.133   8.252  21.668  0.00  0.00    +0.000 HD
ENDBRANCH  12  14
ENDBRANCH  11  12
BRANCH   1  16
ATOM     16  C   UNL     1      -1.910  12.207  21.168  0.00  0.00    +0.000 C 
BRANCH  16  20
ATOM     17  C   UNL     1      -6.224  12.448  20.547  0.00  0.00    +0.000 A 
ATOM     18  C   UNL     1      -5.656  12.681  21.797  0.00  0.00    +0.000 A 
ATOM     19  C   UNL     1      -4.267  12.716  21.957  0.00  0.00    +0.000 A 
ATOM     20  C   UNL     1      -3.403  12.432  20.881  0.00  0.00    +0.000 A 
ATOM     21  C   UNL     1      -3.975  12.276  19.612  0.00  0.00    +0.000 A 
ATOM     22  C   UNL     1      -5.371  12.260  19.457  0.00  0.00    +0.000 A 
BRANCH  17  23
ATOM     23  N   UNL     1      -7.587  12.146  20.442  0.00  0.00    +0.000 N 
ATOM     24  H   UNL     1      -7.964  12.213  19.503  0.00  0.00    +0.000 HD
ATOM     25  H   UNL     1      -7.875  11.311  20.936  0.00  0.00    +0.000 HD
ENDBRANCH  17  23
ENDBRANCH  16  20
BRANCH  16  26
ATOM     26  C   UNL     1      -1.298  13.453  21.852  0.00  0.00    +0.000 A 
ATOM     27  C   UNL     1      -1.400  13.589  23.250  0.00  0.00    +0.000 A 
ATOM     28  C   UNL     1      -0.955  14.749  23.902  0.00  0.00    +0.000 A 
ATOM     29  C   UNL     1      -0.344  15.781  23.195  0.00  0.00    +0.000 A 
ATOM     30  C   UNL     1      -0.277  15.676  21.806  0.00  0.00    +0.000 A 
ATOM     31  C   UNL     1      -0.745  14.530  21.143  0.00  0.00    +0.000 A 
BRANCH  29  32
ATOM     32  N   UNL     1      -0.041  16.992  23.830  0.00  0.00    +0.000 N 
ATOM     33  H   UNL     1       0.072  16.918  24.836  0.00  0.00    +0.000 HD
ATOM     34  H   UNL     1       0.715  17.508  23.390  0.00  0.00    +0.000 HD
ENDBRANCH  29  32
ENDBRANCH  16  26
ENDBRANCH   1  16
BRANCH   8  35
ATOM     35  C   UNL     1       2.883   6.245  19.895  0.00  0.00    +0.000 C 
BRANCH  35  36
ATOM     36  C   UNL     1       2.172   4.986  19.449  0.00  0.00    +0.000 A 
ATOM     37  C   UNL     1       2.308   4.423  18.172  0.00  0.00    +0.000 A 
ATOM     38  C   UNL     1       1.646   3.239  17.837  0.00  0.00    +0.000 A 
ATOM     39  C   UNL     1       0.830   2.603  18.769  0.00  0.00    +0.000 A 
ATOM     40  C   UNL     1       0.658   3.162  20.031  0.00  0.00    +0.000 A 
ATOM     41  C   UNL     1       1.320   4.346  20.369  0.00  0.00    +0.000 A 
ENDBRANCH  35  36
ENDBRANCH   8  35
TORSDOF 9
ENDMDL
MODEL 2
REMARK VINA RESULT:      -8.4      1.026      1.499
REMARK  Name = 
REMARK  9 active torsions:
REMARK  status: ('A' for Active; 'I' for Inactive)
REMARK    1  A    between atoms: N_1  and  C_2
REMARK    2  A    between atoms: C_5  and  C_6
REMARK    3  A    between atoms: C_6  and  C_7
REMARK    4  A    between atoms: C_6  and  C_28
REMARK    5  A    between atoms: N_14  and  C_15
REMARK    6  A    between atoms: C_15  and  C_16
REMARK    7  A    between atoms: C_24  and  C_25
REMARK    8  A    between atoms: C_25  and  O_27
REMARK    9  A    between atoms: C_31  and  N_32
REMARK                            x       y       z     vdW  Elec       q    Type
REMARK                         _______ _______ _______ _____ _____    ______ ____
ROOT
ATOM      1  C   UNL     1      -0.537  11.028  19.035  0.00  0.00    +0.000 C 
ATOM      2  O   UNL     1      -0.598  11.487  17.884  0.00  0.00    +0.000 OA
ATOM      3  N   UNL     1       0.391   9.983  19.283  0.00  0.00    +0.000 N 
ATOM      4  C   UNL     1       1.358   9.881  18.136  0.00  0.00    +0.000 C 
ATOM      5  C   UNL     1       2.208   8.666  18.204  0.00  0.00    +0.000 A 
ATOM      6  N   UNL     1       3.001   8.190  17.193  0.00  0.00    +0.000 NA
ATOM      7  C   UNL     1       3.512   7.064  17.651  0.00  0.00    +0.000 A 
ATOM      8  N   UNL     1       3.113   6.816  18.938  0.00  0.00    +0.000 N 
ATOM      9  C   UNL     1       2.296   7.850  19.296  0.00  0.00    +0.000 A 
ATOM     10  C   UNL     1       1.549   8.043  20.539  0.00  0.00    +0.000 C 
ATOM     11  C   UNL     1       0.900   9.474  20.631  0.00  0.00    +0.000 C 
ENDROOT
BRANCH  11  12
ATOM     12  C   UNL     1      -0.042   9.214  21.810  0.00  0.00    +0.000 C 
ATOM     13  O   UNL     1      -0.899   8.343  21.852  0.00  0.00    +0.000 OA
BRANCH  12  14
ATOM     14  O   UNL     1       0.228   9.950  22.923  0.00  0.00    +0.000 OA
ATOM     15  H   UNL     1      -0.262  10.790  23.020  0.00  0.00    +0.000 HD
ENDBRANCH  12  14
ENDBRANCH  11  12
BRANCH   1  16
ATOM     16  C   UNL     1      -1.516  11.585  20.116  0.00  0.00    +0.000 C 
BRANCH  16  20
ATOM     17  C   UNL     1      -5.646  12.298  18.900  0.00  0.00    +0.000 A 
ATOM     18  C   UNL     1      -5.104  12.912  20.026  0.00  0.00    +0.000 A 
ATOM     19  C   UNL     1      -3.749  12.768  20.338  0.00  0.00    +0.000 A 
ATOM     20  C   UNL     1      -2.912  11.930  19.575  0.00  0.00    +0.000 A 
ATOM     21  C   UNL     1      -3.440  11.379  18.401  0.00  0.00    +0.000 A 
ATOM     22  C   UNL     1      -4.799  11.543  18.086  0.00  0.00    +0.000 A 
BRANCH  17  23
ATOM     23  N   UNL     1      -7.036  12.219  18.744  0.00  0.00    +0.000 N 
ATOM     24  H   UNL     1      -7.341  11.830  17.859  0.00  0.00    +0.000 HD
ATOM     25  H   UNL     1      -7.531  11.846  19.544  0.00  0.00    +0.000 HD
ENDBRANCH  17  23
ENDBRANCH  16  20
BRANCH  16  26
ATOM     26  C   UNL     1      -0.953  12.763  20.948  0.00  0.00    +0.000 A 
ATOM     27  C   UNL     1      -1.248  12.835  22.323  0.00  0.00    +0.000 A 
ATOM     28  C   UNL     1      -0.850  13.937  23.095  0.00  0.00    +0.000 A 
ATOM     29  C   UNL     1      -0.099  14.969  22.541  0.00  0.00    +0.000 A 
ATOM     30  C   UNL     1       0.161  14.930  21.171  0.00  0.00    +0.000 A 
ATOM     31  C   UNL     1      -0.258  13.844  20.386  0.00  0.00    +0.000 A 
BRANCH  29  32
ATOM     32  N   UNL     1       0.163  16.131  23.279  0.00  0.00    +0.000 N 
ATOM     33  H   UNL     1       0.366  16.947  22.710  0.00  0.00    +0.000 HD
ATOM     34  H   UNL     1      -0.523  16.320  24.003  0.00  0.00    +0.000 HD
ENDBRANCH  29  32
ENDBRANCH  16  26
ENDBRANCH   1  16
BRANCH   8  35
ATOM     35  C   UNL     1       3.427   5.624  19.712  0.00  0.00    +0.000 C 
BRANCH  35  36
ATOM     36  C   UNL     1       2.505   4.448  19.471  0.00  0.00    +0.000 A 
ATOM     37  C   UNL     1       1.375   4.169  20.254  0.00  0.00    +0.000 A 
ATOM     38  C   UNL     1       0.548   3.083  19.954  0.00  0.00    +0.000 A 
ATOM     39  C   UNL     1       0.842   2.252  18.877  0.00  0.00    +0.000 A 
ATOM     40  C   UNL     1       1.975   2.495  18.107  0.00  0.00    +0.000 A 
ATOM     41  C   UNL     1       2.803   3.581  18.403  0.00  0.00    +0.000 A 
ENDBRANCH  35  36
ENDBRANCH   8  35
TORSDOF 9
ENDMDL
MODEL 3
REMARK VINA RESULT:      -8.4      0.581      1.254
REMARK  Name = 
REMARK  9 active torsions:
REMARK  status: ('A' for Active; 'I' for Inactive)
REMARK    1  A    between atoms: N_1  and  C_2
REMARK    2  A    between atoms: C_5  and  C_6
REMARK    3  A    between atoms: C_6  and  C_7
REMARK    4  A    between atoms: C_6  and  C_28
REMARK    5  A    between atoms: N_14  and  C_15
REMARK    6  A    between atoms: C_15  and  C_16
REMARK    7  A    between atoms: C_24  and  C_25
REMARK    8  A    between atoms: C_25  and  O_27
REMARK    9  A    between atoms: C_31  and  N_32
REMARK                            x       y       z     vdW  Elec       q    Type
REMARK                         _______ _______ _______ _____ _____    ______ ____
ROOT
ATOM      1  C   UNL     1      -1.007  11.846  19.687  0.00  0.00    +0.000 C 
ATOM      2  O   UNL     1      -1.203  12.261  18.533  0.00  0.00    +0.000 OA
ATOM      3  N   UNL     1      -0.102  10.765  19.857  0.00  0.00    +0.000 N 
ATOM      4  C   UNL     1       0.694  10.567  18.597  0.00  0.00    +0.000 C 
ATOM      5  C   UNL     1       1.488   9.314  18.609  0.00  0.00    +0.000 A 
ATOM      6  N   UNL     1       2.113   8.756  17.523  0.00  0.00    +0.000 NA
ATOM      7  C   UNL     1       2.630   7.624  17.962  0.00  0.00    +0.000 A 
ATOM      8  N   UNL     1       2.399   7.450  19.301  0.00  0.00    +0.000 N 
ATOM      9  C   UNL     1       1.687   8.539  19.716  0.00  0.00    +0.000 A 
ATOM     10  C   UNL     1       1.125   8.821  21.038  0.00  0.00    +0.000 C 
ATOM     11  C   UNL     1       0.562  10.286  21.147  0.00  0.00    +0.000 C 
ENDROOT
BRANCH  11  12
ATOM     12  C   UNL     1      -0.222  10.123  22.453  0.00  0.00    +0.000 C 
ATOM     13  O   UNL     1      -0.425  11.010  23.271  0.00  0.00    +0.000 OA
BRANCH  12  14
ATOM     14  O   UNL     1      -0.831   8.915  22.601  0.00  0.00    +0.000 OA
ATOM     15  H   UNL     1      -1.761   8.929  22.903  0.00  0.00    +0.000 HD
ENDBRANCH  12  14
ENDBRANCH  11  12
BRANCH   1  16
ATOM     16  C   UNL     1      -1.803  12.497  20.861  0.00  0.00    +0.000 C 
BRANCH  16  20
ATOM     17  C   UNL     1      -6.140  12.195  20.477  0.00  0.00    +0.000 A 
ATOM     18  C   UNL     1      -5.543  12.609  21.665  0.00  0.00    +0.000 A 
ATOM     19  C   UNL     1      -4.161  12.814  21.739  0.00  0.00    +0.000 A 
ATOM     20  C   UNL     1      -3.324  12.526  20.644  0.00  0.00    +0.000 A 
ATOM     21  C   UNL     1      -3.934  12.186  19.430  0.00  0.00    +0.000 A 
ATOM     22  C   UNL     1      -5.324  11.999  19.360  0.00  0.00    +0.000 A 
BRANCH  17  23
ATOM     23  N   UNL     1      -7.462  11.733  20.480  0.00  0.00    +0.000 N 
ATOM     24  H   UNL     1      -7.833  11.518  21.399  0.00  0.00    +0.000 HD
ATOM     25  H   UNL     1      -8.098  12.266  19.899  0.00  0.00    +0.000 HD
ENDBRANCH  17  23
ENDBRANCH  16  20
BRANCH  16  26
ATOM     26  C   UNL     1      -1.292  13.895  21.288  0.00  0.00    +0.000 A 
ATOM     27  C   UNL     1      -1.472  14.987  20.418  0.00  0.00    +0.000 A 
ATOM     28  C   UNL     1      -0.934  16.249  20.714  0.00  0.00    +0.000 A 
ATOM     29  C   UNL     1      -0.254  16.478  21.906  0.00  0.00    +0.000 A 
ATOM     30  C   UNL     1      -0.031  15.393  22.754  0.00  0.00    +0.000 A 
ATOM     31  C   UNL     1      -0.543  14.121  22.452  0.00  0.00    +0.000 A 
BRANCH  29  32
ATOM     32  N   UNL     1       0.407  17.694  22.122  0.00  0.00    +0.000 N 
ATOM     33  H   UNL     1       1.225  17.833  21.537  0.00  0.00    +0.000 HD
ATOM     34  H   UNL     1      -0.210  18.501  22.129  0.00  0.00    +0.000 HD
ENDBRANCH  29  32
ENDBRANCH  16  26
ENDBRANCH   1  16
BRANCH   8  35
ATOM     35  C   UNL     1       2.760   6.276  20.082  0.00  0.00    +0.000 C 
BRANCH  35  36
ATOM     36  C   UNL     1       2.103   4.988  19.634  0.00  0.00    +0.000 A 
ATOM     37  C   UNL     1       1.185   4.268  20.413  0.00  0.00    +0.000 A 
ATOM     38  C   UNL     1       0.591   3.101  19.924  0.00  0.00    +0.000 A 
ATOM     39  C   UNL     1       0.912   2.629  18.655  0.00  0.00    +0.000 A 
ATOM     40  C   UNL     1       1.844   3.312  17.879  0.00  0.00    +0.000 A 
ATOM     41  C   UNL     1       2.438   4.480  18.365  0.00  0.00    +0.000 A 
ENDBRANCH  35  36
ENDBRANCH   8  35
TORSDOF 9
ENDMDL
MODEL 4
REMARK VINA RESULT:      -8.4      1.047      1.299
REMARK  Name = 
REMARK  9 active torsions:
REMARK  status: ('A' for Active; 'I' for Inactive)
REMARK    1  A    between atoms: N_1  and  C_2
REMARK    2  A    between atoms: C_5  and  C_6
REMARK    3  A    between atoms: C_6  and  C_7
REMARK    4  A    between atoms: C_6  and  C_28
REMARK    5  A    between atoms: N_14  and  C_15
REMARK    6  A    between atoms: C_15  and  C_16
REMARK    7  A    between atoms: C_24  and  C_25
REMARK    8  A    between atoms: C_25  and  O_27
REMARK    9  A    between atoms: C_31  and  N_32
REMARK                            x       y       z     vdW  Elec       q    Type
REMARK                         _______ _______ _______ _____ _____    ______ ____
ROOT
ATOM      1  C   UNL     1      -0.366  11.646  19.620  0.00  0.00    +0.000 C 
ATOM      2  O   UNL     1      -0.378  12.017  18.436  0.00  0.00    +0.000 OA
ATOM      3  N   UNL     1       0.334  10.452  19.933  0.00  0.00    +0.000 N 
ATOM      4  C   UNL     1       1.210  10.059  18.777  0.00  0.00    +0.000 C 
ATOM      5  C   UNL     1       1.790   8.701  18.928  0.00  0.00    +0.000 A 
ATOM      6  N   UNL     1       2.423   7.990  17.941  0.00  0.00    +0.000 NA
ATOM      7  C   UNL     1       2.708   6.821  18.481  0.00  0.00    +0.000 A 
ATOM      8  N   UNL     1       2.320   6.765  19.794  0.00  0.00    +0.000 N 
ATOM      9  C   UNL     1       1.752   7.973  20.082  0.00  0.00    +0.000 A 
ATOM     10  C   UNL     1       1.114   8.416  21.323  0.00  0.00    +0.000 C 
ATOM     11  C   UNL     1       0.782   9.954  21.307  0.00  0.00    +0.000 C 
ENDROOT
BRANCH  11  12
ATOM     12  C   UNL     1      -0.143   9.992  22.527  0.00  0.00    +0.000 C 
ATOM     13  O   UNL     1      -0.342  10.970  23.234  0.00  0.00    +0.000 OA
BRANCH  12  14
ATOM     14  O   UNL     1      -0.879   8.862  22.715  0.00  0.00    +0.000 OA
ATOM     15  H   UNL     1      -1.768   8.848  22.311  0.00  0.00    +0.000 HD
ENDBRANCH  12  14
ENDBRANCH  11  12
BRANCH   1  16
ATOM     16  C   UNL     1      -1.161  12.481  20.673  0.00  0.00    +0.000 C 
BRANCH  16  20
ATOM     17  C   UNL     1      -5.494  12.220  20.220  0.00  0.00    +0.000 A 
ATOM     18  C   UNL     1      -4.914  12.698  21.392  0.00  0.00    +0.000 A 
ATOM     19  C   UNL     1      -3.531  12.886  21.481  0.00  0.00    +0.000 A 
ATOM     20  C   UNL     1      -2.677  12.519  20.423  0.00  0.00    +0.000 A 
ATOM     21  C   UNL     1      -3.269  12.113  19.221  0.00  0.00    +0.000 A 
ATOM     22  C   UNL     1      -4.660  11.943  19.134  0.00  0.00    +0.000 A 
BRANCH  17  23
ATOM     23  N   UNL     1      -6.823  11.779  20.224  0.00  0.00    +0.000 N 
ATOM     24  H   UNL     1      -6.945  10.799  19.994  0.00  0.00    +0.000 HD
ATOM     25  H   UNL     1      -7.366  12.079  21.025  0.00  0.00    +0.000 HD
ENDBRANCH  17  23
ENDBRANCH  16  20
BRANCH  16  26
ATOM     26  C   UNL     1      -0.616  13.911  20.906  0.00  0.00    +0.000 A 
ATOM     27  C   UNL     1       0.021  14.213  22.124  0.00  0.00    +0.000 A 
ATOM     28  C   UNL     1       0.436  15.519  22.423  0.00  0.00    +0.000 A 
ATOM     29  C   UNL     1       0.284  16.550  21.501  0.00  0.00    +0.000 A 
ATOM     30  C   UNL     1      -0.386  16.272  20.309  0.00  0.00    +0.000 A 
ATOM     31  C   UNL     1      -0.828  14.973  20.014  0.00  0.00    +0.000 A 
BRANCH  29  32
ATOM     32  N   UNL     1       0.563  17.874  21.865  0.00  0.00    +0.000 N 
ATOM     33  H   UNL     1       1.257  17.966  22.600  0.00  0.00    +0.000 HD
ATOM     34  H   UNL     1       0.747  18.487  21.076  0.00  0.00    +0.000 HD
ENDBRANCH  29  32
ENDBRANCH  16  26
ENDBRANCH   1  16
BRANCH   8  35
ATOM     35  C   UNL     1       2.411   5.598  20.660  0.00  0.00    +0.000 C 
BRANCH  35  36
ATOM     36  C   UNL     1       2.201   4.271  19.962  0.00  0.00    +0.000 A 
ATOM     37  C   UNL     1       0.940   3.752  19.636  0.00  0.00    +0.000 A 
ATOM     38  C   UNL     1       0.820   2.533  18.962  0.00  0.00    +0.000 A 
ATOM     39  C   UNL     1       1.957   1.810  18.613  0.00  0.00    +0.000 A 
ATOM     40  C   UNL     1       3.216   2.294  18.954  0.00  0.00    +0.000 A 
ATOM     41  C   UNL     1       3.338   3.512  19.627  0.00  0.00    +0.000 A 
ENDBRANCH  35  36
ENDBRANCH   8  35
TORSDOF 9
ENDMDL
MODEL 5
REMARK VINA RESULT:      -8.3      1.108      1.587
REMARK  Name = 
REMARK  9 active torsions:
REMARK  status: ('A' for Active; 'I' for Inactive)
REMARK    1  A    between atoms: N_1  and  C_2
REMARK    2  A    between atoms: C_5  and  C_6
REMARK    3  A    between atoms: C_6  and  C_7
REMARK    4  A    between atoms: C_6  and  C_28
REMARK    5  A    between atoms: N_14  and  C_15
REMARK    6  A    between atoms: C_15  and  C_16
REMARK    7  A    between atoms: C_24  and  C_25
REMARK    8  A    between atoms: C_25  and  O_27
REMARK    9  A    between atoms: C_31  and  N_32
REMARK                            x       y       z     vdW  Elec       q    Type
REMARK                         _______ _______ _______ _____ _____    ______ ____
ROOT
ATOM      1  C   UNL     1      -0.482  11.143  19.128  0.00  0.00    +0.000 C 
ATOM      2  O   UNL     1      -0.504  11.536  17.950  0.00  0.00    +0.000 OA
ATOM      3  N   UNL     1       0.366  10.050  19.446  0.00  0.00    +0.000 N 
ATOM      4  C   UNL     1       1.329   9.810  18.316  0.00  0.00    +0.000 C 
ATOM      5  C   UNL     1       2.087   8.543  18.465  0.00  0.00    +0.000 A 
ATOM      6  N   UNL     1       2.848   7.950  17.491  0.00  0.00    +0.000 NA
ATOM      7  C   UNL     1       3.273   6.819  18.021  0.00  0.00    +0.000 A 
ATOM      8  N   UNL     1       2.851   6.679  19.317  0.00  0.00    +0.000 N 
ATOM      9  C   UNL     1       2.111   7.790  19.604  0.00  0.00    +0.000 A 
ATOM     10  C   UNL     1       1.374   8.111  20.827  0.00  0.00    +0.000 C 
ATOM     11  C   UNL     1       0.831   9.588  20.827  0.00  0.00    +0.000 C 
ENDROOT
BRANCH  11  12
ATOM     12  C   UNL     1      -0.133   9.469  22.011  0.00  0.00    +0.000 C 
ATOM     13  O   UNL     1      -0.961   8.582  22.162  0.00  0.00    +0.000 OA
BRANCH  12  14
ATOM     14  O   UNL     1       0.081  10.371  23.008  0.00  0.00    +0.000 OA
ATOM     15  H   UNL     1       0.043  11.315  22.759  0.00  0.00    +0.000 HD
ENDBRANCH  12  14
ENDBRANCH  11  12
BRANCH   1  16
ATOM     16  C   UNL     1      -1.423  11.835  20.164  0.00  0.00    +0.000 C 
BRANCH  16  20
ATOM     17  C   UNL     1      -5.662  11.944  19.131  0.00  0.00    +0.000 A 
ATOM     18  C   UNL     1      -5.171  12.603  20.256  0.00  0.00    +0.000 A 
ATOM     19  C   UNL     1      -3.797  12.657  20.510  0.00  0.00    +0.000 A 
ATOM     20  C   UNL     1      -2.876  11.978  19.688  0.00  0.00    +0.000 A 
ATOM     21  C   UNL     1      -3.366  11.385  18.518  0.00  0.00    +0.000 A 
ATOM     22  C   UNL     1      -4.746  11.350  18.260  0.00  0.00    +0.000 A 
BRANCH  17  23
ATOM     23  N   UNL     1      -7.028  11.660  19.026  0.00  0.00    +0.000 N 
ATOM     24  H   UNL     1      -7.540  12.267  18.395  0.00  0.00    +0.000 HD
ATOM     25  H   UNL     1      -7.249  10.678  18.912  0.00  0.00    +0.000 HD
ENDBRANCH  17  23
ENDBRANCH  16  20
BRANCH  16  26
ATOM     26  C   UNL     1      -0.897  13.184  20.710  0.00  0.00    +0.000 A 
ATOM     27  C   UNL     1      -0.592  14.219  19.805  0.00  0.00    +0.000 A 
ATOM     28  C   UNL     1      -0.014  15.421  20.242  0.00  0.00    +0.000 A 
ATOM     29  C   UNL     1       0.222  15.654  21.593  0.00  0.00    +0.000 A 
ATOM     30  C   UNL     1      -0.035  14.620  22.493  0.00  0.00    +0.000 A 
ATOM     31  C   UNL     1      -0.588  13.405  22.060  0.00  0.00    +0.000 A 
BRANCH  29  32
ATOM     32  N   UNL     1       0.934  16.789  22.003  0.00  0.00    +0.000 N 
ATOM     33  H   UNL     1       0.943  17.542  21.322  0.00  0.00    +0.000 HD
ATOM     34  H   UNL     1       0.694  17.110  22.936  0.00  0.00    +0.000 HD
ENDBRANCH  29  32
ENDBRANCH  16  26
ENDBRANCH   1  16
BRANCH   8  35
ATOM     35  C   UNL     1       3.074   5.517  20.164  0.00  0.00    +0.000 C 
BRANCH  35  36
ATOM     36  C   UNL     1       2.544   4.213  19.606  0.00  0.00    +0.000 A 
ATOM     37  C   UNL     1       3.345   3.257  18.963  0.00  0.00    +0.000 A 
ATOM     38  C   UNL     1       2.795   2.058  18.500  0.00  0.00    +0.000 A 
ATOM     39  C   UNL     1       1.437   1.800  18.661  0.00  0.00    +0.000 A 
ATOM     40  C   UNL     1       0.621   2.749  19.269  0.00  0.00    +0.000 A 
ATOM     41  C   UNL     1       1.168   3.948  19.734  0.00  0.00    +0.000 A 
ENDBRANCH  35  36
ENDBRANCH   8  35
TORSDOF 9
ENDMDL
MODEL 6
REMARK VINA RESULT:      -8.2      0.359      1.184
REMARK  Name = 
REMARK  9 active torsions:
REMARK  status: ('A' for Active; 'I' for Inactive)
REMARK    1  A    between atoms: N_1  and  C_2
REMARK    2  A    between atoms: C_5  and  C_6
REMARK    3  A    between atoms: C_6  and  C_7
REMARK    4  A    between atoms: C_6  and  C_28
REMARK    5  A    between atoms: N_14  and  C_15
REMARK    6  A    between atoms: C_15  and  C_16
REMARK    7  A    between atoms: C_24  and  C_25
REMARK    8  A    between atoms: C_25  and  O_27
REMARK    9  A    between atoms: C_31  and  N_32
REMARK                            x       y       z     vdW  Elec       q    Type
REMARK                         _______ _______ _______ _____ _____    ______ ____
ROOT
ATOM      1  C   UNL     1      -1.116  11.601  19.872  0.00  0.00    +0.000 C 
ATOM      2  O   UNL     1      -1.351  12.068  18.746  0.00  0.00    +0.000 OA
ATOM      3  N   UNL     1      -0.153  10.563  19.970  0.00  0.00    +0.000 N 
ATOM      4  C   UNL     1       0.635  10.478  18.693  0.00  0.00    +0.000 C 
ATOM      5  C   UNL     1       1.495   9.272  18.624  0.00  0.00    +0.000 A 
ATOM      6  N   UNL     1       2.134   8.810  17.502  0.00  0.00    +0.000 NA
ATOM      7  C   UNL     1       2.716   7.686  17.870  0.00  0.00    +0.000 A 
ATOM      8  N   UNL     1       2.514   7.425  19.200  0.00  0.00    +0.000 N 
ATOM      9  C   UNL     1       1.751   8.448  19.684  0.00  0.00    +0.000 A 
ATOM     10  C   UNL     1       1.195   8.625  21.025  0.00  0.00    +0.000 C 
ATOM     11  C   UNL     1       0.555  10.049  21.224  0.00  0.00    +0.000 C 
ENDROOT
BRANCH  11  12
ATOM     12  C   UNL     1      -0.200   9.772  22.528  0.00  0.00    +0.000 C 
ATOM     13  O   UNL     1      -0.269  10.535  23.481  0.00  0.00    +0.000 OA
BRANCH  12  14
ATOM     14  O   UNL     1      -0.944   8.632  22.519  0.00  0.00    +0.000 OA
ATOM     15  H   UNL     1      -1.510   8.474  23.300  0.00  0.00    +0.000 HD
ENDBRANCH  12  14
ENDBRANCH  11  12
BRANCH   1  16
ATOM     16  C   UNL     1      -1.929  12.141  21.090  0.00  0.00    +0.000 C 
BRANCH  16  20
ATOM     17  C   UNL     1      -6.086  12.988  20.064  0.00  0.00    +0.000 A 
ATOM     18  C   UNL     1      -5.209  12.426  19.140  0.00  0.00    +0.000 A 
ATOM     19  C   UNL     1      -3.915  12.052  19.515  0.00  0.00    +0.000 A 
ATOM     20  C   UNL     1      -3.431  12.310  20.813  0.00  0.00    +0.000 A 
ATOM     21  C   UNL     1      -4.338  12.803  21.759  0.00  0.00    +0.000 A 
ATOM     22  C   UNL     1      -5.642  13.159  21.378  0.00  0.00    +0.000 A 
BRANCH  17  23
ATOM     23  N   UNL     1      -7.265  13.604  19.628  0.00  0.00    +0.000 N 
ATOM     24  H   UNL     1      -8.094  13.355  20.157  0.00  0.00    +0.000 HD
ATOM     25  H   UNL     1      -7.183  14.597  19.448  0.00  0.00    +0.000 HD
ENDBRANCH  17  23
ENDBRANCH  16  20
BRANCH  16  26
ATOM     26  C   UNL     1      -1.350  13.426  21.731  0.00  0.00    +0.000 A 
ATOM     27  C   UNL     1      -1.385  13.570  23.132  0.00  0.00    +0.000 A 
ATOM     28  C   UNL     1      -0.970  14.758  23.751  0.00  0.00    +0.000 A 
ATOM     29  C   UNL     1      -0.455  15.815  23.005  0.00  0.00    +0.000 A 
ATOM     30  C   UNL     1      -0.458  15.700  21.615  0.00  0.00    +0.000 A 
ATOM     31  C   UNL     1      -0.896  14.524  20.987  0.00  0.00    +0.000 A 
BRANCH  29  32
ATOM     32  N   UNL     1      -0.186  17.047  23.614  0.00  0.00    +0.000 N 
ATOM     33  H   UNL     1       0.801  17.222  23.779  0.00  0.00    +0.000 HD
ATOM     34  H   UNL     1      -0.653  17.834  23.174  0.00  0.00    +0.000 HD
ENDBRANCH  29  32
ENDBRANCH  16  26
ENDBRANCH   1  16
BRANCH   8  35
ATOM     35  C   UNL     1       2.949   6.230  19.909  0.00  0.00    +0.000 C 
BRANCH  35  36
ATOM     36  C   UNL     1       2.182   4.971  19.565  0.00  0.00    +0.000 A 
ATOM     37  C   UNL     1       1.222   4.388  20.405  0.00  0.00    +0.000 A 
ATOM     38  C   UNL     1       0.528   3.242  20.009  0.00  0.00    +0.000 A 
ATOM     39  C   UNL     1       0.788   2.654  18.775  0.00  0.00    +0.000 A 
ATOM     40  C   UNL     1       1.758   3.200  17.940  0.00  0.00    +0.000 A 
ATOM     41  C   UNL     1       2.453   4.348  18.333  0.00  0.00    +0.000 A 
ENDBRANCH  35  36
ENDBRANCH   8  35
TORSDOF 9
ENDMDL
MODEL 7
REMARK VINA RESULT:      -8.2      1.095      1.515
REMARK  Name = 
REMARK  9 active torsions:
REMARK  status: ('A' for Active; 'I' for Inactive)
REMARK    1  A    between atoms: N_1  and  C_2
REMARK    2  A    between atoms: C_5  and  C_6
REMARK    3  A    between atoms: C_6  and  C_7
REMARK    4  A    between atoms: C_6  and  C_28
REMARK    5  A    between atoms: N_14  and  C_15
REMARK    6  A    between atoms: C_15  and  C_16
REMARK    7  A    between atoms: C_24  and  C_25
REMARK    8  A    between atoms: C_25  and  O_27
REMARK    9  A    between atoms: C_31  and  N_32
REMARK                            x       y       z     vdW  Elec       q    Type
REMARK                         _______ _______ _______ _____ _____    ______ ____
ROOT
ATOM      1  C   UNL     1      -0.252  11.810  19.802  0.00  0.00    +0.000 C 
ATOM      2  O   UNL     1      -0.243  12.235  18.636  0.00  0.00    +0.000 OA
ATOM      3  N   UNL     1       0.393  10.572  20.061  0.00  0.00    +0.000 N 
ATOM      4  C   UNL     1       1.255  10.195  18.889  0.00  0.00    +0.000 C 
ATOM      5  C   UNL     1       1.775   8.808  18.978  0.00  0.00    +0.000 A 
ATOM      6  N   UNL     1       2.380   8.115  17.962  0.00  0.00    +0.000 NA
ATOM      7  C   UNL     1       2.609   6.911  18.448  0.00  0.00    +0.000 A 
ATOM      8  N   UNL     1       2.214   6.812  19.756  0.00  0.00    +0.000 N 
ATOM      9  C   UNL     1       1.699   8.029  20.098  0.00  0.00    +0.000 A 
ATOM     10  C   UNL     1       1.077   8.442  21.356  0.00  0.00    +0.000 C 
ATOM     11  C   UNL     1       0.813   9.993  21.411  0.00  0.00    +0.000 C 
ENDROOT
BRANCH  11  12
ATOM     12  C   UNL     1      -0.115  10.015  22.630  0.00  0.00    +0.000 C 
ATOM     13  O   UNL     1      -0.349  10.996  23.323  0.00  0.00    +0.000 OA
BRANCH  12  14
ATOM     14  O   UNL     1      -0.811   8.863  22.833  0.00  0.00    +0.000 OA
ATOM     15  H   UNL     1      -1.777   8.951  22.949  0.00  0.00    +0.000 HD
ENDBRANCH  12  14
ENDBRANCH  11  12
BRANCH   1  16
ATOM     16  C   UNL     1      -1.014  12.630  20.891  0.00  0.00    +0.000 C 
BRANCH  16  20
ATOM     17  C   UNL     1      -5.359  12.614  20.474  0.00  0.00    +0.000 A 
ATOM     18  C   UNL     1      -4.525  12.288  19.407  0.00  0.00    +0.000 A 
ATOM     19  C   UNL     1      -3.142  12.183  19.585  0.00  0.00    +0.000 A 
ATOM     20  C   UNL     1      -2.542  12.487  20.823  0.00  0.00    +0.000 A 
ATOM     21  C   UNL     1      -3.388  12.737  21.910  0.00  0.00    +0.000 A 
ATOM     22  C   UNL     1      -4.778  12.824  21.727  0.00  0.00    +0.000 A 
BRANCH  17  23
ATOM     23  N   UNL     1      -6.689  12.982  20.238  0.00  0.00    +0.000 N 
ATOM     24  H   UNL     1      -6.808  13.738  19.573  0.00  0.00    +0.000 HD
ATOM     25  H   UNL     1      -7.322  12.207  20.088  0.00  0.00    +0.000 HD
ENDBRANCH  17  23
ENDBRANCH  16  20
BRANCH  16  26
ATOM     26  C   UNL     1      -0.614  14.123  20.970  0.00  0.00    +0.000 A 
ATOM     27  C   UNL     1       0.270  14.545  21.982  0.00  0.00    +0.000 A 
ATOM     28  C   UNL     1       0.578  15.902  22.159  0.00  0.00    +0.000 A 
ATOM     29  C   UNL     1       0.066  16.872  21.303  0.00  0.00    +0.000 A 
ATOM     30  C   UNL     1      -0.845  16.472  20.325  0.00  0.00    +0.000 A 
ATOM     31  C   UNL     1      -1.179  15.118  20.159  0.00  0.00    +0.000 A 
BRANCH  29  32
ATOM     32  N   UNL     1       0.258  18.232  21.578  0.00  0.00    +0.000 N 
ATOM     33  H   UNL     1       1.105  18.436  22.099  0.00  0.00    +0.000 HD
ATOM     34  H   UNL     1       0.143  18.835  20.769  0.00  0.00    +0.000 HD
ENDBRANCH  29  32
ENDBRANCH  16  26
ENDBRANCH   1  16
BRANCH   8  35
ATOM     35  C   UNL     1       2.250   5.603  20.566  0.00  0.00    +0.000 C 
BRANCH  35  36
ATOM     36  C   UNL     1       2.286   4.310  19.780  0.00  0.00    +0.000 A 
ATOM     37  C   UNL     1       3.468   3.700  19.335  0.00  0.00    +0.000 A 
ATOM     38  C   UNL     1       3.429   2.488  18.640  0.00  0.00    +0.000 A 
ATOM     39  C   UNL     1       2.211   1.872  18.369  0.00  0.00    +0.000 A 
ATOM     40  C   UNL     1       1.025   2.478  18.775  0.00  0.00    +0.000 A 
ATOM     41  C   UNL     1       1.061   3.689  19.471  0.00  0.00    +0.000 A 
ENDBRANCH  35  36
ENDBRANCH   8  35
TORSDOF 9
ENDMDL
MODEL 8
REMARK VINA RESULT:      -8.2      1.011      1.819
REMARK  Name = 
REMARK  9 active torsions:
REMARK  status: ('A' for Active; 'I' for Inactive)
REMARK    1  A    between atoms: N_1  and  C_2
REMARK    2  A    between atoms: C_5  and  C_6
REMARK    3  A    between atoms: C_6  and  C_7
REMARK    4  A    between atoms: C_6  and  C_28
REMARK    5  A    between atoms: N_14  and  C_15
REMARK    6  A    between atoms: C_15  and  C_16
REMARK    7  A    between atoms: C_24  and  C_25
REMARK    8  A    between atoms: C_25  and  O_27
REMARK    9  A    between atoms: C_31  and  N_32
REMARK                            x       y       z     vdW  Elec       q    Type
REMARK                         _______ _______ _______ _____ _____    ______ ____
ROOT
ATOM      1  C   UNL     1      -0.665  11.167  19.226  0.00  0.00    +0.000 C 
ATOM      2  O   UNL     1      -0.770  11.616  18.074  0.00  0.00    +0.000 OA
ATOM      3  N   UNL     1       0.263  10.116  19.445  0.00  0.00    +0.000 N 
ATOM      4  C   UNL     1       1.180   9.994  18.261  0.00  0.00    +0.000 C 
ATOM      5  C   UNL     1       2.022   8.772  18.306  0.00  0.00    +0.000 A 
ATOM      6  N   UNL     1       2.767   8.278  17.267  0.00  0.00    +0.000 NA
ATOM      7  C   UNL     1       3.287   7.152  17.715  0.00  0.00    +0.000 A 
ATOM      8  N   UNL     1       2.940   6.921  19.020  0.00  0.00    +0.000 N 
ATOM      9  C   UNL     1       2.148   7.966  19.401  0.00  0.00    +0.000 A 
ATOM     10  C   UNL     1       1.456   8.178  20.673  0.00  0.00    +0.000 C 
ATOM     11  C   UNL     1       0.824   9.615  20.777  0.00  0.00    +0.000 C 
ENDROOT
BRANCH  11  12
ATOM     12  C   UNL     1      -0.070   9.376  21.997  0.00  0.00    +0.000 C 
ATOM     13  O   UNL     1      -0.897   8.480  22.103  0.00  0.00    +0.000 OA
BRANCH  12  14
ATOM     14  O   UNL     1       0.211  10.166  23.069  0.00  0.00    +0.000 OA
ATOM     15  H   UNL     1      -0.421  10.887  23.258  0.00  0.00    +0.000 HD
ENDBRANCH  12  14
ENDBRANCH  11  12
BRANCH   1  16
ATOM     16  C   UNL     1      -1.593  11.744  20.342  0.00  0.00    +0.000 C 
BRANCH  16  20
ATOM     17  C   UNL     1      -5.587  12.563  18.784  0.00  0.00    +0.000 A 
ATOM     18  C   UNL     1      -4.700  11.730  18.107  0.00  0.00    +0.000 A 
ATOM     19  C   UNL     1      -3.470  11.383  18.674  0.00  0.00    +0.000 A 
ATOM     20  C   UNL     1      -3.054  11.931  19.903  0.00  0.00    +0.000 A 
ATOM     21  C   UNL     1      -3.979  12.704  20.616  0.00  0.00    +0.000 A 
ATOM     22  C   UNL     1      -5.220  13.033  20.047  0.00  0.00    +0.000 A 
BRANCH  17  23
ATOM     23  N   UNL     1      -6.680  13.121  18.109  0.00  0.00    +0.000 N 
ATOM     24  H   UNL     1      -6.695  14.134  18.093  0.00  0.00    +0.000 HD
ATOM     25  H   UNL     1      -6.885  12.697  17.213  0.00  0.00    +0.000 HD
ENDBRANCH  17  23
ENDBRANCH  16  20
BRANCH  16  26
ATOM     26  C   UNL     1      -1.063  13.031  21.018  0.00  0.00    +0.000 A 
ATOM     27  C   UNL     1      -0.494  14.042  20.219  0.00  0.00    +0.000 A 
ATOM     28  C   UNL     1       0.095  15.178  20.794  0.00  0.00    +0.000 A 
ATOM     29  C   UNL     1       0.084  15.373  22.172  0.00  0.00    +0.000 A 
ATOM     30  C   UNL     1      -0.437  14.359  22.975  0.00  0.00    +0.000 A 
ATOM     31  C   UNL     1      -1.004  13.206  22.408  0.00  0.00    +0.000 A 
BRANCH  29  32
ATOM     32  N   UNL     1       0.803  16.431  22.744  0.00  0.00    +0.000 N 
ATOM     33  H   UNL     1       1.803  16.269  22.804  0.00  0.00    +0.000 HD
ATOM     34  H   UNL     1       0.578  17.340  22.351  0.00  0.00    +0.000 HD
ENDBRANCH  29  32
ENDBRANCH  16  26
ENDBRANCH   1  16
BRANCH   8  35
ATOM     35  C   UNL     1       3.276   5.733  19.792  0.00  0.00    +0.000 C 
BRANCH  35  36
ATOM     36  C   UNL     1       2.417   4.521  19.501  0.00  0.00    +0.000 A 
ATOM     37  C   UNL     1       1.219   4.234  20.170  0.00  0.00    +0.000 A 
ATOM     38  C   UNL     1       0.459   3.113  19.827  0.00  0.00    +0.000 A 
ATOM     39  C   UNL     1       0.888   2.255  18.819  0.00  0.00    +0.000 A 
ATOM     40  C   UNL     1       2.090   2.506  18.164  0.00  0.00    +0.000 A 
ATOM     41  C   UNL     1       2.851   3.628  18.504  0.00  0.00    +0.000 A 
ENDBRANCH  35  36
ENDBRANCH   8  35
TORSDOF 9
ENDMDL
MODEL 9
REMARK VINA RESULT:      -8.2      0.977      1.517
REMARK  Name = 
REMARK  9 active torsions:
REMARK  status: ('A' for Active; 'I' for Inactive)
REMARK    1  A    between atoms: N_1  and  C_2
REMARK    2  A    between atoms: C_5  and  C_6
REMARK    3  A    between atoms: C_6  and  C_7
REMARK    4  A    between atoms: C_6  and  C_28
REMARK    5  A    between atoms: N_14  and  C_15
REMARK    6  A    between atoms: C_15  and  C_16
REMARK    7  A    between atoms: C_24  and  C_25
REMARK    8  A    between atoms: C_25  and  O_27
REMARK    9  A    between atoms: C_31  and  N_32
REMARK                            x       y       z     vdW  Elec       q    Type
REMARK                         _______ _______ _______ _____ _____    ______ ____
ROOT
ATOM      1  C   UNL     1      -1.167  12.296  19.996  0.00  0.00    +0.000 C 
ATOM      2  O   UNL     1      -1.339  12.833  18.891  0.00  0.00    +0.000 OA
ATOM      3  N   UNL     1      -0.292  11.180  20.061  0.00  0.00    +0.000 N 
ATOM      4  C   UNL     1       0.514  11.092  18.795  0.00  0.00    +0.000 C 
ATOM      5  C   UNL     1       1.277   9.825  18.682  0.00  0.00    +0.000 A 
ATOM      6  N   UNL     1       1.900   9.366  17.550  0.00  0.00    +0.000 NA
ATOM      7  C   UNL     1       2.382   8.182  17.873  0.00  0.00    +0.000 A 
ATOM      8  N   UNL     1       2.132   7.876  19.185  0.00  0.00    +0.000 N 
ATOM      9  C   UNL     1       1.442   8.934  19.704  0.00  0.00    +0.000 A 
ATOM     10  C   UNL     1       0.873   9.091  21.043  0.00  0.00    +0.000 C 
ATOM     11  C   UNL     1       0.345  10.551  21.300  0.00  0.00    +0.000 C 
ENDROOT
BRANCH  11  12
ATOM     12  C   UNL     1      -0.457  10.274  22.575  0.00  0.00    +0.000 C 
ATOM     13  O   UNL     1      -0.811  11.120  23.386  0.00  0.00    +0.000 OA
BRANCH  12  14
ATOM     14  O   UNL     1      -0.900   8.993  22.699  0.00  0.00    +0.000 OA
ATOM     15  H   UNL     1      -1.841   8.877  22.936  0.00  0.00    +0.000 HD
ENDBRANCH  12  14
ENDBRANCH  11  12
BRANCH   1  16
ATOM     16  C   UNL     1      -1.959  12.842  21.226  0.00  0.00    +0.000 C 
BRANCH  16  20
ATOM     17  C   UNL     1      -6.286  12.333  20.965  0.00  0.00    +0.000 A 
ATOM     18  C   UNL     1      -5.675  12.768  22.138  0.00  0.00    +0.000 A 
ATOM     19  C   UNL     1      -4.304  13.038  22.173  0.00  0.00    +0.000 A 
ATOM     20  C   UNL     1      -3.486  12.798  21.052  0.00  0.00    +0.000 A 
ATOM     21  C   UNL     1      -4.114  12.438  19.854  0.00  0.00    +0.000 A 
ATOM     22  C   UNL     1      -5.496  12.185  19.823  0.00  0.00    +0.000 A 
BRANCH  17  23
ATOM     23  N   UNL     1      -7.584  11.809  21.002  0.00  0.00    +0.000 N 
ATOM     24  H   UNL     1      -8.322  12.499  20.919  0.00  0.00    +0.000 HD
ATOM     25  H   UNL     1      -7.727  10.990  20.423  0.00  0.00    +0.000 HD
ENDBRANCH  17  23
ENDBRANCH  16  20
BRANCH  16  26
ATOM     26  C   UNL     1      -1.511  14.241  21.711  0.00  0.00    +0.000 A 
ATOM     27  C   UNL     1      -1.781  15.366  20.908  0.00  0.00    +0.000 A 
ATOM     28  C   UNL     1      -1.301  16.638  21.254  0.00  0.00    +0.000 A 
ATOM     29  C   UNL     1      -0.592  16.842  22.434  0.00  0.00    +0.000 A 
ATOM     30  C   UNL     1      -0.281  15.729  23.215  0.00  0.00    +0.000 A 
ATOM     31  C   UNL     1      -0.734  14.448  22.861  0.00  0.00    +0.000 A 
BRANCH  29  32
ATOM     32  N   UNL     1       0.008  18.081  22.695  0.00  0.00    +0.000 N 
ATOM     33  H   UNL     1       0.268  18.600  21.863  0.00  0.00    +0.000 HD
ATOM     34  H   UNL     1      -0.498  18.649  23.368  0.00  0.00    +0.000 HD
ENDBRANCH  29  32
ENDBRANCH  16  26
ENDBRANCH   1  16
BRANCH   8  35
ATOM     35  C   UNL     1       2.454   6.618  19.842  0.00  0.00    +0.000 C 
BRANCH  35  36
ATOM     36  C   UNL     1       2.827   5.488  18.905  0.00  0.00    +0.000 A 
ATOM     37  C   UNL     1       1.890   4.678  18.248  0.00  0.00    +0.000 A 
ATOM     38  C   UNL     1       2.304   3.672  17.371  0.00  0.00    +0.000 A 
ATOM     39  C   UNL     1       3.660   3.453  17.144  0.00  0.00    +0.000 A 
ATOM     40  C   UNL     1       4.606   4.226  17.810  0.00  0.00    +0.000 A 
ATOM     41  C   UNL     1       4.194   5.233  18.687  0.00  0.00    +0.000 A 
ENDBRANCH  35  36
ENDBRANCH   8  35
TORSDOF 9
ENDMDL
