MODEL 1
REMARK VINA RESULT:      -9.8      0.000      0.000
REMARK  Name = 
REMARK  7 active torsions:
REMARK  status: ('A' for Active; 'I' for Inactive)
REMARK    1  A    between atoms: C_2  and  C_3
REMARK    2  A    between atoms: C_5  and  C_6
REMARK    3  A    between atoms: C_14  and  C_15
REMARK    4  A    between atoms: C_15  and  O_16
REMARK    5  A    between atoms: O_16  and  C_17
REMARK    6  A    between atoms: C_21  and  C_22
REMARK    7  A    between atoms: C_22  and  O_23
REMARK                            x       y       z     vdW  Elec       q    Type
REMARK                         _______ _______ _______ _____ _____    ______ ____
ROOT
ATOM      1  C   UNL     1       0.577  10.597  19.059  0.00  0.00    +0.000 C 
ENDROOT
BRANCH   1   8
ATOM      2  C   UNL     1       2.602   4.876  20.416  0.00  0.00    +0.000 A 
ATOM      3  C   UNL     1       3.471   4.715  19.336  0.00  0.00    +0.000 A 
ATOM      4  C   UNL     1       3.643   5.733  18.379  0.00  0.00    +0.000 A 
ATOM      5  C   UNL     1       2.909   6.955  18.517  0.00  0.00    +0.000 A 
ATOM      6  C   UNL     1       2.953   8.028  17.597  0.00  0.00    +0.000 A 
ATOM      7  C   UNL     1       2.242   9.210  17.792  0.00  0.00    +0.000 A 
ATOM      8  C   UNL     1       1.412   9.353  18.900  0.00  0.00    +0.000 A 
ATOM      9  C   UNL     1       1.334   8.302  19.819  0.00  0.00    +0.000 A 
ATOM     10  C   UNL     1       2.054   7.116  19.642  0.00  0.00    +0.000 A 
ATOM     11  C   UNL     1       1.906   6.078  20.569  0.00  0.00    +0.000 A 
BRANCH   4  12
ATOM     12  C   UNL     1       4.586   5.496  17.284  0.00  0.00    +0.000 A 
ATOM     13  C   UNL     1       4.702   4.419  16.355  0.00  0.00    +0.000 A 
ATOM     14  C   UNL     1       5.787   4.691  15.557  0.00  0.00    +0.000 A 
ATOM     15  O   UNL     1       6.323   5.891  15.887  0.00  0.00    +0.000 OA
ATOM     16  C   UNL     1       5.590   6.378  16.922  0.00  0.00    +0.000 A 
ENDBRANCH   4  12
BRANCH   2  18
ATOM     17  N   UNL     1       2.291   2.963  22.145  0.00  0.00    +0.000 NA
ATOM     18  C   UNL     1       2.428   3.816  21.369  0.00  0.00    +0.000 C 
ENDBRANCH   2  18
ENDBRANCH   1   8
BRANCH   1  19
ATOM     19  O   UNL     1      -0.716  10.264  19.566  0.00  0.00    +0.000 OA
BRANCH  19  20
ATOM     20  C   UNL     1      -1.694  10.503  18.620  0.00  0.00    +0.000 A 
ATOM     21  C   UNL     1      -1.465  10.088  17.325  0.00  0.00    +0.000 A 
ATOM     22  C   UNL     1      -2.465  10.310  16.382  0.00  0.00    +0.000 A 
ATOM     23  C   UNL     1      -3.663  10.920  16.766  0.00  0.00    +0.000 A 
ATOM     24  C   UNL     1      -3.824  11.298  18.092  0.00  0.00    +0.000 A 
ATOM     25  N   UNL     1      -2.834  11.109  19.007  0.00  0.00    +0.000 NA
BRANCH  24  26
ATOM     26  C   UNL     1      -5.084  11.928  18.673  0.00  0.00    +0.000 C 
ATOM     27  C   UNL     1      -6.256  10.928  18.626  0.00  0.00    +0.000 C 
ATOM     28  C   UNL     1      -7.465  11.421  19.441  0.00  0.00    +0.000 C 
ATOM     29  C   UNL     1      -7.462  10.968  20.895  0.00  0.00    +0.000 C 
ATOM     30  O   UNL     1      -6.672  11.936  21.602  0.00  0.00    +0.000 OA
ATOM     31  C   UNL     1      -6.342  12.924  20.614  0.00  0.00    +0.000 C 
ATOM     32  C   UNL     1      -4.954  12.535  20.069  0.00  0.00    +0.000 C 
ATOM     33  O   UNL     1      -7.360  12.834  19.612  0.00  0.00    +0.000 OA
BRANCH  26  34
ATOM     34  O   UNL     1      -5.412  13.026  17.783  0.00  0.00    +0.000 OA
ATOM     35  H   UNL     1      -5.309  13.834  18.326  0.00  0.00    +0.000 HD
ENDBRANCH  26  34
ENDBRANCH  24  26
ENDBRANCH  19  20
ENDBRANCH   1  19
TORSDOF 7
ENDMDL
MODEL 2
REMARK VINA RESULT:      -9.7      1.582      1.813
REMARK  Name = 
REMARK  7 active torsions:
REMARK  status: ('A' for Active; 'I' for Inactive)
REMARK    1  A    between atoms: C_2  and  C_3
REMARK    2  A    between atoms: C_5  and  C_6
REMARK    3  A    between atoms: C_14  and  C_15
REMARK    4  A    between atoms: C_15  and  O_16
REMARK    5  A    between atoms: O_16  and  C_17
REMARK    6  A    between atoms: C_21  and  C_22
REMARK    7  A    between atoms: C_22  and  O_23
REMARK                            x       y       z     vdW  Elec       q    Type
REMARK                         _______ _______ _______ _____ _____    ______ ____
ROOT
ATOM      1  C   UNL     1       1.298   9.977  18.450  0.00  0.00    +0.000 C 
ENDROOT
BRANCH   1   8
ATOM      2  C   UNL     1       2.810   4.238  20.307  0.00  0.00    +0.000 A 
ATOM      3  C   UNL     1       3.838   4.001  19.394  0.00  0.00    +0.000 A 
ATOM      4  C   UNL     1       4.212   4.974  18.447  0.00  0.00    +0.000 A 
ATOM      5  C   UNL     1       3.521   6.228  18.422  0.00  0.00    +0.000 A 
ATOM      6  C   UNL     1       3.766   7.263  17.488  0.00  0.00    +0.000 A 
ATOM      7  C   UNL     1       3.086   8.478  17.525  0.00  0.00    +0.000 A 
ATOM      8  C   UNL     1       2.091   8.696  18.473  0.00  0.00    +0.000 A 
ATOM      9  C   UNL     1       1.814   7.685  19.398  0.00  0.00    +0.000 A 
ATOM     10  C   UNL     1       2.500   6.466  19.382  0.00  0.00    +0.000 A 
ATOM     11  C   UNL     1       2.153   5.471  20.304  0.00  0.00    +0.000 A 
BRANCH   4  12
ATOM     12  C   UNL     1       5.312   4.658  17.534  0.00  0.00    +0.000 A 
ATOM     13  C   UNL     1       5.315   4.199  16.183  0.00  0.00    +0.000 A 
ATOM     14  C   UNL     1       6.630   4.035  15.816  0.00  0.00    +0.000 A 
ATOM     15  O   UNL     1       7.449   4.413  16.826  0.00  0.00    +0.000 OA
ATOM     16  C   UNL     1       6.652   4.798  17.857  0.00  0.00    +0.000 A 
ENDBRANCH   4  12
BRANCH   2  18
ATOM     17  N   UNL     1       2.126   2.398  22.008  0.00  0.00    +0.000 NA
ATOM     18  C   UNL     1       2.432   3.223  21.250  0.00  0.00    +0.000 C 
ENDBRANCH   2  18
ENDBRANCH   1   8
BRANCH   1  19
ATOM     19  O   UNL     1       0.272   9.943  19.443  0.00  0.00    +0.000 OA
BRANCH  19  20
ATOM     20  C   UNL     1      -0.898  10.498  18.963  0.00  0.00    +0.000 A 
ATOM     21  C   UNL     1      -1.352  10.095  17.725  0.00  0.00    +0.000 A 
ATOM     22  C   UNL     1      -2.545  10.640  17.259  0.00  0.00    +0.000 A 
ATOM     23  C   UNL     1      -3.252  11.552  18.049  0.00  0.00    +0.000 A 
ATOM     24  C   UNL     1      -2.736  11.897  19.290  0.00  0.00    +0.000 A 
ATOM     25  N   UNL     1      -1.555  11.388  19.733  0.00  0.00    +0.000 NA
BRANCH  24  26
ATOM     26  C   UNL     1      -3.410  12.837  20.284  0.00  0.00    +0.000 C 
ATOM     27  C   UNL     1      -4.911  12.971  19.964  0.00  0.00    +0.000 C 
ATOM     28  C   UNL     1      -5.678  13.688  21.091  0.00  0.00    +0.000 C 
ATOM     29  C   UNL     1      -6.241  12.752  22.152  0.00  0.00    +0.000 C 
ATOM     30  O   UNL     1      -5.176  12.546  23.094  0.00  0.00    +0.000 OA
ATOM     31  C   UNL     1      -4.118  13.400  22.634  0.00  0.00    +0.000 C 
ATOM     32  C   UNL     1      -3.205  12.516  21.763  0.00  0.00    +0.000 C 
ATOM     33  O   UNL     1      -4.749  14.436  21.875  0.00  0.00    +0.000 OA
BRANCH  26  34
ATOM     34  O   UNL     1      -2.799  14.134  20.063  0.00  0.00    +0.000 OA
ATOM     35  H   UNL     1      -2.229  14.017  19.276  0.00  0.00    +0.000 HD
ENDBRANCH  26  34
ENDBRANCH  24  26
ENDBRANCH  19  20
ENDBRANCH   1  19
TORSDOF 7
ENDMDL
MODEL 3
REMARK VINA RESULT:      -9.5      2.719     10.587
REMARK  Name = 
REMARK  7 active torsions:
REMARK  status: ('A' for Active; 'I' for Inactive)
REMARK    1  A    between atoms: C_2  and  C_3
REMARK    2  A    between atoms: C_5  and  C_6
REMARK    3  A    between atoms: C_14  and  C_15
REMARK    4  A    between atoms: C_15  and  O_16
REMARK    5  A    between atoms: O_16  and  C_17
REMARK    6  A    between atoms: C_21  and  C_22
REMARK    7  A    between atoms: C_22  and  O_23
REMARK                            x       y       z     vdW  Elec       q    Type
REMARK                         _______ _______ _______ _____ _____    ______ ____
ROOT
ATOM      1  C   UNL     1       2.118   7.809  20.196  0.00  0.00    +0.000 C 
ENDROOT
BRANCH   1   8
ATOM      2  C   UNL     1      -2.291  10.976  17.162  0.00  0.00    +0.000 A 
ATOM      3  C   UNL     1      -2.631  11.863  18.183  0.00  0.00    +0.000 A 
ATOM      4  C   UNL     1      -1.982  11.824  19.431  0.00  0.00    +0.000 A 
ATOM      5  C   UNL     1      -0.956  10.851  19.657  0.00  0.00    +0.000 A 
ATOM      6  C   UNL     1      -0.269  10.675  20.881  0.00  0.00    +0.000 A 
ATOM      7  C   UNL     1       0.744   9.732  21.040  0.00  0.00    +0.000 A 
ATOM      8  C   UNL     1       1.085   8.886  19.989  0.00  0.00    +0.000 A 
ATOM      9  C   UNL     1       0.412   9.024  18.772  0.00  0.00    +0.000 A 
ATOM     10  C   UNL     1      -0.598   9.976  18.594  0.00  0.00    +0.000 A 
ATOM     11  C   UNL     1      -1.270  10.044  17.369  0.00  0.00    +0.000 A 
BRANCH   4  12
ATOM     12  C   UNL     1      -2.383  12.801  20.446  0.00  0.00    +0.000 A 
ATOM     13  C   UNL     1      -3.288  12.703  21.545  0.00  0.00    +0.000 A 
ATOM     14  C   UNL     1      -3.311  13.933  22.158  0.00  0.00    +0.000 A 
ATOM     15  O   UNL     1      -2.441  14.776  21.552  0.00  0.00    +0.000 OA
ATOM     16  C   UNL     1      -1.875  14.088  20.527  0.00  0.00    +0.000 A 
ENDBRANCH   4  12
BRANCH   2  18
ATOM     17  N   UNL     1      -3.541  11.065  14.887  0.00  0.00    +0.000 NA
ATOM     18  C   UNL     1      -2.980  11.022  15.903  0.00  0.00    +0.000 C 
ENDBRANCH   2  18
ENDBRANCH   1   8
BRANCH   1  19
ATOM     19  O   UNL     1       1.555   6.713  20.918  0.00  0.00    +0.000 OA
BRANCH  19  20
ATOM     20  C   UNL     1       1.940   5.507  20.365  0.00  0.00    +0.000 A 
ATOM     21  C   UNL     1       1.100   4.423  20.515  0.00  0.00    +0.000 A 
ATOM     22  C   UNL     1       1.483   3.217  19.933  0.00  0.00    +0.000 A 
ATOM     23  C   UNL     1       2.678   3.139  19.211  0.00  0.00    +0.000 A 
ATOM     24  C   UNL     1       3.462   4.278  19.095  0.00  0.00    +0.000 A 
ATOM     25  N   UNL     1       3.103   5.449  19.688  0.00  0.00    +0.000 NA
BRANCH  24  26
ATOM     26  C   UNL     1       4.762   4.365  18.303  0.00  0.00    +0.000 C 
ATOM     27  C   UNL     1       4.567   3.793  16.885  0.00  0.00    +0.000 C 
ATOM     28  C   UNL     1       5.765   4.105  15.970  0.00  0.00    +0.000 C 
ATOM     29  C   UNL     1       5.633   5.408  15.195  0.00  0.00    +0.000 C 
ATOM     30  O   UNL     1       6.119   6.435  16.074  0.00  0.00    +0.000 OA
ATOM     31  C   UNL     1       6.588   5.727  17.231  0.00  0.00    +0.000 C 
ATOM     32  C   UNL     1       5.424   5.740  18.240  0.00  0.00    +0.000 C 
ATOM     33  O   UNL     1       6.900   4.404  16.783  0.00  0.00    +0.000 OA
BRANCH  26  34
ATOM     34  O   UNL     1       5.695   3.498  18.998  0.00  0.00    +0.000 OA
ATOM     35  H   UNL     1       6.441   4.078  19.253  0.00  0.00    +0.000 HD
ENDBRANCH  26  34
ENDBRANCH  24  26
ENDBRANCH  19  20
ENDBRANCH   1  19
TORSDOF 7
ENDMDL
MODEL 4
REMARK VINA RESULT:      -9.3      2.038      2.486
REMARK  Name = 
REMARK  7 active torsions:
REMARK  status: ('A' for Active; 'I' for Inactive)
REMARK    1  A    between atoms: C_2  and  C_3
REMARK    2  A    between atoms: C_5  and  C_6
REMARK    3  A    between atoms: C_14  and  C_15
REMARK    4  A    between atoms: C_15  and  O_16
REMARK    5  A    between atoms: O_16  and  C_17
REMARK    6  A    between atoms: C_21  and  C_22
REMARK    7  A    between atoms: C_22  and  O_23
REMARK                            x       y       z     vdW  Elec       q    Type
REMARK                         _______ _______ _______ _____ _____    ______ ____
ROOT
ATOM      1  C   UNL     1       0.919   9.894  18.793  0.00  0.00    +0.000 C 
ENDROOT
BRANCH   1   8
ATOM      2  C   UNL     1       2.567   4.168  20.572  0.00  0.00    +0.000 A 
ATOM      3  C   UNL     1       3.603   3.970  19.658  0.00  0.00    +0.000 A 
ATOM      4  C   UNL     1       3.956   4.966  18.728  0.00  0.00    +0.000 A 
ATOM      5  C   UNL     1       3.235   6.203  18.718  0.00  0.00    +0.000 A 
ATOM      6  C   UNL     1       3.457   7.256  17.801  0.00  0.00    +0.000 A 
ATOM      7  C   UNL     1       2.747   8.454  17.853  0.00  0.00    +0.000 A 
ATOM      8  C   UNL     1       1.743   8.633  18.800  0.00  0.00    +0.000 A 
ATOM      9  C   UNL     1       1.489   7.603  19.710  0.00  0.00    +0.000 A 
ATOM     10  C   UNL     1       2.204   6.401  19.678  0.00  0.00    +0.000 A 
ATOM     11  C   UNL     1       1.880   5.384  20.584  0.00  0.00    +0.000 A 
BRANCH   4  12
ATOM     12  C   UNL     1       5.067   4.691  17.814  0.00  0.00    +0.000 A 
ATOM     13  C   UNL     1       6.461   4.981  17.907  0.00  0.00    +0.000 A 
ATOM     14  C   UNL     1       7.045   4.525  16.750  0.00  0.00    +0.000 A 
ATOM     15  O   UNL     1       6.123   3.920  15.965  0.00  0.00    +0.000 OA
ATOM     16  C   UNL     1       4.932   4.012  16.613  0.00  0.00    +0.000 A 
ENDBRANCH   4  12
BRANCH   2  18
ATOM     17  N   UNL     1       1.920   2.296  22.252  0.00  0.00    +0.000 NA
ATOM     18  C   UNL     1       2.212   3.130  21.499  0.00  0.00    +0.000 C 
ENDBRANCH   2  18
ENDBRANCH   1   8
BRANCH   1  19
ATOM     19  O   UNL     1       0.153   9.978  17.591  0.00  0.00    +0.000 OA
BRANCH  19  20
ATOM     20  C   UNL     1      -1.118  10.455  17.848  0.00  0.00    +0.000 A 
ATOM     21  C   UNL     1      -2.162   9.973  17.086  0.00  0.00    +0.000 A 
ATOM     22  C   UNL     1      -3.444  10.439  17.367  0.00  0.00    +0.000 A 
ATOM     23  C   UNL     1      -3.642  11.354  18.406  0.00  0.00    +0.000 A 
ATOM     24  C   UNL     1      -2.541  11.782  19.135  0.00  0.00    +0.000 A 
ATOM     25  N   UNL     1      -1.285  11.350  18.841  0.00  0.00    +0.000 NA
BRANCH  24  26
ATOM     26  C   UNL     1      -2.599  12.736  20.323  0.00  0.00    +0.000 C 
ATOM     27  C   UNL     1      -4.063  13.013  20.719  0.00  0.00    +0.000 C 
ATOM     28  C   UNL     1      -4.164  13.747  22.069  0.00  0.00    +0.000 C 
ATOM     29  C   UNL     1      -4.272  12.822  23.274  0.00  0.00    +0.000 C 
ATOM     30  O   UNL     1      -2.922  12.487  23.630  0.00  0.00    +0.000 OA
ATOM     31  C   UNL     1      -2.110  13.264  22.736  0.00  0.00    +0.000 C 
ATOM     32  C   UNL     1      -1.778  12.339  21.549  0.00  0.00    +0.000 C 
ATOM     33  O   UNL     1      -2.914  14.380  22.343  0.00  0.00    +0.000 OA
BRANCH  26  34
ATOM     34  O   UNL     1      -2.034  13.983  19.844  0.00  0.00    +0.000 OA
ATOM     35  H   UNL     1      -2.286  14.031  18.899  0.00  0.00    +0.000 HD
ENDBRANCH  26  34
ENDBRANCH  24  26
ENDBRANCH  19  20
ENDBRANCH   1  19
TORSDOF 7
ENDMDL
MODEL 5
REMARK VINA RESULT:      -9.3      2.186      3.146
REMARK  Name = 
REMARK  7 active torsions:
REMARK  status: ('A' for Active; 'I' for Inactive)
REMARK    1  A    between atoms: C_2  and  C_3
REMARK    2  A    between atoms: C_5  and  C_6
REMARK    3  A    between atoms: C_14  and  C_15
REMARK    4  A    between atoms: C_15  and  O_16
REMARK    5  A    between atoms: O_16  and  C_17
REMARK    6  A    between atoms: C_21  and  C_22
REMARK    7  A    between atoms: C_22  and  O_23
REMARK                            x       y       z     vdW  Elec       q    Type
REMARK                         _______ _______ _______ _____ _____    ______ ____
ROOT
ATOM      1  C   UNL     1       0.979   9.902  18.815  0.00  0.00    +0.000 C 
ENDROOT
BRANCH   1   8
ATOM      2  C   UNL     1       2.798   4.182  20.441  0.00  0.00    +0.000 A 
ATOM      3  C   UNL     1       3.771   3.999  19.458  0.00  0.00    +0.000 A 
ATOM      4  C   UNL     1       4.050   5.004  18.512  0.00  0.00    +0.000 A 
ATOM      5  C   UNL     1       3.318   6.234  18.559  0.00  0.00    +0.000 A 
ATOM      6  C   UNL     1       3.467   7.294  17.635  0.00  0.00    +0.000 A 
ATOM      7  C   UNL     1       2.751   8.484  17.742  0.00  0.00    +0.000 A 
ATOM      8  C   UNL     1       1.814   8.649  18.758  0.00  0.00    +0.000 A 
ATOM      9  C   UNL     1       1.631   7.611  19.676  0.00  0.00    +0.000 A 
ATOM     10  C   UNL     1       2.354   6.416  19.589  0.00  0.00    +0.000 A 
ATOM     11  C   UNL     1       2.102   5.392  20.508  0.00  0.00    +0.000 A 
BRANCH   4  12
ATOM     12  C   UNL     1       5.098   4.744  17.522  0.00  0.00    +0.000 A 
ATOM     13  C   UNL     1       6.477   5.112  17.489  0.00  0.00    +0.000 A 
ATOM     14  C   UNL     1       6.992   4.633  16.308  0.00  0.00    +0.000 A 
ATOM     15  O   UNL     1       6.045   3.943  15.628  0.00  0.00    +0.000 OA
ATOM     16  C   UNL     1       4.907   4.003  16.367  0.00  0.00    +0.000 A 
ENDBRANCH   4  12
BRANCH   2  18
ATOM     17  N   UNL     1       2.284   2.294  22.150  0.00  0.00    +0.000 NA
ATOM     18  C   UNL     1       2.517   3.136  21.384  0.00  0.00    +0.000 C 
ENDBRANCH   2  18
ENDBRANCH   1   8
BRANCH   1  19
ATOM     19  O   UNL     1       1.432  10.752  19.869  0.00  0.00    +0.000 OA
BRANCH  19  20
ATOM     20  C   UNL     1       0.597  10.666  20.966  0.00  0.00    +0.000 A 
ATOM     21  C   UNL     1       0.896   9.740  21.944  0.00  0.00    +0.000 A 
ATOM     22  C   UNL     1       0.064   9.677  23.058  0.00  0.00    +0.000 A 
ATOM     23  C   UNL     1      -1.024  10.548  23.167  0.00  0.00    +0.000 A 
ATOM     24  C   UNL     1      -1.252  11.461  22.147  0.00  0.00    +0.000 A 
ATOM     25  N   UNL     1      -0.456  11.503  21.043  0.00  0.00    +0.000 NA
BRANCH  24  26
ATOM     26  C   UNL     1      -2.363  12.505  22.142  0.00  0.00    +0.000 C 
ATOM     27  C   UNL     1      -3.021  12.581  20.750  0.00  0.00    +0.000 C 
ATOM     28  C   UNL     1      -4.314  13.418  20.771  0.00  0.00    +0.000 C 
ATOM     29  C   UNL     1      -5.574  12.610  21.050  0.00  0.00    +0.000 C 
ATOM     30  O   UNL     1      -5.677  12.531  22.480  0.00  0.00    +0.000 OA
ATOM     31  C   UNL     1      -4.592  13.337  22.965  0.00  0.00    +0.000 C 
ATOM     32  C   UNL     1      -3.426  12.366  23.230  0.00  0.00    +0.000 C 
ATOM     33  O   UNL     1      -4.294  14.267  21.918  0.00  0.00    +0.000 OA
BRANCH  26  34
ATOM     34  O   UNL     1      -1.701  13.773  22.381  0.00  0.00    +0.000 OA
ATOM     35  H   UNL     1      -1.914  14.001  23.308  0.00  0.00    +0.000 HD
ENDBRANCH  26  34
ENDBRANCH  24  26
ENDBRANCH  19  20
ENDBRANCH   1  19
TORSDOF 7
ENDMDL
MODEL 6
REMARK VINA RESULT:      -9.2      1.268      1.858
REMARK  Name = 
REMARK  7 active torsions:
REMARK  status: ('A' for Active; 'I' for Inactive)
REMARK    1  A    between atoms: C_2  and  C_3
REMARK    2  A    between atoms: C_5  and  C_6
REMARK    3  A    between atoms: C_14  and  C_15
REMARK    4  A    between atoms: C_15  and  O_16
REMARK    5  A    between atoms: O_16  and  C_17
REMARK    6  A    between atoms: C_21  and  C_22
REMARK    7  A    between atoms: C_22  and  O_23
REMARK                            x       y       z     vdW  Elec       q    Type
REMARK                         _______ _______ _______ _____ _____    ______ ____
ROOT
ATOM      1  C   UNL     1       0.753  10.651  19.747  0.00  0.00    +0.000 C 
ENDROOT
BRANCH   1   8
ATOM      2  C   UNL     1       2.357   4.688  20.485  0.00  0.00    +0.000 A 
ATOM      3  C   UNL     1       3.117   4.544  19.324  0.00  0.00    +0.000 A 
ATOM      4  C   UNL     1       3.302   5.621  18.435  0.00  0.00    +0.000 A 
ATOM      5  C   UNL     1       2.695   6.884  18.729  0.00  0.00    +0.000 A 
ATOM      6  C   UNL     1       2.761   8.022  17.892  0.00  0.00    +0.000 A 
ATOM      7  C   UNL     1       2.178   9.239  18.238  0.00  0.00    +0.000 A 
ATOM      8  C   UNL     1       1.457   9.359  19.423  0.00  0.00    +0.000 A 
ATOM      9  C   UNL     1       1.359   8.246  20.262  0.00  0.00    +0.000 A 
ATOM     10  C   UNL     1       1.953   7.022  19.934  0.00  0.00    +0.000 A 
ATOM     11  C   UNL     1       1.788   5.927  20.789  0.00  0.00    +0.000 A 
BRANCH   4  12
ATOM     12  C   UNL     1       4.128   5.397  17.246  0.00  0.00    +0.000 A 
ATOM     13  C   UNL     1       4.938   6.287  16.479  0.00  0.00    +0.000 A 
ATOM     14  C   UNL     1       5.472   5.554  15.445  0.00  0.00    +0.000 A 
ATOM     15  O   UNL     1       5.095   4.257  15.546  0.00  0.00    +0.000 OA
ATOM     16  C   UNL     1       4.293   4.163  16.638  0.00  0.00    +0.000 A 
ENDBRANCH   4  12
BRANCH   2  18
ATOM     17  N   UNL     1       2.016   2.663  22.076  0.00  0.00    +0.000 NA
ATOM     18  C   UNL     1       2.166   3.571  21.367  0.00  0.00    +0.000 C 
ENDBRANCH   2  18
ENDBRANCH   1   8
BRANCH   1  19
ATOM     19  O   UNL     1      -0.493  10.724  19.053  0.00  0.00    +0.000 OA
BRANCH  19  20
ATOM     20  C   UNL     1      -1.290  11.726  19.574  0.00  0.00    +0.000 A 
ATOM     21  C   UNL     1      -0.674  12.801  20.179  0.00  0.00    +0.000 A 
ATOM     22  C   UNL     1      -1.483  13.818  20.679  0.00  0.00    +0.000 A 
ATOM     23  C   UNL     1      -2.872  13.737  20.543  0.00  0.00    +0.000 A 
ATOM     24  C   UNL     1      -3.415  12.628  19.909  0.00  0.00    +0.000 A 
ATOM     25  N   UNL     1      -2.627  11.619  19.448  0.00  0.00    +0.000 NA
BRANCH  24  26
ATOM     26  C   UNL     1      -4.901  12.416  19.642  0.00  0.00    +0.000 C 
ATOM     27  C   UNL     1      -5.105  11.333  18.564  0.00  0.00    +0.000 C 
ATOM     28  C   UNL     1      -6.578  10.898  18.458  0.00  0.00    +0.000 C 
ATOM     29  C   UNL     1      -6.945   9.724  19.355  0.00  0.00    +0.000 C 
ATOM     30  O   UNL     1      -7.273  10.297  20.631  0.00  0.00    +0.000 OA
ATOM     31  C   UNL     1      -7.190  11.715  20.422  0.00  0.00    +0.000 C 
ATOM     32  C   UNL     1      -5.773  12.128  20.863  0.00  0.00    +0.000 C 
ATOM     33  O   UNL     1      -7.401  11.919  19.021  0.00  0.00    +0.000 OA
BRANCH  26  34
ATOM     34  O   UNL     1      -5.376  13.672  19.093  0.00  0.00    +0.000 OA
ATOM     35  H   UNL     1      -5.375  13.543  18.123  0.00  0.00    +0.000 HD
ENDBRANCH  26  34
ENDBRANCH  24  26
ENDBRANCH  19  20
ENDBRANCH   1  19
TORSDOF 7
ENDMDL
MODEL 7
REMARK VINA RESULT:      -9.2      1.244      1.714
REMARK  Name = 
REMARK  7 active torsions:
REMARK  status: ('A' for Active; 'I' for Inactive)
REMARK    1  A    between atoms: C_2  and  C_3
REMARK    2  A    between atoms: C_5  and  C_6
REMARK    3  A    between atoms: C_14  and  C_15
REMARK    4  A    between atoms: C_15  and  O_16
REMARK    5  A    between atoms: O_16  and  C_17
REMARK    6  A    between atoms: C_21  and  C_22
REMARK    7  A    between atoms: C_22  and  O_23
REMARK                            x       y       z     vdW  Elec       q    Type
REMARK                         _______ _______ _______ _____ _____    ______ ____
ROOT
ATOM      1  C   UNL     1       1.150  10.126  18.431  0.00  0.00    +0.000 C 
ENDROOT
BRANCH   1   8
ATOM      2  C   UNL     1       2.553   4.422  20.474  0.00  0.00    +0.000 A 
ATOM      3  C   UNL     1       3.588   4.144  19.582  0.00  0.00    +0.000 A 
ATOM      4  C   UNL     1       3.990   5.084  18.613  0.00  0.00    +0.000 A 
ATOM      5  C   UNL     1       3.318   6.347  18.542  0.00  0.00    +0.000 A 
ATOM      6  C   UNL     1       3.590   7.350  17.582  0.00  0.00    +0.000 A 
ATOM      7  C   UNL     1       2.928   8.575  17.574  0.00  0.00    +0.000 A 
ATOM      8  C   UNL     1       1.923   8.835  18.502  0.00  0.00    +0.000 A 
ATOM      9  C   UNL     1       1.619   7.856  19.452  0.00  0.00    +0.000 A 
ATOM     10  C   UNL     1       2.287   6.627  19.481  0.00  0.00    +0.000 A 
ATOM     11  C   UNL     1       1.914   5.664  20.426  0.00  0.00    +0.000 A 
BRANCH   4  12
ATOM     12  C   UNL     1       5.097   4.726  17.724  0.00  0.00    +0.000 A 
ATOM     13  C   UNL     1       6.502   4.953  17.828  0.00  0.00    +0.000 A 
ATOM     14  C   UNL     1       7.079   4.431  16.695  0.00  0.00    +0.000 A 
ATOM     15  O   UNL     1       6.138   3.844  15.917  0.00  0.00    +0.000 OA
ATOM     16  C   UNL     1       4.946   4.015  16.545  0.00  0.00    +0.000 A 
ENDBRANCH   4  12
BRANCH   2  18
ATOM     17  N   UNL     1       1.820   2.653  22.228  0.00  0.00    +0.000 NA
ATOM     18  C   UNL     1       2.148   3.441  21.441  0.00  0.00    +0.000 C 
ENDBRANCH   2  18
ENDBRANCH   1   8
BRANCH   1  19
ATOM     19  O   UNL     1      -0.242   9.860  18.253  0.00  0.00    +0.000 OA
BRANCH  19  20
ATOM     20  C   UNL     1      -1.012  10.821  18.881  0.00  0.00    +0.000 A 
ATOM     21  C   UNL     1      -0.398  11.660  19.787  0.00  0.00    +0.000 A 
ATOM     22  C   UNL     1      -1.176  12.641  20.396  0.00  0.00    +0.000 A 
ATOM     23  C   UNL     1      -2.529  12.762  20.071  0.00  0.00    +0.000 A 
ATOM     24  C   UNL     1      -3.071  11.887  19.139  0.00  0.00    +0.000 A 
ATOM     25  N   UNL     1      -2.319  10.909  18.565  0.00  0.00    +0.000 NA
BRANCH  24  26
ATOM     26  C   UNL     1      -4.513  11.922  18.645  0.00  0.00    +0.000 C 
ATOM     27  C   UNL     1      -5.152  10.523  18.754  0.00  0.00    +0.000 C 
ATOM     28  C   UNL     1      -6.674  10.567  18.524  0.00  0.00    +0.000 C 
ATOM     29  C   UNL     1      -7.490  10.768  19.794  0.00  0.00    +0.000 C 
ATOM     30  O   UNL     1      -7.544  12.189  20.000  0.00  0.00    +0.000 OA
ATOM     31  C   UNL     1      -6.883  12.746  18.855  0.00  0.00    +0.000 C 
ATOM     32  C   UNL     1      -5.419  12.976  19.277  0.00  0.00    +0.000 C 
ATOM     33  O   UNL     1      -6.998  11.765  17.818  0.00  0.00    +0.000 OA
BRANCH  26  34
ATOM     34  O   UNL     1      -4.429  12.253  17.235  0.00  0.00    +0.000 OA
ATOM     35  H   UNL     1      -5.139  12.909  17.084  0.00  0.00    +0.000 HD
ENDBRANCH  26  34
ENDBRANCH  24  26
ENDBRANCH  19  20
ENDBRANCH   1  19
TORSDOF 7
ENDMDL
MODEL 8
REMARK VINA RESULT:      -9.2      1.000      1.554
REMARK  Name = 
REMARK  7 active torsions:
REMARK  status: ('A' for Active; 'I' for Inactive)
REMARK    1  A    between atoms: C_2  and  C_3
REMARK    2  A    between atoms: C_5  and  C_6
REMARK    3  A    between atoms: C_14  and  C_15
REMARK    4  A    between atoms: C_15  and  O_16
REMARK    5  A    between atoms: O_16  and  C_17
REMARK    6  A    between atoms: C_21  and  C_22
REMARK    7  A    between atoms: C_22  and  O_23
REMARK                            x       y       z     vdW  Elec       q    Type
REMARK                         _______ _______ _______ _____ _____    ______ ____
ROOT
ATOM      1  C   UNL     1       0.431  10.581  19.121  0.00  0.00    +0.000 C 
ENDROOT
BRANCH   1   8
ATOM      2  C   UNL     1       2.432   4.861  20.518  0.00  0.00    +0.000 A 
ATOM      3  C   UNL     1       3.387   4.737  19.509  0.00  0.00    +0.000 A 
ATOM      4  C   UNL     1       3.619   5.778  18.590  0.00  0.00    +0.000 A 
ATOM      5  C   UNL     1       2.857   6.986  18.694  0.00  0.00    +0.000 A 
ATOM      6  C   UNL     1       2.958   8.080  17.802  0.00  0.00    +0.000 A 
ATOM      7  C   UNL     1       2.214   9.246  17.965  0.00  0.00    +0.000 A 
ATOM      8  C   UNL     1       1.295   9.353  19.005  0.00  0.00    +0.000 A 
ATOM      9  C   UNL     1       1.161   8.281  19.892  0.00  0.00    +0.000 A 
ATOM     10  C   UNL     1       1.912   7.110  19.749  0.00  0.00    +0.000 A 
ATOM     11  C   UNL     1       1.707   6.050  20.640  0.00  0.00    +0.000 A 
BRANCH   4  12
ATOM     12  C   UNL     1       4.651   5.579  17.570  0.00  0.00    +0.000 A 
ATOM     13  C   UNL     1       4.834   6.170  16.284  0.00  0.00    +0.000 A 
ATOM     14  C   UNL     1       5.954   5.595  15.733  0.00  0.00    +0.000 A 
ATOM     15  O   UNL     1       6.516   4.728  16.609  0.00  0.00    +0.000 OA
ATOM     16  C   UNL     1       5.734   4.727  17.719  0.00  0.00    +0.000 A 
ENDBRANCH   4  12
BRANCH   2  18
ATOM     17  N   UNL     1       2.015   2.899  22.167  0.00  0.00    +0.000 NA
ATOM     18  C   UNL     1       2.199   3.778  21.432  0.00  0.00    +0.000 C 
ENDBRANCH   2  18
ENDBRANCH   1   8
BRANCH   1  19
ATOM     19  O   UNL     1      -0.890  10.220  19.529  0.00  0.00    +0.000 OA
BRANCH  19  20
ATOM     20  C   UNL     1      -1.792  10.401  18.498  0.00  0.00    +0.000 A 
ATOM     21  C   UNL     1      -1.421  10.007  17.230  0.00  0.00    +0.000 A 
ATOM     22  C   UNL     1      -2.345  10.169  16.200  0.00  0.00    +0.000 A 
ATOM     23  C   UNL     1      -3.608  10.700  16.474  0.00  0.00    +0.000 A 
ATOM     24  C   UNL     1      -3.911  11.061  17.779  0.00  0.00    +0.000 A 
ATOM     25  N   UNL     1      -2.998  10.931  18.780  0.00  0.00    +0.000 NA
BRANCH  24  26
ATOM     26  C   UNL     1      -5.256  11.608  18.244  0.00  0.00    +0.000 C 
ATOM     27  C   UNL     1      -5.086  12.426  19.539  0.00  0.00    +0.000 C 
ATOM     28  C   UNL     1      -6.360  13.215  19.892  0.00  0.00    +0.000 C 
ATOM     29  C   UNL     1      -6.405  14.619  19.305  0.00  0.00    +0.000 C 
ATOM     30  O   UNL     1      -6.942  14.469  17.981  0.00  0.00    +0.000 OA
ATOM     31  C   UNL     1      -7.270  13.075  17.880  0.00  0.00    +0.000 C 
ATOM     32  C   UNL     1      -6.058  12.399  17.212  0.00  0.00    +0.000 C 
ATOM     33  O   UNL     1      -7.470  12.619  19.222  0.00  0.00    +0.000 OA
BRANCH  26  34
ATOM     34  O   UNL     1      -6.055  10.441  18.569  0.00  0.00    +0.000 OA
ATOM     35  H   UNL     1      -5.904  10.285  19.523  0.00  0.00    +0.000 HD
ENDBRANCH  26  34
ENDBRANCH  24  26
ENDBRANCH  19  20
ENDBRANCH   1  19
TORSDOF 7
ENDMDL
MODEL 9
REMARK VINA RESULT:      -9.2      3.018     10.956
REMARK  Name = 
REMARK  7 active torsions:
REMARK  status: ('A' for Active; 'I' for Inactive)
REMARK    1  A    between atoms: C_2  and  C_3
REMARK    2  A    between atoms: C_5  and  C_6
REMARK    3  A    between atoms: C_14  and  C_15
REMARK    4  A    between atoms: C_15  and  O_16
REMARK    5  A    between atoms: O_16  and  C_17
REMARK    6  A    between atoms: C_21  and  C_22
REMARK    7  A    between atoms: C_22  and  O_23
REMARK                            x       y       z     vdW  Elec       q    Type
REMARK                         _______ _______ _______ _____ _____    ______ ____
ROOT
ATOM      1  C   UNL     1       1.796   8.138  19.669  0.00  0.00    +0.000 C 
ENDROOT
BRANCH   1   8
ATOM      2  C   UNL     1      -0.380  13.962  19.547  0.00  0.00    +0.000 A 
ATOM      3  C   UNL     1      -1.371  13.821  20.518  0.00  0.00    +0.000 A 
ATOM      4  C   UNL     1      -1.579  12.593  21.176  0.00  0.00    +0.000 A 
ATOM      5  C   UNL     1      -0.759  11.469  20.838  0.00  0.00    +0.000 A 
ATOM      6  C   UNL     1      -0.904  10.174  21.386  0.00  0.00    +0.000 A 
ATOM      7  C   UNL     1      -0.059   9.120  21.045  0.00  0.00    +0.000 A 
ATOM      8  C   UNL     1       0.945   9.304  20.099  0.00  0.00    +0.000 A 
ATOM      9  C   UNL     1       1.101  10.569  19.526  0.00  0.00    +0.000 A 
ATOM     10  C   UNL     1       0.270  11.640  19.870  0.00  0.00    +0.000 A 
ATOM     11  C   UNL     1       0.441  12.875  19.235  0.00  0.00    +0.000 A 
BRANCH   4  12
ATOM     12  C   UNL     1      -2.627  12.529  22.197  0.00  0.00    +0.000 A 
ATOM     13  C   UNL     1      -2.556  12.433  23.619  0.00  0.00    +0.000 A 
ATOM     14  C   UNL     1      -3.848  12.376  24.084  0.00  0.00    +0.000 A 
ATOM     15  O   UNL     1      -4.722  12.486  23.055  0.00  0.00    +0.000 OA
ATOM     16  C   UNL     1      -3.984  12.588  21.920  0.00  0.00    +0.000 A 
ENDBRANCH   4  12
BRANCH   2  18
ATOM     17  N   UNL     1      -0.056  16.231  18.325  0.00  0.00    +0.000 NA
ATOM     18  C   UNL     1      -0.199  15.218  18.875  0.00  0.00    +0.000 C 
ENDBRANCH   2  18
ENDBRANCH   1   8
BRANCH   1  19
ATOM     19  O   UNL     1       1.857   7.159  20.708  0.00  0.00    +0.000 OA
BRANCH  19  20
ATOM     20  C   UNL     1       2.143   5.909  20.194  0.00  0.00    +0.000 A 
ATOM     21  C   UNL     1       1.223   4.899  20.384  0.00  0.00    +0.000 A 
ATOM     22  C   UNL     1       1.507   3.649  19.841  0.00  0.00    +0.000 A 
ATOM     23  C   UNL     1       2.686   3.454  19.115  0.00  0.00    +0.000 A 
ATOM     24  C   UNL     1       3.555   4.524  18.956  0.00  0.00    +0.000 A 
ATOM     25  N   UNL     1       3.293   5.738  19.513  0.00  0.00    +0.000 NA
BRANCH  24  26
ATOM     26  C   UNL     1       4.852   4.484  18.155  0.00  0.00    +0.000 C 
ATOM     27  C   UNL     1       4.637   3.742  16.821  0.00  0.00    +0.000 C 
ATOM     28  C   UNL     1       5.835   3.912  15.870  0.00  0.00    +0.000 C 
ATOM     29  C   UNL     1       5.724   5.110  14.937  0.00  0.00    +0.000 C 
ATOM     30  O   UNL     1       6.236   6.229  15.678  0.00  0.00    +0.000 OA
ATOM     31  C   UNL     1       6.698   5.662  16.914  0.00  0.00    +0.000 C 
ATOM     32  C   UNL     1       5.541   5.826  17.917  0.00  0.00    +0.000 C 
ATOM     33  O   UNL     1       6.980   4.287  16.635  0.00  0.00    +0.000 OA
BRANCH  26  34
ATOM     34  O   UNL     1       5.771   3.692  18.950  0.00  0.00    +0.000 OA
ATOM     35  H   UNL     1       5.596   2.764  18.695  0.00  0.00    +0.000 HD
ENDBRANCH  26  34
ENDBRANCH  24  26
ENDBRANCH  19  20
ENDBRANCH   1  19
TORSDOF 7
ENDMDL
