MODEL 1
REMARK VINA RESULT:      -7.5      0.000      0.000
REMARK  Name = 
REMARK  7 active torsions:
REMARK  status: ('A' for Active; 'I' for Inactive)
REMARK    1  A    between atoms: C_1  and  O_2
REMARK    2  A    between atoms: O_2  and  C_3
REMARK    3  A    between atoms: C_3  and  C_5
REMARK    4  A    between atoms: C_10  and  C_11
REMARK    5  A    between atoms: C_16  and  C_17
REMARK    6  A    between atoms: C_17  and  C_18
REMARK    7  A    between atoms: C_21  and  C_22
REMARK                            x       y       z     vdW  Elec       q    Type
REMARK                         _______ _______ _______ _____ _____    ______ ____
ROOT
ATOM      1  C   UNL     1       5.686   3.481  12.255  0.00  0.00    +0.000 A 
ATOM      2  C   UNL     1       6.866   4.228  11.822  0.00  0.00    +0.000 A 
ATOM      3  C   UNL     1       7.589   4.966  12.683  0.00  0.00    +0.000 A 
ATOM      4  C   UNL     1       7.224   5.011  14.059  0.00  0.00    +0.000 A 
ATOM      5  N   UNL     1       7.786   5.626  15.075  0.00  0.00    +0.000 NA
ATOM      6  C   UNL     1       7.064   5.237  16.177  0.00  0.00    +0.000 A 
ATOM      7  C   UNL     1       6.011   4.406  15.828  0.00  0.00    +0.000 A 
ATOM      8  N   UNL     1       6.112   4.271  14.455  0.00  0.00    +0.000 N 
ATOM      9  C   UNL     1       5.341   3.529  13.558  0.00  0.00    +0.000 A 
ENDROOT
BRANCH   6  10
ATOM     10  C   UNL     1       7.430   5.646  17.563  0.00  0.00    +0.000 A 
ATOM     11  C   UNL     1       7.755   6.927  17.968  0.00  0.00    +0.000 A 
ATOM     12  C   UNL     1       8.045   6.858  19.353  0.00  0.00    +0.000 A 
ATOM     13  C   UNL     1       7.881   5.543  19.713  0.00  0.00    +0.000 A 
ATOM     14  O   UNL     1       7.507   4.804  18.638  0.00  0.00    +0.000 OA
ENDBRANCH   6  10
BRANCH   1  15
ATOM     15  C   UNL     1       4.850   2.652  11.339  0.00  0.00    +0.000 C 
ATOM     16  O   UNL     1       3.906   3.086  10.695  0.00  0.00    +0.000 OA
BRANCH  15  18
ATOM     17  C   UNL     1       6.610   1.188  10.862  0.00  0.00    +0.000 C 
ATOM     18  O   UNL     1       5.277   1.363  11.345  0.00  0.00    +0.000 OA
ENDBRANCH  15  18
ENDBRANCH   1  15
BRANCH   7  19
ATOM     19  C   UNL     1       4.993   3.701  16.664  0.00  0.00    +0.000 C 
BRANCH  19  20
ATOM     20  C   UNL     1       4.167   4.610  17.548  0.00  0.00    +0.000 A 
ATOM     21  C   UNL     1       3.742   4.175  18.811  0.00  0.00    +0.000 A 
ATOM     22  C   UNL     1       3.055   5.037  19.670  0.00  0.00    +0.000 A 
ATOM     23  C   UNL     1       2.777   6.352  19.285  0.00  0.00    +0.000 A 
ATOM     24  C   UNL     1       2.076   7.301  20.212  0.00  0.00    +0.000 C 
ATOM     25  C   UNL     1       3.187   6.788  18.024  0.00  0.00    +0.000 A 
ATOM     26  C   UNL     1       3.874   5.926  17.165  0.00  0.00    +0.000 A 
ENDBRANCH  19  20
ENDBRANCH   7  19
TORSDOF 5
ENDMDL
MODEL 2
REMARK VINA RESULT:      -7.5      0.503      1.046
REMARK  Name = 
REMARK  7 active torsions:
REMARK  status: ('A' for Active; 'I' for Inactive)
REMARK    1  A    between atoms: C_1  and  O_2
REMARK    2  A    between atoms: O_2  and  C_3
REMARK    3  A    between atoms: C_3  and  C_5
REMARK    4  A    between atoms: C_10  and  C_11
REMARK    5  A    between atoms: C_16  and  C_17
REMARK    6  A    between atoms: C_17  and  C_18
REMARK    7  A    between atoms: C_21  and  C_22
REMARK                            x       y       z     vdW  Elec       q    Type
REMARK                         _______ _______ _______ _____ _____    ______ ____
ROOT
ATOM      1  C   UNL     1       5.801   3.246  12.201  0.00  0.00    +0.000 A 
ATOM      2  C   UNL     1       6.911   4.068  11.719  0.00  0.00    +0.000 A 
ATOM      3  C   UNL     1       7.597   4.880  12.543  0.00  0.00    +0.000 A 
ATOM      4  C   UNL     1       7.264   4.932  13.927  0.00  0.00    +0.000 A 
ATOM      5  N   UNL     1       7.802   5.614  14.912  0.00  0.00    +0.000 NA
ATOM      6  C   UNL     1       7.139   5.201  16.042  0.00  0.00    +0.000 A 
ATOM      7  C   UNL     1       6.143   4.284  15.742  0.00  0.00    +0.000 A 
ATOM      8  N   UNL     1       6.221   4.122  14.370  0.00  0.00    +0.000 N 
ATOM      9  C   UNL     1       5.486   3.301  13.511  0.00  0.00    +0.000 A 
ENDROOT
BRANCH   6  10
ATOM     10  C   UNL     1       7.507   5.672  17.408  0.00  0.00    +0.000 A 
ATOM     11  C   UNL     1       7.697   6.987  17.784  0.00  0.00    +0.000 A 
ATOM     12  C   UNL     1       8.045   6.975  19.158  0.00  0.00    +0.000 A 
ATOM     13  C   UNL     1       8.047   5.656  19.539  0.00  0.00    +0.000 A 
ATOM     14  O   UNL     1       7.721   4.862  18.489  0.00  0.00    +0.000 OA
ENDBRANCH   6  10
BRANCH   1  15
ATOM     15  C   UNL     1       5.008   2.333  11.328  0.00  0.00    +0.000 C 
ATOM     16  O   UNL     1       5.455   1.316  10.817  0.00  0.00    +0.000 OA
BRANCH  15  18
ATOM     17  C   UNL     1       3.642   3.938  10.311  0.00  0.00    +0.000 C 
ATOM     18  O   UNL     1       3.743   2.804  11.175  0.00  0.00    +0.000 OA
ENDBRANCH  15  18
ENDBRANCH   1  15
BRANCH   7  19
ATOM     19  C   UNL     1       5.203   3.527  16.620  0.00  0.00    +0.000 C 
BRANCH  19  20
ATOM     20  C   UNL     1       4.344   4.393  17.516  0.00  0.00    +0.000 A 
ATOM     21  C   UNL     1       4.161   4.055  18.864  0.00  0.00    +0.000 A 
ATOM     22  C   UNL     1       3.443   4.894  19.721  0.00  0.00    +0.000 A 
ATOM     23  C   UNL     1       2.893   6.089  19.248  0.00  0.00    +0.000 A 
ATOM     24  C   UNL     1       2.155   7.020  20.164  0.00  0.00    +0.000 C 
ATOM     25  C   UNL     1       3.062   6.426  17.904  0.00  0.00    +0.000 A 
ATOM     26  C   UNL     1       3.779   5.587  17.048  0.00  0.00    +0.000 A 
ENDBRANCH  19  20
ENDBRANCH   7  19
TORSDOF 5
ENDMDL
MODEL 3
REMARK VINA RESULT:      -7.3      7.535     11.349
REMARK  Name = 
REMARK  7 active torsions:
REMARK  status: ('A' for Active; 'I' for Inactive)
REMARK    1  A    between atoms: C_1  and  O_2
REMARK    2  A    between atoms: O_2  and  C_3
REMARK    3  A    between atoms: C_3  and  C_5
REMARK    4  A    between atoms: C_10  and  C_11
REMARK    5  A    between atoms: C_16  and  C_17
REMARK    6  A    between atoms: C_17  and  C_18
REMARK    7  A    between atoms: C_21  and  C_22
REMARK                            x       y       z     vdW  Elec       q    Type
REMARK                         _______ _______ _______ _____ _____    ______ ____
ROOT
ATOM      1  C   UNL     1       1.301   9.117  19.600  0.00  0.00    +0.000 A 
ATOM      2  C   UNL     1       1.468   8.336  20.825  0.00  0.00    +0.000 A 
ATOM      3  C   UNL     1       0.899   8.712  21.984  0.00  0.00    +0.000 A 
ATOM      4  C   UNL     1       0.090   9.884  22.031  0.00  0.00    +0.000 A 
ATOM      5  N   UNL     1      -0.581  10.422  23.023  0.00  0.00    +0.000 NA
ATOM      6  C   UNL     1      -1.254  11.484  22.470  0.00  0.00    +0.000 A 
ATOM      7  C   UNL     1      -0.956  11.630  21.124  0.00  0.00    +0.000 A 
ATOM      8  N   UNL     1      -0.077  10.598  20.847  0.00  0.00    +0.000 N 
ATOM      9  C   UNL     1       0.538  10.228  19.648  0.00  0.00    +0.000 A 
ENDROOT
BRANCH   6  10
ATOM     10  C   UNL     1      -2.212  12.322  23.246  0.00  0.00    +0.000 A 
ATOM     11  C   UNL     1      -2.036  13.651  23.580  0.00  0.00    +0.000 A 
ATOM     12  C   UNL     1      -3.175  14.041  24.326  0.00  0.00    +0.000 A 
ATOM     13  C   UNL     1      -3.979  12.931  24.404  0.00  0.00    +0.000 A 
ATOM     14  O   UNL     1      -3.406  11.888  23.753  0.00  0.00    +0.000 OA
ENDBRANCH   6  10
BRANCH   1  15
ATOM     15  C   UNL     1       1.913   8.745  18.292  0.00  0.00    +0.000 C 
ATOM     16  O   UNL     1       2.052   9.520  17.357  0.00  0.00    +0.000 OA
BRANCH  15  18
ATOM     17  C   UNL     1       3.577   7.185  17.770  0.00  0.00    +0.000 C 
ATOM     18  O   UNL     1       2.270   7.434  18.291  0.00  0.00    +0.000 OA
ENDBRANCH  15  18
ENDBRANCH   1  15
BRANCH   7  19
ATOM     19  C   UNL     1      -1.466  12.590  20.100  0.00  0.00    +0.000 C 
BRANCH  19  20
ATOM     20  C   UNL     1      -2.844  12.268  19.567  0.00  0.00    +0.000 A 
ATOM     21  C   UNL     1      -2.997  11.409  18.469  0.00  0.00    +0.000 A 
ATOM     22  C   UNL     1      -4.268  11.035  18.025  0.00  0.00    +0.000 A 
ATOM     23  C   UNL     1      -5.414  11.511  18.668  0.00  0.00    +0.000 A 
ATOM     24  C   UNL     1      -6.784  11.086  18.228  0.00  0.00    +0.000 C 
ATOM     25  C   UNL     1      -5.270  12.376  19.754  0.00  0.00    +0.000 A 
ATOM     26  C   UNL     1      -3.999  12.750  20.198  0.00  0.00    +0.000 A 
ENDBRANCH  19  20
ENDBRANCH   7  19
TORSDOF 5
ENDMDL
MODEL 4
REMARK VINA RESULT:      -7.3      0.610      1.461
REMARK  Name = 
REMARK  7 active torsions:
REMARK  status: ('A' for Active; 'I' for Inactive)
REMARK    1  A    between atoms: C_1  and  O_2
REMARK    2  A    between atoms: O_2  and  C_3
REMARK    3  A    between atoms: C_3  and  C_5
REMARK    4  A    between atoms: C_10  and  C_11
REMARK    5  A    between atoms: C_16  and  C_17
REMARK    6  A    between atoms: C_17  and  C_18
REMARK    7  A    between atoms: C_21  and  C_22
REMARK                            x       y       z     vdW  Elec       q    Type
REMARK                         _______ _______ _______ _____ _____    ______ ____
ROOT
ATOM      1  C   UNL     1       5.583   3.621  12.197  0.00  0.00    +0.000 A 
ATOM      2  C   UNL     1       6.869   4.199  11.807  0.00  0.00    +0.000 A 
ATOM      3  C   UNL     1       7.661   4.822  12.698  0.00  0.00    +0.000 A 
ATOM      4  C   UNL     1       7.265   4.907  14.063  0.00  0.00    +0.000 A 
ATOM      5  N   UNL     1       7.876   5.429  15.102  0.00  0.00    +0.000 NA
ATOM      6  C   UNL     1       7.074   5.137  16.178  0.00  0.00    +0.000 A 
ATOM      7  C   UNL     1       5.926   4.464  15.789  0.00  0.00    +0.000 A 
ATOM      8  N   UNL     1       6.049   4.326  14.418  0.00  0.00    +0.000 N 
ATOM      9  C   UNL     1       5.209   3.706  13.490  0.00  0.00    +0.000 A 
ENDROOT
BRANCH   6  10
ATOM     10  C   UNL     1       7.451   5.480  17.578  0.00  0.00    +0.000 A 
ATOM     11  C   UNL     1       7.579   6.757  18.090  0.00  0.00    +0.000 A 
ATOM     12  C   UNL     1       7.963   6.619  19.447  0.00  0.00    +0.000 A 
ATOM     13  C   UNL     1       8.047   5.269  19.685  0.00  0.00    +0.000 A 
ATOM     14  O   UNL     1       7.737   4.573  18.562  0.00  0.00    +0.000 OA
ENDBRANCH   6  10
BRANCH   1  15
ATOM     15  C   UNL     1       4.668   2.924  11.248  0.00  0.00    +0.000 C 
ATOM     16  O   UNL     1       4.718   1.727  11.005  0.00  0.00    +0.000 OA
BRANCH  15  18
ATOM     17  C   UNL     1       2.795   3.204   9.874  0.00  0.00    +0.000 C 
ATOM     18  O   UNL     1       3.799   3.808  10.692  0.00  0.00    +0.000 OA
ENDBRANCH  15  18
ENDBRANCH   1  15
BRANCH   7  19
ATOM     19  C   UNL     1       4.795   3.902  16.586  0.00  0.00    +0.000 C 
BRANCH  19  20
ATOM     20  C   UNL     1       4.134   4.890  17.523  0.00  0.00    +0.000 A 
ATOM     21  C   UNL     1       3.946   6.222  17.130  0.00  0.00    +0.000 A 
ATOM     22  C   UNL     1       3.259   7.120  17.951  0.00  0.00    +0.000 A 
ATOM     23  C   UNL     1       2.745   6.706  19.183  0.00  0.00    +0.000 A 
ATOM     24  C   UNL     1       1.971   7.647  20.058  0.00  0.00    +0.000 C 
ATOM     25  C   UNL     1       2.939   5.383  19.586  0.00  0.00    +0.000 A 
ATOM     26  C   UNL     1       3.626   4.486  18.765  0.00  0.00    +0.000 A 
ENDBRANCH  19  20
ENDBRANCH   7  19
TORSDOF 5
ENDMDL
MODEL 5
REMARK VINA RESULT:      -7.2      3.655      7.281
REMARK  Name = 
REMARK  7 active torsions:
REMARK  status: ('A' for Active; 'I' for Inactive)
REMARK    1  A    between atoms: C_1  and  O_2
REMARK    2  A    between atoms: O_2  and  C_3
REMARK    3  A    between atoms: C_3  and  C_5
REMARK    4  A    between atoms: C_10  and  C_11
REMARK    5  A    between atoms: C_16  and  C_17
REMARK    6  A    between atoms: C_17  and  C_18
REMARK    7  A    between atoms: C_21  and  C_22
REMARK                            x       y       z     vdW  Elec       q    Type
REMARK                         _______ _______ _______ _____ _____    ______ ____
ROOT
ATOM      1  C   UNL     1       4.090   2.247  20.650  0.00  0.00    +0.000 A 
ATOM      2  C   UNL     1       2.697   2.129  21.077  0.00  0.00    +0.000 A 
ATOM      3  C   UNL     1       1.842   3.163  20.986  0.00  0.00    +0.000 A 
ATOM      4  C   UNL     1       2.282   4.403  20.439  0.00  0.00    +0.000 A 
ATOM      5  N   UNL     1       1.631   5.524  20.225  0.00  0.00    +0.000 NA
ATOM      6  C   UNL     1       2.530   6.347  19.591  0.00  0.00    +0.000 A 
ATOM      7  C   UNL     1       3.769   5.740  19.454  0.00  0.00    +0.000 A 
ATOM      8  N   UNL     1       3.606   4.485  20.014  0.00  0.00    +0.000 N 
ATOM      9  C   UNL     1       4.505   3.423  20.136  0.00  0.00    +0.000 A 
ENDROOT
BRANCH   6  10
ATOM     10  C   UNL     1       2.164   7.702  19.089  0.00  0.00    +0.000 A 
ATOM     11  C   UNL     1       2.455   8.204  17.835  0.00  0.00    +0.000 A 
ATOM     12  C   UNL     1       1.936   9.522  17.790  0.00  0.00    +0.000 A 
ATOM     13  C   UNL     1       1.360   9.747  19.016  0.00  0.00    +0.000 A 
ATOM     14  O   UNL     1       1.491   8.653  19.806  0.00  0.00    +0.000 OA
ENDBRANCH   6  10
BRANCH   1  15
ATOM     15  C   UNL     1       5.078   1.132  20.733  0.00  0.00    +0.000 C 
ATOM     16  O   UNL     1       5.255   0.309  19.847  0.00  0.00    +0.000 OA
BRANCH  15  18
ATOM     17  C   UNL     1       6.331  -0.082  22.292  0.00  0.00    +0.000 C 
ATOM     18  O   UNL     1       5.725   1.160  21.927  0.00  0.00    +0.000 OA
ENDBRANCH  15  18
ENDBRANCH   1  15
BRANCH   7  19
ATOM     19  C   UNL     1       5.029   6.206  18.802  0.00  0.00    +0.000 C 
BRANCH  19  20
ATOM     20  C   UNL     1       5.355   5.515  17.497  0.00  0.00    +0.000 A 
ATOM     21  C   UNL     1       4.342   4.895  16.751  0.00  0.00    +0.000 A 
ATOM     22  C   UNL     1       4.617   4.331  15.502  0.00  0.00    +0.000 A 
ATOM     23  C   UNL     1       5.909   4.373  14.972  0.00  0.00    +0.000 A 
ATOM     24  C   UNL     1       6.212   3.808  13.616  0.00  0.00    +0.000 C 
ATOM     25  C   UNL     1       6.925   4.978  15.714  0.00  0.00    +0.000 A 
ATOM     26  C   UNL     1       6.650   5.542  16.963  0.00  0.00    +0.000 A 
ENDBRANCH  19  20
ENDBRANCH   7  19
TORSDOF 5
ENDMDL
MODEL 6
REMARK VINA RESULT:      -7.1      4.504      6.551
REMARK  Name = 
REMARK  7 active torsions:
REMARK  status: ('A' for Active; 'I' for Inactive)
REMARK    1  A    between atoms: C_1  and  O_2
REMARK    2  A    between atoms: O_2  and  C_3
REMARK    3  A    between atoms: C_3  and  C_5
REMARK    4  A    between atoms: C_10  and  C_11
REMARK    5  A    between atoms: C_16  and  C_17
REMARK    6  A    between atoms: C_17  and  C_18
REMARK    7  A    between atoms: C_21  and  C_22
REMARK                            x       y       z     vdW  Elec       q    Type
REMARK                         _______ _______ _______ _____ _____    ______ ____
ROOT
ATOM      1  C   UNL     1       7.398   7.078  18.349  0.00  0.00    +0.000 A 
ATOM      2  C   UNL     1       8.042   5.946  19.015  0.00  0.00    +0.000 A 
ATOM      3  C   UNL     1       7.337   4.878  19.430  0.00  0.00    +0.000 A 
ATOM      4  C   UNL     1       5.933   4.821  19.200  0.00  0.00    +0.000 A 
ATOM      5  N   UNL     1       5.056   3.885  19.483  0.00  0.00    +0.000 NA
ATOM      6  C   UNL     1       3.871   4.327  18.946  0.00  0.00    +0.000 A 
ATOM      7  C   UNL     1       4.010   5.577  18.365  0.00  0.00    +0.000 A 
ATOM      8  N   UNL     1       5.344   5.898  18.541  0.00  0.00    +0.000 N 
ATOM      9  C   UNL     1       6.067   7.023  18.136  0.00  0.00    +0.000 A 
ENDROOT
BRANCH   6  10
ATOM     10  C   UNL     1       2.624   3.510  18.970  0.00  0.00    +0.000 A 
ATOM     11  C   UNL     1       1.553   3.695  19.823  0.00  0.00    +0.000 A 
ATOM     12  C   UNL     1       0.600   2.695  19.509  0.00  0.00    +0.000 A 
ATOM     13  C   UNL     1       1.143   1.959  18.484  0.00  0.00    +0.000 A 
ATOM     14  O   UNL     1       2.364   2.445  18.150  0.00  0.00    +0.000 OA
ENDBRANCH   6  10
BRANCH   1  15
ATOM     15  C   UNL     1       8.133   8.285  17.873  0.00  0.00    +0.000 C 
ATOM     16  O   UNL     1       8.045   8.736  16.740  0.00  0.00    +0.000 OA
BRANCH  15  18
ATOM     17  C   UNL     1       9.046  10.209  18.842  0.00  0.00    +0.000 C 
ATOM     18  O   UNL     1       8.914   8.786  18.865  0.00  0.00    +0.000 OA
ENDBRANCH  15  18
ENDBRANCH   1  15
BRANCH   7  19
ATOM     19  C   UNL     1       3.036   6.434  17.625  0.00  0.00    +0.000 C 
BRANCH  19  20
ATOM     20  C   UNL     1       2.367   7.498  18.468  0.00  0.00    +0.000 A 
ATOM     21  C   UNL     1       1.874   8.667  17.873  0.00  0.00    +0.000 A 
ATOM     22  C   UNL     1       1.177   9.615  18.628  0.00  0.00    +0.000 A 
ATOM     23  C   UNL     1       0.957   9.414  19.994  0.00  0.00    +0.000 A 
ATOM     24  C   UNL     1       0.176  10.401  20.809  0.00  0.00    +0.000 C 
ATOM     25  C   UNL     1       1.455   8.256  20.595  0.00  0.00    +0.000 A 
ATOM     26  C   UNL     1       2.152   7.309  19.840  0.00  0.00    +0.000 A 
ENDBRANCH  19  20
ENDBRANCH   7  19
TORSDOF 5
ENDMDL
MODEL 7
REMARK VINA RESULT:      -7.1      4.114      6.873
REMARK  Name = 
REMARK  7 active torsions:
REMARK  status: ('A' for Active; 'I' for Inactive)
REMARK    1  A    between atoms: C_1  and  O_2
REMARK    2  A    between atoms: O_2  and  C_3
REMARK    3  A    between atoms: C_3  and  C_5
REMARK    4  A    between atoms: C_10  and  C_11
REMARK    5  A    between atoms: C_16  and  C_17
REMARK    6  A    between atoms: C_17  and  C_18
REMARK    7  A    between atoms: C_21  and  C_22
REMARK                            x       y       z     vdW  Elec       q    Type
REMARK                         _______ _______ _______ _____ _____    ______ ____
ROOT
ATOM      1  C   UNL     1       4.358   5.612  17.075  0.00  0.00    +0.000 A 
ATOM      2  C   UNL     1       4.167   4.470  17.968  0.00  0.00    +0.000 A 
ATOM      3  C   UNL     1       3.493   4.586  19.126  0.00  0.00    +0.000 A 
ATOM      4  C   UNL     1       2.924   5.838  19.495  0.00  0.00    +0.000 A 
ATOM      5  N   UNL     1       2.211   6.180  20.544  0.00  0.00    +0.000 NA
ATOM      6  C   UNL     1       1.853   7.488  20.326  0.00  0.00    +0.000 A 
ATOM      7  C   UNL     1       2.395   7.975  19.147  0.00  0.00    +0.000 A 
ATOM      8  N   UNL     1       3.096   6.907  18.617  0.00  0.00    +0.000 N 
ATOM      9  C   UNL     1       3.821   6.798  17.429  0.00  0.00    +0.000 A 
ENDROOT
BRANCH   6  10
ATOM     10  C   UNL     1       0.955   8.239  21.248  0.00  0.00    +0.000 A 
ATOM     11  C   UNL     1       1.361   9.111  22.240  0.00  0.00    +0.000 A 
ATOM     12  C   UNL     1       0.188   9.586  22.877  0.00  0.00    +0.000 A 
ATOM     13  C   UNL     1      -0.865   8.978  22.239  0.00  0.00    +0.000 A 
ATOM     14  O   UNL     1      -0.412   8.164  21.252  0.00  0.00    +0.000 OA
ENDBRANCH   6  10
BRANCH   1  15
ATOM     15  C   UNL     1       5.099   5.537  15.783  0.00  0.00    +0.000 C 
ATOM     16  O   UNL     1       5.529   6.512  15.184  0.00  0.00    +0.000 OA
BRANCH  15  18
ATOM     17  C   UNL     1       6.120   4.051  14.291  0.00  0.00    +0.000 C 
ATOM     18  O   UNL     1       5.204   4.247  15.371  0.00  0.00    +0.000 OA
ENDBRANCH  15  18
ENDBRANCH   1  15
BRANCH   7  19
ATOM     19  C   UNL     1       2.254   9.299  18.470  0.00  0.00    +0.000 C 
BRANCH  19  20
ATOM     20  C   UNL     1       0.847   9.855  18.463  0.00  0.00    +0.000 A 
ATOM     21  C   UNL     1       0.526  10.981  19.234  0.00  0.00    +0.000 A 
ATOM     22  C   UNL     1      -0.746  11.556  19.167  0.00  0.00    +0.000 A 
ATOM     23  C   UNL     1      -1.726  11.016  18.328  0.00  0.00    +0.000 A 
ATOM     24  C   UNL     1      -3.083  11.645  18.214  0.00  0.00    +0.000 C 
ATOM     25  C   UNL     1      -1.417   9.888  17.566  0.00  0.00    +0.000 A 
ATOM     26  C   UNL     1      -0.145   9.314  17.634  0.00  0.00    +0.000 A 
ENDBRANCH  19  20
ENDBRANCH   7  19
TORSDOF 5
ENDMDL
MODEL 8
REMARK VINA RESULT:      -6.8      3.575      7.288
REMARK  Name = 
REMARK  7 active torsions:
REMARK  status: ('A' for Active; 'I' for Inactive)
REMARK    1  A    between atoms: C_1  and  O_2
REMARK    2  A    between atoms: O_2  and  C_3
REMARK    3  A    between atoms: C_3  and  C_5
REMARK    4  A    between atoms: C_10  and  C_11
REMARK    5  A    between atoms: C_16  and  C_17
REMARK    6  A    between atoms: C_17  and  C_18
REMARK    7  A    between atoms: C_21  and  C_22
REMARK                            x       y       z     vdW  Elec       q    Type
REMARK                         _______ _______ _______ _____ _____    ______ ____
ROOT
ATOM      1  C   UNL     1       4.122   2.228  20.665  0.00  0.00    +0.000 A 
ATOM      2  C   UNL     1       2.724   2.126  21.084  0.00  0.00    +0.000 A 
ATOM      3  C   UNL     1       1.878   3.167  20.976  0.00  0.00    +0.000 A 
ATOM      4  C   UNL     1       2.333   4.397  20.420  0.00  0.00    +0.000 A 
ATOM      5  N   UNL     1       1.693   5.521  20.190  0.00  0.00    +0.000 NA
ATOM      6  C   UNL     1       2.603   6.330  19.554  0.00  0.00    +0.000 A 
ATOM      7  C   UNL     1       3.838   5.710  19.432  0.00  0.00    +0.000 A 
ATOM      8  N   UNL     1       3.660   4.463  20.003  0.00  0.00    +0.000 N 
ATOM      9  C   UNL     1       4.550   3.395  20.142  0.00  0.00    +0.000 A 
ENDROOT
BRANCH   6  10
ATOM     10  C   UNL     1       2.252   7.682  19.035  0.00  0.00    +0.000 A 
ATOM     11  C   UNL     1       1.478   8.622  19.689  0.00  0.00    +0.000 A 
ATOM     12  C   UNL     1       1.389   9.748  18.833  0.00  0.00    +0.000 A 
ATOM     13  C   UNL     1       2.112   9.431  17.709  0.00  0.00    +0.000 A 
ATOM     14  O   UNL     1       2.638   8.186  17.823  0.00  0.00    +0.000 OA
ENDBRANCH   6  10
BRANCH   1  15
ATOM     15  C   UNL     1       5.099   1.106  20.766  0.00  0.00    +0.000 C 
ATOM     16  O   UNL     1       5.269   0.267  19.893  0.00  0.00    +0.000 OA
BRANCH  15  18
ATOM     17  C   UNL     1       6.373  -0.084  22.327  0.00  0.00    +0.000 C 
ATOM     18  O   UNL     1       5.745   1.146  21.960  0.00  0.00    +0.000 OA
ENDBRANCH  15  18
ENDBRANCH   1  15
BRANCH   7  19
ATOM     19  C   UNL     1       5.106   6.160  18.783  0.00  0.00    +0.000 C 
BRANCH  19  20
ATOM     20  C   UNL     1       5.335   5.602  17.396  0.00  0.00    +0.000 A 
ATOM     21  C   UNL     1       6.536   5.855  16.719  0.00  0.00    +0.000 A 
ATOM     22  C   UNL     1       6.793   5.273  15.475  0.00  0.00    +0.000 A 
ATOM     23  C   UNL     1       5.854   4.425  14.880  0.00  0.00    +0.000 A 
ATOM     24  C   UNL     1       6.132   3.760  13.564  0.00  0.00    +0.000 C 
ATOM     25  C   UNL     1       4.650   4.177  15.543  0.00  0.00    +0.000 A 
ATOM     26  C   UNL     1       4.394   4.760  16.786  0.00  0.00    +0.000 A 
ENDBRANCH  19  20
ENDBRANCH   7  19
TORSDOF 5
ENDMDL
MODEL 9
REMARK VINA RESULT:      -6.8      4.100      6.978
REMARK  Name = 
REMARK  7 active torsions:
REMARK  status: ('A' for Active; 'I' for Inactive)
REMARK    1  A    between atoms: C_1  and  O_2
REMARK    2  A    between atoms: O_2  and  C_3
REMARK    3  A    between atoms: C_3  and  C_5
REMARK    4  A    between atoms: C_10  and  C_11
REMARK    5  A    between atoms: C_16  and  C_17
REMARK    6  A    between atoms: C_17  and  C_18
REMARK    7  A    between atoms: C_21  and  C_22
REMARK                            x       y       z     vdW  Elec       q    Type
REMARK                         _______ _______ _______ _____ _____    ______ ____
ROOT
ATOM      1  C   UNL     1       4.312   5.641  17.111  0.00  0.00    +0.000 A 
ATOM      2  C   UNL     1       4.007   4.477  17.943  0.00  0.00    +0.000 A 
ATOM      3  C   UNL     1       3.290   4.589  19.076  0.00  0.00    +0.000 A 
ATOM      4  C   UNL     1       2.786   5.859  19.475  0.00  0.00    +0.000 A 
ATOM      5  N   UNL     1       2.049   6.203  20.506  0.00  0.00    +0.000 NA
ATOM      6  C   UNL     1       1.786   7.540  20.333  0.00  0.00    +0.000 A 
ATOM      7  C   UNL     1       2.411   8.039  19.200  0.00  0.00    +0.000 A 
ATOM      8  N   UNL     1       3.066   6.950  18.654  0.00  0.00    +0.000 N 
ATOM      9  C   UNL     1       3.836   6.844  17.494  0.00  0.00    +0.000 A 
ENDROOT
BRANCH   6  10
ATOM     10  C   UNL     1       0.897   8.310  21.248  0.00  0.00    +0.000 A 
ATOM     11  C   UNL     1       1.313   9.122  22.285  0.00  0.00    +0.000 A 
ATOM     12  C   UNL     1       0.145   9.641  22.895  0.00  0.00    +0.000 A 
ATOM     13  C   UNL     1      -0.915   9.118  22.197  0.00  0.00    +0.000 A 
ATOM     14  O   UNL     1      -0.471   8.315  21.199  0.00  0.00    +0.000 OA
ENDBRANCH   6  10
BRANCH   1  15
ATOM     15  C   UNL     1       5.104   5.570  15.849  0.00  0.00    +0.000 C 
ATOM     16  O   UNL     1       5.142   6.463  15.015  0.00  0.00    +0.000 OA
BRANCH  15  18
ATOM     17  C   UNL     1       7.068   4.387  16.317  0.00  0.00    +0.000 C 
ATOM     18  O   UNL     1       5.751   4.379  15.761  0.00  0.00    +0.000 OA
ENDBRANCH  15  18
ENDBRANCH   1  15
BRANCH   7  19
ATOM     19  C   UNL     1       2.387   9.397  18.578  0.00  0.00    +0.000 C 
BRANCH  19  20
ATOM     20  C   UNL     1       1.037  10.080  18.613  0.00  0.00    +0.000 A 
ATOM     21  C   UNL     1      -0.048   9.542  17.909  0.00  0.00    +0.000 A 
ATOM     22  C   UNL     1      -1.319  10.115  18.005  0.00  0.00    +0.000 A 
ATOM     23  C   UNL     1      -1.532  11.239  18.808  0.00  0.00    +0.000 A 
ATOM     24  C   UNL     1      -2.898  11.842  18.955  0.00  0.00    +0.000 C 
ATOM     25  C   UNL     1      -0.453  11.788  19.504  0.00  0.00    +0.000 A 
ATOM     26  C   UNL     1       0.817  11.215  19.407  0.00  0.00    +0.000 A 
ENDBRANCH  19  20
ENDBRANCH   7  19
TORSDOF 5
ENDMDL
