MODEL 1
REMARK VINA RESULT:      -7.5      0.000      0.000
REMARK  Name = 
REMARK  5 active torsions:
REMARK  status: ('A' for Active; 'I' for Inactive)
REMARK    1  A    between atoms: C_10  and  S_11
REMARK    2  A    between atoms: S_11  and  C_12
REMARK    3  A    between atoms: C_12  and  C_13
REMARK    4  A    between atoms: C_13  and  C_14
REMARK    5  A    between atoms: N_16  and  C_17
REMARK                            x       y       z     vdW  Elec       q    Type
REMARK                         _______ _______ _______ _____ _____    ______ ____
ROOT
ATOM      1  O   UNL     1       4.267   5.924  19.826  0.00  0.00    +0.000 OA
ATOM      2  C   UNL     1       4.218   5.085  18.926  0.00  0.00    +0.000 A 
ATOM      3  C   UNL     1       3.073   4.170  18.917  0.00  0.00    +0.000 A 
ATOM      4  C   UNL     1       2.009   4.352  19.819  0.00  0.00    +0.000 A 
ATOM      5  C   UNL     1       0.919   3.495  19.771  0.00  0.00    +0.000 A 
ATOM      6  C   UNL     1       0.896   2.457  18.841  0.00  0.00    +0.000 A 
ATOM      7  C   UNL     1       1.969   2.281  17.958  0.00  0.00    +0.000 A 
ATOM      8  C   UNL     1       3.070   3.141  17.987  0.00  0.00    +0.000 A 
ATOM      9  N   UNL     1       4.108   2.962  17.065  0.00  0.00    +0.000 NA
ATOM     10  C   UNL     1       5.080   3.821  17.045  0.00  0.00    +0.000 A 
ATOM     11  N   UNL     1       5.179   4.903  17.925  0.00  0.00    +0.000 N 
ENDROOT
BRANCH  11  12
ATOM     12  C   UNL     1       6.244   5.859  17.922  0.00  0.00    +0.000 A 
ATOM     13  C   UNL     1       7.333   5.753  18.797  0.00  0.00    +0.000 A 
ATOM     14  C   UNL     1       8.259   6.797  18.893  0.00  0.00    +0.000 A 
ATOM     15  C   UNL     1       8.110   7.946  18.116  0.00  0.00    +0.000 A 
ATOM     16  C   UNL     1       7.044   8.051  17.227  0.00  0.00    +0.000 A 
ATOM     17  C   UNL     1       6.117   7.015  17.134  0.00  0.00    +0.000 A 
ENDBRANCH  11  12
BRANCH  10  18
ATOM     18  S   UNL     1       6.301   3.636  15.786  0.00  0.00    +0.000 S 
BRANCH  18  19
ATOM     19  C   UNL     1       5.502   4.340  14.314  0.00  0.00    +0.000 C 
BRANCH  19  20
ATOM     20  C   UNL     1       6.356   4.191  13.056  0.00  0.00    +0.000 C 
BRANCH  20  21
ATOM     21  C   UNL     1       5.875   3.002  12.230  0.00  0.00    +0.000 C 
ATOM     22 CL   UNL     1       4.272   3.330  11.535  0.00  0.00    +0.000 Cl
ENDBRANCH  20  21
ENDBRANCH  19  20
ENDBRANCH  18  19
ENDBRANCH  10  18
TORSDOF 5
ENDMDL
MODEL 2
REMARK VINA RESULT:      -7.5      0.217      1.052
REMARK  Name = 
REMARK  5 active torsions:
REMARK  status: ('A' for Active; 'I' for Inactive)
REMARK    1  A    between atoms: C_10  and  S_11
REMARK    2  A    between atoms: S_11  and  C_12
REMARK    3  A    between atoms: C_12  and  C_13
REMARK    4  A    between atoms: C_13  and  C_14
REMARK    5  A    between atoms: N_16  and  C_17
REMARK                            x       y       z     vdW  Elec       q    Type
REMARK                         _______ _______ _______ _____ _____    ______ ____
ROOT
ATOM      1  O   UNL     1       3.972   5.887  19.907  0.00  0.00    +0.000 OA
ATOM      2  C   UNL     1       4.021   5.080  18.978  0.00  0.00    +0.000 A 
ATOM      3  C   UNL     1       2.950   4.082  18.893  0.00  0.00    +0.000 A 
ATOM      4  C   UNL     1       1.843   4.150  19.756  0.00  0.00    +0.000 A 
ATOM      5  C   UNL     1       0.824   3.216  19.635  0.00  0.00    +0.000 A 
ATOM      6  C   UNL     1       0.916   2.214  18.671  0.00  0.00    +0.000 A 
ATOM      7  C   UNL     1       2.031   2.152  17.826  0.00  0.00    +0.000 A 
ATOM      8  C   UNL     1       3.061   3.090  17.928  0.00  0.00    +0.000 A 
ATOM      9  N   UNL     1       4.143   3.024  17.043  0.00  0.00    +0.000 NA
ATOM     10  C   UNL     1       5.047   3.954  17.091  0.00  0.00    +0.000 A 
ATOM     11  N   UNL     1       5.030   5.007  18.011  0.00  0.00    +0.000 N 
ENDROOT
BRANCH  11  12
ATOM     12  C   UNL     1       6.018   6.040  18.084  0.00  0.00    +0.000 A 
ATOM     13  C   UNL     1       5.960   7.175  17.265  0.00  0.00    +0.000 A 
ATOM     14  C   UNL     1       7.033   8.072  17.234  0.00  0.00    +0.000 A 
ATOM     15  C   UNL     1       8.164   7.848  18.021  0.00  0.00    +0.000 A 
ATOM     16  C   UNL     1       8.220   6.735  18.855  0.00  0.00    +0.000 A 
ATOM     17  C   UNL     1       7.155   5.837  18.883  0.00  0.00    +0.000 A 
ENDBRANCH  11  12
BRANCH  10  18
ATOM     18  S   UNL     1       6.325   3.908  15.877  0.00  0.00    +0.000 S 
BRANCH  18  19
ATOM     19  C   UNL     1       5.426   4.088  14.308  0.00  0.00    +0.000 C 
BRANCH  19  20
ATOM     20  C   UNL     1       6.340   3.961  13.091  0.00  0.00    +0.000 C 
BRANCH  20  21
ATOM     21  C   UNL     1       5.803   2.900  12.136  0.00  0.00    +0.000 C 
ATOM     22 CL   UNL     1       4.238   3.402  11.458  0.00  0.00    +0.000 Cl
ENDBRANCH  20  21
ENDBRANCH  19  20
ENDBRANCH  18  19
ENDBRANCH  10  18
TORSDOF 5
ENDMDL
MODEL 3
REMARK VINA RESULT:      -7.2      3.561      6.528
REMARK  Name = 
REMARK  5 active torsions:
REMARK  status: ('A' for Active; 'I' for Inactive)
REMARK    1  A    between atoms: C_10  and  S_11
REMARK    2  A    between atoms: S_11  and  C_12
REMARK    3  A    between atoms: C_12  and  C_13
REMARK    4  A    between atoms: C_13  and  C_14
REMARK    5  A    between atoms: N_16  and  C_17
REMARK                            x       y       z     vdW  Elec       q    Type
REMARK                         _______ _______ _______ _____ _____    ______ ____
ROOT
ATOM      1  O   UNL     1       4.166   2.616  17.875  0.00  0.00    +0.000 OA
ATOM      2  C   UNL     1       4.114   3.822  17.631  0.00  0.00    +0.000 A 
ATOM      3  C   UNL     1       4.921   4.322  16.514  0.00  0.00    +0.000 A 
ATOM      4  C   UNL     1       5.604   3.426  15.673  0.00  0.00    +0.000 A 
ATOM      5  C   UNL     1       6.334   3.918  14.601  0.00  0.00    +0.000 A 
ATOM      6  C   UNL     1       6.393   5.292  14.377  0.00  0.00    +0.000 A 
ATOM      7  C   UNL     1       5.717   6.173  15.231  0.00  0.00    +0.000 A 
ATOM      8  C   UNL     1       4.970   5.693  16.310  0.00  0.00    +0.000 A 
ATOM      9  N   UNL     1       4.274   6.597  17.121  0.00  0.00    +0.000 NA
ATOM     10  C   UNL     1       3.513   6.131  18.063  0.00  0.00    +0.000 A 
ATOM     11  N   UNL     1       3.377   4.770  18.351  0.00  0.00    +0.000 N 
ENDROOT
BRANCH  11  12
ATOM     12  C   UNL     1       2.547   4.236  19.388  0.00  0.00    +0.000 A 
ATOM     13  C   UNL     1       2.990   4.144  20.713  0.00  0.00    +0.000 A 
ATOM     14  C   UNL     1       2.226   3.453  21.661  0.00  0.00    +0.000 A 
ATOM     15  C   UNL     1       1.018   2.859  21.296  0.00  0.00    +0.000 A 
ATOM     16  C   UNL     1       0.558   2.966  19.986  0.00  0.00    +0.000 A 
ATOM     17  C   UNL     1       1.320   3.647  19.039  0.00  0.00    +0.000 A 
ENDBRANCH  11  12
BRANCH  10  18
ATOM     18  S   UNL     1       2.553   7.293  18.980  0.00  0.00    +0.000 S 
BRANCH  18  19
ATOM     19  C   UNL     1       1.893   8.401  17.701  0.00  0.00    +0.000 C 
BRANCH  19  20
ATOM     20  C   UNL     1       1.763   9.843  18.186  0.00  0.00    +0.000 C 
BRANCH  20  21
ATOM     21  C   UNL     1       0.425  10.044  18.891  0.00  0.00    +0.000 C 
ATOM     22 CL   UNL     1      -0.913   9.992  17.721  0.00  0.00    +0.000 Cl
ENDBRANCH  20  21
ENDBRANCH  19  20
ENDBRANCH  18  19
ENDBRANCH  10  18
TORSDOF 5
ENDMDL
MODEL 4
REMARK VINA RESULT:      -7.0      3.308      4.939
REMARK  Name = 
REMARK  5 active torsions:
REMARK  status: ('A' for Active; 'I' for Inactive)
REMARK    1  A    between atoms: C_10  and  S_11
REMARK    2  A    between atoms: S_11  and  C_12
REMARK    3  A    between atoms: C_12  and  C_13
REMARK    4  A    between atoms: C_13  and  C_14
REMARK    5  A    between atoms: N_16  and  C_17
REMARK                            x       y       z     vdW  Elec       q    Type
REMARK                         _______ _______ _______ _____ _____    ______ ____
ROOT
ATOM      1  O   UNL     1       4.089   7.686  16.405  0.00  0.00    +0.000 OA
ATOM      2  C   UNL     1       3.808   7.017  17.400  0.00  0.00    +0.000 A 
ATOM      3  C   UNL     1       2.852   7.591  18.352  0.00  0.00    +0.000 A 
ATOM      4  C   UNL     1       2.181   8.789  18.052  0.00  0.00    +0.000 A 
ATOM      5  C   UNL     1       1.255   9.297  18.952  0.00  0.00    +0.000 A 
ATOM      6  C   UNL     1       1.010   8.622  20.146  0.00  0.00    +0.000 A 
ATOM      7  C   UNL     1       1.695   7.435  20.437  0.00  0.00    +0.000 A 
ATOM      8  C   UNL     1       2.624   6.906  19.537  0.00  0.00    +0.000 A 
ATOM      9  N   UNL     1       3.263   5.697  19.839  0.00  0.00    +0.000 NA
ATOM     10  C   UNL     1       4.055   5.173  18.955  0.00  0.00    +0.000 A 
ATOM     11  N   UNL     1       4.348   5.766  17.724  0.00  0.00    +0.000 N 
ENDROOT
BRANCH  11  12
ATOM     12  C   UNL     1       5.221   5.207  16.737  0.00  0.00    +0.000 A 
ATOM     13  C   UNL     1       6.592   5.492  16.719  0.00  0.00    +0.000 A 
ATOM     14  C   UNL     1       7.380   5.077  15.640  0.00  0.00    +0.000 A 
ATOM     15  C   UNL     1       6.809   4.372  14.579  0.00  0.00    +0.000 A 
ATOM     16  C   UNL     1       5.452   4.063  14.600  0.00  0.00    +0.000 A 
ATOM     17  C   UNL     1       4.664   4.482  15.671  0.00  0.00    +0.000 A 
ENDBRANCH  11  12
BRANCH  10  18
ATOM     18  S   UNL     1       4.740   3.589  19.318  0.00  0.00    +0.000 S 
BRANCH  18  19
ATOM     19  C   UNL     1       3.319   2.467  19.164  0.00  0.00    +0.000 C 
BRANCH  19  20
ATOM     20  C   UNL     1       2.311   2.940  18.119  0.00  0.00    +0.000 C 
BRANCH  20  21
ATOM     21  C   UNL     1       0.910   2.990  18.721  0.00  0.00    +0.000 C 
ATOM     22 CL   UNL     1       0.996   3.167  20.489  0.00  0.00    +0.000 Cl
ENDBRANCH  20  21
ENDBRANCH  19  20
ENDBRANCH  18  19
ENDBRANCH  10  18
TORSDOF 5
ENDMDL
MODEL 5
REMARK VINA RESULT:      -6.9      3.662      6.638
REMARK  Name = 
REMARK  5 active torsions:
REMARK  status: ('A' for Active; 'I' for Inactive)
REMARK    1  A    between atoms: C_10  and  S_11
REMARK    2  A    between atoms: S_11  and  C_12
REMARK    3  A    between atoms: C_12  and  C_13
REMARK    4  A    between atoms: C_13  and  C_14
REMARK    5  A    between atoms: N_16  and  C_17
REMARK                            x       y       z     vdW  Elec       q    Type
REMARK                         _______ _______ _______ _____ _____    ______ ____
ROOT
ATOM      1  O   UNL     1       4.288   2.314  17.572  0.00  0.00    +0.000 OA
ATOM      2  C   UNL     1       4.206   3.534  17.420  0.00  0.00    +0.000 A 
ATOM      3  C   UNL     1       4.981   4.133  16.330  0.00  0.00    +0.000 A 
ATOM      4  C   UNL     1       5.669   3.318  15.415  0.00  0.00    +0.000 A 
ATOM      5  C   UNL     1       6.370   3.905  14.371  0.00  0.00    +0.000 A 
ATOM      6  C   UNL     1       6.394   5.293  14.249  0.00  0.00    +0.000 A 
ATOM      7  C   UNL     1       5.715   6.093  15.177  0.00  0.00    +0.000 A 
ATOM      8  C   UNL     1       4.997   5.517  16.228  0.00  0.00    +0.000 A 
ATOM      9  N   UNL     1       4.295   6.342  17.116  0.00  0.00    +0.000 NA
ATOM     10  C   UNL     1       3.562   5.790  18.032  0.00  0.00    +0.000 A 
ATOM     11  N   UNL     1       3.460   4.408  18.220  0.00  0.00    +0.000 N 
ENDROOT
BRANCH  11  12
ATOM     12  C   UNL     1       2.660   3.780  19.227  0.00  0.00    +0.000 A 
ATOM     13  C   UNL     1       1.299   3.520  19.032  0.00  0.00    +0.000 A 
ATOM     14  C   UNL     1       0.510   3.073  20.098  0.00  0.00    +0.000 A 
ATOM     15  C   UNL     1       1.075   2.877  21.359  0.00  0.00    +0.000 A 
ATOM     16  C   UNL     1       2.433   3.109  21.557  0.00  0.00    +0.000 A 
ATOM     17  C   UNL     1       3.218   3.561  20.498  0.00  0.00    +0.000 A 
ENDBRANCH  11  12
BRANCH  10  18
ATOM     18  S   UNL     1       2.593   6.858  19.048  0.00  0.00    +0.000 S 
BRANCH  18  19
ATOM     19  C   UNL     1       2.652   8.447  18.170  0.00  0.00    +0.000 C 
BRANCH  19  20
ATOM     20  C   UNL     1       1.262   8.971  17.814  0.00  0.00    +0.000 C 
BRANCH  20  21
ATOM     21  C   UNL     1       0.916  10.180  18.678  0.00  0.00    +0.000 C 
ATOM     22 CL   UNL     1       0.303   9.659  20.264  0.00  0.00    +0.000 Cl
ENDBRANCH  20  21
ENDBRANCH  19  20
ENDBRANCH  18  19
ENDBRANCH  10  18
TORSDOF 5
ENDMDL
MODEL 6
REMARK VINA RESULT:      -6.9      3.356      5.023
REMARK  Name = 
REMARK  5 active torsions:
REMARK  status: ('A' for Active; 'I' for Inactive)
REMARK    1  A    between atoms: C_10  and  S_11
REMARK    2  A    between atoms: S_11  and  C_12
REMARK    3  A    between atoms: C_12  and  C_13
REMARK    4  A    between atoms: C_13  and  C_14
REMARK    5  A    between atoms: N_16  and  C_17
REMARK                            x       y       z     vdW  Elec       q    Type
REMARK                         _______ _______ _______ _____ _____    ______ ____
ROOT
ATOM      1  O   UNL     1       3.729   7.955  16.714  0.00  0.00    +0.000 OA
ATOM      2  C   UNL     1       3.508   7.218  17.676  0.00  0.00    +0.000 A 
ATOM      3  C   UNL     1       2.563   7.696  18.690  0.00  0.00    +0.000 A 
ATOM      4  C   UNL     1       1.837   8.882  18.484  0.00  0.00    +0.000 A 
ATOM      5  C   UNL     1       0.924   9.298  19.442  0.00  0.00    +0.000 A 
ATOM      6  C   UNL     1       0.745   8.545  20.600  0.00  0.00    +0.000 A 
ATOM      7  C   UNL     1       1.485   7.372  20.797  0.00  0.00    +0.000 A 
ATOM      8  C   UNL     1       2.402   6.934  19.839  0.00  0.00    +0.000 A 
ATOM      9  N   UNL     1       3.097   5.737  20.047  0.00  0.00    +0.000 NA
ATOM     10  C   UNL     1       3.878   5.298  19.109  0.00  0.00    +0.000 A 
ATOM     11  N   UNL     1       4.105   5.974  17.906  0.00  0.00    +0.000 N 
ENDROOT
BRANCH  11  12
ATOM     12  C   UNL     1       4.966   5.509  16.861  0.00  0.00    +0.000 A 
ATOM     13  C   UNL     1       4.544   4.552  15.930  0.00  0.00    +0.000 A 
ATOM     14  C   UNL     1       5.464   3.989  15.038  0.00  0.00    +0.000 A 
ATOM     15  C   UNL     1       6.803   4.382  15.064  0.00  0.00    +0.000 A 
ATOM     16  C   UNL     1       7.226   5.350  15.969  0.00  0.00    +0.000 A 
ATOM     17  C   UNL     1       6.313   5.906  16.864  0.00  0.00    +0.000 A 
ENDBRANCH  11  12
BRANCH  10  18
ATOM     18  S   UNL     1       4.636   3.724  19.353  0.00  0.00    +0.000 S 
BRANCH  18  19
ATOM     19  C   UNL     1       3.261   2.674  19.910  0.00  0.00    +0.000 C 
BRANCH  19  20
ATOM     20  C   UNL     1       2.489   2.054  18.747  0.00  0.00    +0.000 C 
BRANCH  20  21
ATOM     21  C   UNL     1       1.073   2.619  18.693  0.00  0.00    +0.000 C 
ATOM     22 CL   UNL     1       0.656   3.412  20.229  0.00  0.00    +0.000 Cl
ENDBRANCH  20  21
ENDBRANCH  19  20
ENDBRANCH  18  19
ENDBRANCH  10  18
TORSDOF 5
ENDMDL
MODEL 7
REMARK VINA RESULT:      -6.9      4.037      5.828
REMARK  Name = 
REMARK  5 active torsions:
REMARK  status: ('A' for Active; 'I' for Inactive)
REMARK    1  A    between atoms: C_10  and  S_11
REMARK    2  A    between atoms: S_11  and  C_12
REMARK    3  A    between atoms: C_12  and  C_13
REMARK    4  A    between atoms: C_13  and  C_14
REMARK    5  A    between atoms: N_16  and  C_17
REMARK                            x       y       z     vdW  Elec       q    Type
REMARK                         _______ _______ _______ _____ _____    ______ ____
ROOT
ATOM      1  O   UNL     1       3.339   8.112  17.437  0.00  0.00    +0.000 OA
ATOM      2  C   UNL     1       2.692   7.757  18.424  0.00  0.00    +0.000 A 
ATOM      3  C   UNL     1       1.743   8.720  18.991  0.00  0.00    +0.000 A 
ATOM      4  C   UNL     1       1.486   9.936  18.336  0.00  0.00    +0.000 A 
ATOM      5  C   UNL     1       0.558  10.818  18.872  0.00  0.00    +0.000 A 
ATOM      6  C   UNL     1      -0.097  10.494  20.058  0.00  0.00    +0.000 A 
ATOM      7  C   UNL     1       0.178   9.283  20.706  0.00  0.00    +0.000 A 
ATOM      8  C   UNL     1       1.103   8.381  20.174  0.00  0.00    +0.000 A 
ATOM      9  N   UNL     1       1.327   7.162  20.825  0.00  0.00    +0.000 NA
ATOM     10  C   UNL     1       2.120   6.296  20.273  0.00  0.00    +0.000 A 
ATOM     11  N   UNL     1       2.807   6.524  19.076  0.00  0.00    +0.000 N 
ENDROOT
BRANCH  11  12
ATOM     12  C   UNL     1       3.690   5.586  18.452  0.00  0.00    +0.000 A 
ATOM     13  C   UNL     1       5.034   5.475  18.828  0.00  0.00    +0.000 A 
ATOM     14  C   UNL     1       5.909   4.681  18.078  0.00  0.00    +0.000 A 
ATOM     15  C   UNL     1       5.448   3.989  16.958  0.00  0.00    +0.000 A 
ATOM     16  C   UNL     1       4.108   4.073  16.591  0.00  0.00    +0.000 A 
ATOM     17  C   UNL     1       3.237   4.870  17.332  0.00  0.00    +0.000 A 
ENDBRANCH  11  12
BRANCH  10  18
ATOM     18  S   UNL     1       2.277   4.723  21.055  0.00  0.00    +0.000 S 
BRANCH  18  19
ATOM     19  C   UNL     1       0.921   3.754  20.333  0.00  0.00    +0.000 C 
BRANCH  19  20
ATOM     20  C   UNL     1       1.421   2.548  19.540  0.00  0.00    +0.000 C 
BRANCH  20  21
ATOM     21  C   UNL     1       2.895   2.295  19.838  0.00  0.00    +0.000 C 
ATOM     22 CL   UNL     1       3.623   1.273  18.577  0.00  0.00    +0.000 Cl
ENDBRANCH  20  21
ENDBRANCH  19  20
ENDBRANCH  18  19
ENDBRANCH  10  18
TORSDOF 5
ENDMDL
MODEL 8
REMARK VINA RESULT:      -6.8      3.337      6.246
REMARK  Name = 
REMARK  5 active torsions:
REMARK  status: ('A' for Active; 'I' for Inactive)
REMARK    1  A    between atoms: C_10  and  S_11
REMARK    2  A    between atoms: S_11  and  C_12
REMARK    3  A    between atoms: C_12  and  C_13
REMARK    4  A    between atoms: C_13  and  C_14
REMARK    5  A    between atoms: N_16  and  C_17
REMARK                            x       y       z     vdW  Elec       q    Type
REMARK                         _______ _______ _______ _____ _____    ______ ____
ROOT
ATOM      1  O   UNL     1       3.969   3.666  15.864  0.00  0.00    +0.000 OA
ATOM      2  C   UNL     1       5.022   4.305  15.855  0.00  0.00    +0.000 A 
ATOM      3  C   UNL     1       5.800   4.308  14.613  0.00  0.00    +0.000 A 
ATOM      4  C   UNL     1       5.280   3.724  13.446  0.00  0.00    +0.000 A 
ATOM      5  C   UNL     1       6.019   3.768  12.272  0.00  0.00    +0.000 A 
ATOM      6  C   UNL     1       7.272   4.377  12.267  0.00  0.00    +0.000 A 
ATOM      7  C   UNL     1       7.783   4.944  13.441  0.00  0.00    +0.000 A 
ATOM      8  C   UNL     1       7.047   4.917  14.629  0.00  0.00    +0.000 A 
ATOM      9  N   UNL     1       7.568   5.527  15.776  0.00  0.00    +0.000 NA
ATOM     10  C   UNL     1       6.836   5.572  16.846  0.00  0.00    +0.000 A 
ATOM     11  N   UNL     1       5.562   5.005  16.941  0.00  0.00    +0.000 N 
ENDROOT
BRANCH  11  12
ATOM     12  C   UNL     1       4.740   5.039  18.112  0.00  0.00    +0.000 A 
ATOM     13  C   UNL     1       4.678   3.960  19.002  0.00  0.00    +0.000 A 
ATOM     14  C   UNL     1       3.732   3.954  20.033  0.00  0.00    +0.000 A 
ATOM     15  C   UNL     1       2.850   5.025  20.186  0.00  0.00    +0.000 A 
ATOM     16  C   UNL     1       2.920   6.113  19.322  0.00  0.00    +0.000 A 
ATOM     17  C   UNL     1       3.857   6.117  18.290  0.00  0.00    +0.000 A 
ENDBRANCH  11  12
BRANCH  10  18
ATOM     18  S   UNL     1       7.474   6.461  18.230  0.00  0.00    +0.000 S 
BRANCH  18  19
ATOM     19  C   UNL     1       7.537   8.177  17.638  0.00  0.00    +0.000 C 
BRANCH  19  20
ATOM     20  C   UNL     1       8.624   8.996  18.332  0.00  0.00    +0.000 C 
BRANCH  20  21
ATOM     21  C   UNL     1       8.572  10.447  17.863  0.00  0.00    +0.000 C 
ATOM     22 CL   UNL     1       9.699  11.450  18.804  0.00  0.00    +0.000 Cl
ENDBRANCH  20  21
ENDBRANCH  19  20
ENDBRANCH  18  19
ENDBRANCH  10  18
TORSDOF 5
ENDMDL
MODEL 9
REMARK VINA RESULT:      -6.6      4.301      6.125
REMARK  Name = 
REMARK  5 active torsions:
REMARK  status: ('A' for Active; 'I' for Inactive)
REMARK    1  A    between atoms: C_10  and  S_11
REMARK    2  A    between atoms: S_11  and  C_12
REMARK    3  A    between atoms: C_12  and  C_13
REMARK    4  A    between atoms: C_13  and  C_14
REMARK    5  A    between atoms: N_16  and  C_17
REMARK                            x       y       z     vdW  Elec       q    Type
REMARK                         _______ _______ _______ _____ _____    ______ ____
ROOT
ATOM      1  O   UNL     1       2.573   8.789  17.222  0.00  0.00    +0.000 OA
ATOM      2  C   UNL     1       2.185   8.323  18.294  0.00  0.00    +0.000 A 
ATOM      3  C   UNL     1       1.313   9.162  19.121  0.00  0.00    +0.000 A 
ATOM      4  C   UNL     1       0.828  10.386  18.628  0.00  0.00    +0.000 A 
ATOM      5  C   UNL     1      -0.024  11.149  19.414  0.00  0.00    +0.000 A 
ATOM      6  C   UNL     1      -0.379  10.701  20.685  0.00  0.00    +0.000 A 
ATOM      7  C   UNL     1       0.122   9.485  21.167  0.00  0.00    +0.000 A 
ATOM      8  C   UNL     1       0.973   8.700  20.385  0.00  0.00    +0.000 A 
ATOM      9  N   UNL     1       1.425   7.471  20.879  0.00  0.00    +0.000 NA
ATOM     10  C   UNL     1       2.142   6.714  20.108  0.00  0.00    +0.000 A 
ATOM     11  N   UNL     1       2.533   7.070  18.813  0.00  0.00    +0.000 N 
ENDROOT
BRANCH  11  12
ATOM     12  C   UNL     1       3.326   6.251  17.948  0.00  0.00    +0.000 A 
ATOM     13  C   UNL     1       2.861   5.023  17.463  0.00  0.00    +0.000 A 
ATOM     14  C   UNL     1       3.727   4.169  16.772  0.00  0.00    +0.000 A 
ATOM     15  C   UNL     1       5.055   4.537  16.553  0.00  0.00    +0.000 A 
ATOM     16  C   UNL     1       5.520   5.766  17.010  0.00  0.00    +0.000 A 
ATOM     17  C   UNL     1       4.661   6.615  17.705  0.00  0.00    +0.000 A 
ENDBRANCH  11  12
BRANCH  10  18
ATOM     18  S   UNL     1       2.584   5.119  20.718  0.00  0.00    +0.000 S 
BRANCH  18  19
ATOM     19  C   UNL     1       1.054   4.157  20.536  0.00  0.00    +0.000 C 
BRANCH  19  20
ATOM     20  C   UNL     1       1.304   2.650  20.552  0.00  0.00    +0.000 C 
BRANCH  20  21
ATOM     21  C   UNL     1       1.460   2.126  19.128  0.00  0.00    +0.000 C 
ATOM     22 CL   UNL     1       3.128   1.579  18.841  0.00  0.00    +0.000 Cl
ENDBRANCH  20  21
ENDBRANCH  19  20
ENDBRANCH  18  19
ENDBRANCH  10  18
TORSDOF 5
ENDMDL
