MODEL 1
REMARK VINA RESULT:      -7.2      0.000      0.000
REMARK  Name = 
REMARK  10 active torsions:
REMARK  status: ('A' for Active; 'I' for Inactive)
REMARK    1  A    between atoms: C_1  and  C_2
REMARK    2  A    between atoms: C_2  and  C_3
REMARK    3  A    between atoms: C_3  and  C_4
REMARK    4  A    between atoms: C_4  and  C_5
REMARK    5  A    between atoms: C_5  and  C_6
REMARK    6  A    between atoms: C_6  and  C_7
REMARK    7  A    between atoms: C_7  and  C_8
REMARK    8  A    between atoms: C_8  and  N_9
REMARK    9  A    between atoms: N_9  and  C_10
REMARK   10  A    between atoms: N_17  and  C_18
REMARK                            x       y       z     vdW  Elec       q    Type
REMARK                         _______ _______ _______ _____ _____    ______ ____
ROOT
ATOM      1  C   UNL     1       3.093   5.933  18.617  0.00  0.00    +0.000 A 
ATOM      2  C   UNL     1       2.526   4.810  19.288  0.00  0.00    +0.000 A 
ATOM      3  C   UNL     1       1.494   4.907  20.252  0.00  0.00    +0.000 A 
ATOM      4  C   UNL     1       1.138   3.860  21.095  0.00  0.00    +0.000 A 
ATOM      5  C   UNL     1       1.739   2.632  20.923  0.00  0.00    +0.000 A 
ATOM      6  C   UNL     1       2.625   2.450  19.861  0.00  0.00    +0.000 A 
ATOM      7  C   UNL     1       2.989   3.507  18.992  0.00  0.00    +0.000 A 
ATOM      8  N   UNL     1       3.754   3.303  17.869  0.00  0.00    +0.000 N 
ATOM      9  C   UNL     1       3.994   1.922  17.370  0.00  0.00    +0.000 C 
ATOM     10  C   UNL     1       4.245   4.355  17.131  0.00  0.00    +0.000 A 
ATOM     11  C   UNL     1       5.064   4.121  15.990  0.00  0.00    +0.000 A 
ATOM     12  C   UNL     1       5.609   5.160  15.237  0.00  0.00    +0.000 A 
ATOM     13  C   UNL     1       5.363   6.468  15.617  0.00  0.00    +0.000 A 
ATOM     14  C   UNL     1       4.558   6.723  16.726  0.00  0.00    +0.000 A 
ATOM     15  C   UNL     1       3.958   5.693  17.509  0.00  0.00    +0.000 A 
ENDROOT
BRANCH   1  16
ATOM     16  N   UNL     1       2.772   7.271  19.001  0.00  0.00    +0.000 N 
ATOM     17  H   UNL     1       2.530   7.346  19.986  0.00  0.00    +0.000 HD
BRANCH  16  18
ATOM     18  C   UNL     1       1.740   7.993  18.231  0.00  0.00    +0.000 C 
BRANCH  18  19
ATOM     19  C   UNL     1       2.205   9.405  17.868  0.00  0.00    +0.000 C 
BRANCH  19  20
ATOM     20  C   UNL     1       1.274  10.476  18.466  0.00  0.00    +0.000 C 
BRANCH  20  21
ATOM     21  C   UNL     1      -0.128   9.937  18.740  0.00  0.00    +0.000 C 
BRANCH  21  22
ATOM     22  C   UNL     1      -1.224  10.775  18.084  0.00  0.00    +0.000 C 
BRANCH  22  23
ATOM     23  C   UNL     1      -2.025   9.912  17.108  0.00  0.00    +0.000 C 
BRANCH  23  25
ATOM     24  C   UNL     1      -2.937  10.154  14.783  0.00  0.00    +0.000 C 
ATOM     25  C   UNL     1      -2.879  10.762  16.175  0.00  0.00    +0.000 C 
ENDBRANCH  23  25
ENDBRANCH  22  23
ENDBRANCH  21  22
ENDBRANCH  20  21
ENDBRANCH  19  20
ENDBRANCH  18  19
ENDBRANCH  16  18
ENDBRANCH   1  16
TORSDOF 8
ENDMDL
MODEL 2
REMARK VINA RESULT:      -7.1      1.977      4.599
REMARK  Name = 
REMARK  10 active torsions:
REMARK  status: ('A' for Active; 'I' for Inactive)
REMARK    1  A    between atoms: C_1  and  C_2
REMARK    2  A    between atoms: C_2  and  C_3
REMARK    3  A    between atoms: C_3  and  C_4
REMARK    4  A    between atoms: C_4  and  C_5
REMARK    5  A    between atoms: C_5  and  C_6
REMARK    6  A    between atoms: C_6  and  C_7
REMARK    7  A    between atoms: C_7  and  C_8
REMARK    8  A    between atoms: C_8  and  N_9
REMARK    9  A    between atoms: N_9  and  C_10
REMARK   10  A    between atoms: N_17  and  C_18
REMARK                            x       y       z     vdW  Elec       q    Type
REMARK                         _______ _______ _______ _____ _____    ______ ____
ROOT
ATOM      1  C   UNL     1       3.693   5.788  18.359  0.00  0.00    +0.000 A 
ATOM      2  C   UNL     1       4.643   5.219  17.463  0.00  0.00    +0.000 A 
ATOM      3  C   UNL     1       5.703   5.948  16.872  0.00  0.00    +0.000 A 
ATOM      4  C   UNL     1       6.452   5.471  15.800  0.00  0.00    +0.000 A 
ATOM      5  C   UNL     1       6.230   4.188  15.351  0.00  0.00    +0.000 A 
ATOM      6  C   UNL     1       5.322   3.375  16.032  0.00  0.00    +0.000 A 
ATOM      7  C   UNL     1       4.560   3.848  17.128  0.00  0.00    +0.000 A 
ATOM      8  N   UNL     1       3.767   3.017  17.883  0.00  0.00    +0.000 N 
ATOM      9  C   UNL     1       3.895   1.541  17.752  0.00  0.00    +0.000 C 
ATOM     10  C   UNL     1       2.901   3.513  18.830  0.00  0.00    +0.000 A 
ATOM     11  C   UNL     1       2.064   2.636  19.577  0.00  0.00    +0.000 A 
ATOM     12  C   UNL     1       1.150   3.102  20.521  0.00  0.00    +0.000 A 
ATOM     13  C   UNL     1       1.035   4.465  20.732  0.00  0.00    +0.000 A 
ATOM     14  C   UNL     1       1.850   5.343  20.018  0.00  0.00    +0.000 A 
ATOM     15  C   UNL     1       2.817   4.911  19.063  0.00  0.00    +0.000 A 
ENDROOT
BRANCH   1  16
ATOM     16  N   UNL     1       3.640   7.196  18.596  0.00  0.00    +0.000 N 
ATOM     17  H   UNL     1       3.198   7.426  19.482  0.00  0.00    +0.000 HD
BRANCH  16  18
ATOM     18  C   UNL     1       3.039   8.060  17.560  0.00  0.00    +0.000 C 
BRANCH  18  19
ATOM     19  C   UNL     1       1.607   8.456  17.931  0.00  0.00    +0.000 C 
BRANCH  19  20
ATOM     20  C   UNL     1       1.527   9.929  18.371  0.00  0.00    +0.000 C 
BRANCH  20  21
ATOM     21  C   UNL     1       0.851  10.093  19.730  0.00  0.00    +0.000 C 
BRANCH  21  22
ATOM     22  C   UNL     1       0.871   8.812  20.560  0.00  0.00    +0.000 C 
BRANCH  22  23
ATOM     23  C   UNL     1      -0.243   8.853  21.607  0.00  0.00    +0.000 C 
BRANCH  23  25
ATOM     24  C   UNL     1      -1.065  10.668  23.132  0.00  0.00    +0.000 C 
ATOM     25  C   UNL     1       0.109   9.774  22.769  0.00  0.00    +0.000 C 
ENDBRANCH  23  25
ENDBRANCH  22  23
ENDBRANCH  21  22
ENDBRANCH  20  21
ENDBRANCH  19  20
ENDBRANCH  18  19
ENDBRANCH  16  18
ENDBRANCH   1  16
TORSDOF 8
ENDMDL
MODEL 3
REMARK VINA RESULT:      -7.0      1.457      2.472
REMARK  Name = 
REMARK  10 active torsions:
REMARK  status: ('A' for Active; 'I' for Inactive)
REMARK    1  A    between atoms: C_1  and  C_2
REMARK    2  A    between atoms: C_2  and  C_3
REMARK    3  A    between atoms: C_3  and  C_4
REMARK    4  A    between atoms: C_4  and  C_5
REMARK    5  A    between atoms: C_5  and  C_6
REMARK    6  A    between atoms: C_6  and  C_7
REMARK    7  A    between atoms: C_7  and  C_8
REMARK    8  A    between atoms: C_8  and  N_9
REMARK    9  A    between atoms: N_9  and  C_10
REMARK   10  A    between atoms: N_17  and  C_18
REMARK                            x       y       z     vdW  Elec       q    Type
REMARK                         _______ _______ _______ _____ _____    ______ ____
ROOT
ATOM      1  C   UNL     1       3.196   5.912  18.395  0.00  0.00    +0.000 A 
ATOM      2  C   UNL     1       2.579   4.884  19.164  0.00  0.00    +0.000 A 
ATOM      3  C   UNL     1       1.523   5.112  20.080  0.00  0.00    +0.000 A 
ATOM      4  C   UNL     1       1.113   4.171  21.020  0.00  0.00    +0.000 A 
ATOM      5  C   UNL     1       1.682   2.917  20.999  0.00  0.00    +0.000 A 
ATOM      6  C   UNL     1       2.591   2.598  19.990  0.00  0.00    +0.000 A 
ATOM      7  C   UNL     1       3.011   3.544  19.025  0.00  0.00    +0.000 A 
ATOM      8  N   UNL     1       3.800   3.200  17.953  0.00  0.00    +0.000 N 
ATOM      9  C   UNL     1       4.013   1.768  17.613  0.00  0.00    +0.000 C 
ATOM     10  C   UNL     1       4.343   4.153  17.122  0.00  0.00    +0.000 A 
ATOM     11  C   UNL     1       5.185   3.775  16.039  0.00  0.00    +0.000 A 
ATOM     12  C   UNL     1       5.781   4.712  15.195  0.00  0.00    +0.000 A 
ATOM     13  C   UNL     1       5.563   6.059  15.425  0.00  0.00    +0.000 A 
ATOM     14  C   UNL     1       4.736   6.454  16.475  0.00  0.00    +0.000 A 
ATOM     15  C   UNL     1       4.084   5.531  17.346  0.00  0.00    +0.000 A 
ENDROOT
BRANCH   1  16
ATOM     16  N   UNL     1       2.905   7.292  18.622  0.00  0.00    +0.000 N 
ATOM     17  H   UNL     1       2.627   7.478  19.582  0.00  0.00    +0.000 HD
BRANCH  16  18
ATOM     18  C   UNL     1       1.928   7.957  17.738  0.00  0.00    +0.000 C 
BRANCH  18  19
ATOM     19  C   UNL     1       1.819   9.451  18.056  0.00  0.00    +0.000 C 
BRANCH  19  20
ATOM     20  C   UNL     1       0.349   9.897  18.166  0.00  0.00    +0.000 C 
BRANCH  20  21
ATOM     21  C   UNL     1       0.202  11.241  18.874  0.00  0.00    +0.000 C 
BRANCH  21  22
ATOM     22  C   UNL     1       0.651  11.194  20.333  0.00  0.00    +0.000 C 
BRANCH  22  23
ATOM     23  C   UNL     1      -0.412  10.498  21.183  0.00  0.00    +0.000 C 
BRANCH  23  25
ATOM     24  C   UNL     1       1.055   8.509  21.622  0.00  0.00    +0.000 C 
ATOM     25  C   UNL     1       0.214   9.608  22.251  0.00  0.00    +0.000 C 
ENDBRANCH  23  25
ENDBRANCH  22  23
ENDBRANCH  21  22
ENDBRANCH  20  21
ENDBRANCH  19  20
ENDBRANCH  18  19
ENDBRANCH  16  18
ENDBRANCH   1  16
TORSDOF 8
ENDMDL
MODEL 4
REMARK VINA RESULT:      -6.9      0.553      3.822
REMARK  Name = 
REMARK  10 active torsions:
REMARK  status: ('A' for Active; 'I' for Inactive)
REMARK    1  A    between atoms: C_1  and  C_2
REMARK    2  A    between atoms: C_2  and  C_3
REMARK    3  A    between atoms: C_3  and  C_4
REMARK    4  A    between atoms: C_4  and  C_5
REMARK    5  A    between atoms: C_5  and  C_6
REMARK    6  A    between atoms: C_6  and  C_7
REMARK    7  A    between atoms: C_7  and  C_8
REMARK    8  A    between atoms: C_8  and  N_9
REMARK    9  A    between atoms: N_9  and  C_10
REMARK   10  A    between atoms: N_17  and  C_18
REMARK                            x       y       z     vdW  Elec       q    Type
REMARK                         _______ _______ _______ _____ _____    ______ ____
ROOT
ATOM      1  C   UNL     1       3.188   5.910  18.569  0.00  0.00    +0.000 A 
ATOM      2  C   UNL     1       4.116   5.582  17.538  0.00  0.00    +0.000 A 
ATOM      3  C   UNL     1       4.977   6.525  16.924  0.00  0.00    +0.000 A 
ATOM      4  C   UNL     1       5.673   6.267  15.748  0.00  0.00    +0.000 A 
ATOM      5  C   UNL     1       5.614   5.004  15.201  0.00  0.00    +0.000 A 
ATOM      6  C   UNL     1       4.927   3.998  15.882  0.00  0.00    +0.000 A 
ATOM      7  C   UNL     1       4.221   4.247  17.084  0.00  0.00    +0.000 A 
ATOM      8  N   UNL     1       3.656   3.238  17.826  0.00  0.00    +0.000 N 
ATOM      9  C   UNL     1       4.006   1.819  17.545  0.00  0.00    +0.000 C 
ATOM     10  C   UNL     1       2.829   3.503  18.892  0.00  0.00    +0.000 A 
ATOM     11  C   UNL     1       2.228   2.442  19.627  0.00  0.00    +0.000 A 
ATOM     12  C   UNL     1       1.357   2.670  20.691  0.00  0.00    +0.000 A 
ATOM     13  C   UNL     1       1.048   3.973  21.041  0.00  0.00    +0.000 A 
ATOM     14  C   UNL     1       1.629   5.030  20.341  0.00  0.00    +0.000 A 
ATOM     15  C   UNL     1       2.546   4.844  19.265  0.00  0.00    +0.000 A 
ENDROOT
BRANCH   1  16
ATOM     16  N   UNL     1       2.936   7.266  18.942  0.00  0.00    +0.000 N 
ATOM     17  H   UNL     1       2.401   7.339  19.804  0.00  0.00    +0.000 HD
BRANCH  16  18
ATOM     18  C   UNL     1       2.308   8.161  17.950  0.00  0.00    +0.000 C 
BRANCH  18  19
ATOM     19  C   UNL     1       1.275   9.080  18.608  0.00  0.00    +0.000 C 
BRANCH  19  20
ATOM     20  C   UNL     1       1.511  10.554  18.230  0.00  0.00    +0.000 C 
BRANCH  20  21
ATOM     21  C   UNL     1       0.487  11.488  18.868  0.00  0.00    +0.000 C 
BRANCH  21  22
ATOM     22  C   UNL     1      -0.831  10.788  19.196  0.00  0.00    +0.000 C 
BRANCH  22  23
ATOM     23  C   UNL     1      -1.872  11.109  18.124  0.00  0.00    +0.000 C 
BRANCH  23  25
ATOM     24  C   UNL     1      -2.587  10.341  15.844  0.00  0.00    +0.000 C 
ATOM     25  C   UNL     1      -2.155   9.904  17.234  0.00  0.00    +0.000 C 
ENDBRANCH  23  25
ENDBRANCH  22  23
ENDBRANCH  21  22
ENDBRANCH  20  21
ENDBRANCH  19  20
ENDBRANCH  18  19
ENDBRANCH  16  18
ENDBRANCH   1  16
TORSDOF 8
ENDMDL
MODEL 5
REMARK VINA RESULT:      -6.9      3.326      6.560
REMARK  Name = 
REMARK  10 active torsions:
REMARK  status: ('A' for Active; 'I' for Inactive)
REMARK    1  A    between atoms: C_1  and  C_2
REMARK    2  A    between atoms: C_2  and  C_3
REMARK    3  A    between atoms: C_3  and  C_4
REMARK    4  A    between atoms: C_4  and  C_5
REMARK    5  A    between atoms: C_5  and  C_6
REMARK    6  A    between atoms: C_6  and  C_7
REMARK    7  A    between atoms: C_7  and  C_8
REMARK    8  A    between atoms: C_8  and  N_9
REMARK    9  A    between atoms: N_9  and  C_10
REMARK   10  A    between atoms: N_17  and  C_18
REMARK                            x       y       z     vdW  Elec       q    Type
REMARK                         _______ _______ _______ _____ _____    ______ ____
ROOT
ATOM      1  C   UNL     1       3.706   5.778  17.665  0.00  0.00    +0.000 A 
ATOM      2  C   UNL     1       2.859   6.652  18.405  0.00  0.00    +0.000 A 
ATOM      3  C   UNL     1       2.639   8.010  18.066  0.00  0.00    +0.000 A 
ATOM      4  C   UNL     1       2.043   8.923  18.930  0.00  0.00    +0.000 A 
ATOM      5  C   UNL     1       1.544   8.475  20.133  0.00  0.00    +0.000 A 
ATOM      6  C   UNL     1       1.575   7.110  20.418  0.00  0.00    +0.000 A 
ATOM      7  C   UNL     1       2.172   6.170  19.543  0.00  0.00    +0.000 A 
ATOM      8  N   UNL     1       2.088   4.814  19.754  0.00  0.00    +0.000 N 
ATOM      9  C   UNL     1       1.129   4.272  20.754  0.00  0.00    +0.000 C 
ATOM     10  C   UNL     1       2.815   3.922  19.001  0.00  0.00    +0.000 A 
ATOM     11  C   UNL     1       2.738   2.523  19.258  0.00  0.00    +0.000 A 
ATOM     12  C   UNL     1       3.484   1.590  18.540  0.00  0.00    +0.000 A 
ATOM     13  C   UNL     1       4.344   2.033  17.551  0.00  0.00    +0.000 A 
ATOM     14  C   UNL     1       4.432   3.397  17.274  0.00  0.00    +0.000 A 
ATOM     15  C   UNL     1       3.668   4.385  17.964  0.00  0.00    +0.000 A 
ENDROOT
BRANCH   1  16
ATOM     16  N   UNL     1       4.540   6.263  16.611  0.00  0.00    +0.000 N 
ATOM     17  H   UNL     1       4.866   5.519  15.999  0.00  0.00    +0.000 HD
BRANCH  16  18
ATOM     18  C   UNL     1       5.709   7.091  16.967  0.00  0.00    +0.000 C 
BRANCH  18  19
ATOM     19  C   UNL     1       6.901   6.222  17.377  0.00  0.00    +0.000 C 
BRANCH  19  20
ATOM     20  C   UNL     1       7.886   7.001  18.268  0.00  0.00    +0.000 C 
BRANCH  20  21
ATOM     21  C   UNL     1       8.045   8.453  17.825  0.00  0.00    +0.000 C 
BRANCH  21  22
ATOM     22  C   UNL     1       8.872   9.284  18.804  0.00  0.00    +0.000 C 
BRANCH  22  23
ATOM     23  C   UNL     1       9.134  10.671  18.216  0.00  0.00    +0.000 C 
BRANCH  23  25
ATOM     24  C   UNL     1      10.653  11.590  19.991  0.00  0.00    +0.000 C 
ATOM     25  C   UNL     1       9.302  11.723  19.307  0.00  0.00    +0.000 C 
ENDBRANCH  23  25
ENDBRANCH  22  23
ENDBRANCH  21  22
ENDBRANCH  20  21
ENDBRANCH  19  20
ENDBRANCH  18  19
ENDBRANCH  16  18
ENDBRANCH   1  16
TORSDOF 8
ENDMDL
MODEL 6
REMARK VINA RESULT:      -6.9      1.960      4.698
REMARK  Name = 
REMARK  10 active torsions:
REMARK  status: ('A' for Active; 'I' for Inactive)
REMARK    1  A    between atoms: C_1  and  C_2
REMARK    2  A    between atoms: C_2  and  C_3
REMARK    3  A    between atoms: C_3  and  C_4
REMARK    4  A    between atoms: C_4  and  C_5
REMARK    5  A    between atoms: C_5  and  C_6
REMARK    6  A    between atoms: C_6  and  C_7
REMARK    7  A    between atoms: C_7  and  C_8
REMARK    8  A    between atoms: C_8  and  N_9
REMARK    9  A    between atoms: N_9  and  C_10
REMARK   10  A    between atoms: N_17  and  C_18
REMARK                            x       y       z     vdW  Elec       q    Type
REMARK                         _______ _______ _______ _____ _____    ______ ____
ROOT
ATOM      1  C   UNL     1       3.187   6.099  18.400  0.00  0.00    +0.000 A 
ATOM      2  C   UNL     1       4.101   5.689  17.386  0.00  0.00    +0.000 A 
ATOM      3  C   UNL     1       4.995   6.569  16.729  0.00  0.00    +0.000 A 
ATOM      4  C   UNL     1       5.679   6.230  15.565  0.00  0.00    +0.000 A 
ATOM      5  C   UNL     1       5.572   4.946  15.079  0.00  0.00    +0.000 A 
ATOM      6  C   UNL     1       4.849   4.000  15.806  0.00  0.00    +0.000 A 
ATOM      7  C   UNL     1       4.154   4.331  16.994  0.00  0.00    +0.000 A 
ATOM      8  N   UNL     1       3.554   3.379  17.783  0.00  0.00    +0.000 N 
ATOM      9  C   UNL     1       3.850   1.937  17.568  0.00  0.00    +0.000 C 
ATOM     10  C   UNL     1       2.738   3.725  18.835  0.00  0.00    +0.000 A 
ATOM     11  C   UNL     1       2.100   2.722  19.619  0.00  0.00    +0.000 A 
ATOM     12  C   UNL     1       1.239   3.032  20.671  0.00  0.00    +0.000 A 
ATOM     13  C   UNL     1       0.980   4.360  20.959  0.00  0.00    +0.000 A 
ATOM     14  C   UNL     1       1.599   5.361  20.211  0.00  0.00    +0.000 A 
ATOM     15  C   UNL     1       2.506   5.091  19.145  0.00  0.00    +0.000 A 
ENDROOT
BRANCH   1  16
ATOM     16  N   UNL     1       2.986   7.479  18.709  0.00  0.00    +0.000 N 
ATOM     17  H   UNL     1       2.677   7.622  19.667  0.00  0.00    +0.000 HD
BRANCH  16  18
ATOM     18  C   UNL     1       2.103   8.273  17.832  0.00  0.00    +0.000 C 
BRANCH  18  19
ATOM     19  C   UNL     1       1.436   9.415  18.603  0.00  0.00    +0.000 C 
BRANCH  19  20
ATOM     20  C   UNL     1       0.566   8.882  19.757  0.00  0.00    +0.000 C 
BRANCH  20  21
ATOM     21  C   UNL     1       0.468   9.872  20.914  0.00  0.00    +0.000 C 
BRANCH  21  22
ATOM     22  C   UNL     1       0.373   9.186  22.275  0.00  0.00    +0.000 C 
BRANCH  22  23
ATOM     23  C   UNL     1      -0.421  10.061  23.245  0.00  0.00    +0.000 C 
BRANCH  23  25
ATOM     24  C   UNL     1      -2.233  11.786  23.045  0.00  0.00    +0.000 C 
ATOM     25  C   UNL     1      -0.837  11.380  22.603  0.00  0.00    +0.000 C 
ENDBRANCH  23  25
ENDBRANCH  22  23
ENDBRANCH  21  22
ENDBRANCH  20  21
ENDBRANCH  19  20
ENDBRANCH  18  19
ENDBRANCH  16  18
ENDBRANCH   1  16
TORSDOF 8
ENDMDL
MODEL 7
REMARK VINA RESULT:      -6.8      2.584      6.949
REMARK  Name = 
REMARK  10 active torsions:
REMARK  status: ('A' for Active; 'I' for Inactive)
REMARK    1  A    between atoms: C_1  and  C_2
REMARK    2  A    between atoms: C_2  and  C_3
REMARK    3  A    between atoms: C_3  and  C_4
REMARK    4  A    between atoms: C_4  and  C_5
REMARK    5  A    between atoms: C_5  and  C_6
REMARK    6  A    between atoms: C_6  and  C_7
REMARK    7  A    between atoms: C_7  and  C_8
REMARK    8  A    between atoms: C_8  and  N_9
REMARK    9  A    between atoms: N_9  and  C_10
REMARK   10  A    between atoms: N_17  and  C_18
REMARK                            x       y       z     vdW  Elec       q    Type
REMARK                         _______ _______ _______ _____ _____    ______ ____
ROOT
ATOM      1  C   UNL     1       3.545   5.636  17.685  0.00  0.00    +0.000 A 
ATOM      2  C   UNL     1       2.738   6.525  18.451  0.00  0.00    +0.000 A 
ATOM      3  C   UNL     1       2.554   7.893  18.133  0.00  0.00    +0.000 A 
ATOM      4  C   UNL     1       2.001   8.813  19.019  0.00  0.00    +0.000 A 
ATOM      5  C   UNL     1       1.510   8.365  20.225  0.00  0.00    +0.000 A 
ATOM      6  C   UNL     1       1.504   6.996  20.491  0.00  0.00    +0.000 A 
ATOM      7  C   UNL     1       2.057   6.049  19.595  0.00  0.00    +0.000 A 
ATOM      8  N   UNL     1       1.936   4.694  19.791  0.00  0.00    +0.000 N 
ATOM      9  C   UNL     1       0.978   4.169  20.801  0.00  0.00    +0.000 C 
ATOM     10  C   UNL     1       2.621   3.790  19.013  0.00  0.00    +0.000 A 
ATOM     11  C   UNL     1       2.506   2.391  19.255  0.00  0.00    +0.000 A 
ATOM     12  C   UNL     1       3.211   1.445  18.512  0.00  0.00    +0.000 A 
ATOM     13  C   UNL     1       4.067   1.875  17.513  0.00  0.00    +0.000 A 
ATOM     14  C   UNL     1       4.191   3.239  17.252  0.00  0.00    +0.000 A 
ATOM     15  C   UNL     1       3.470   4.240  17.968  0.00  0.00    +0.000 A 
ENDROOT
BRANCH   1  16
ATOM     16  N   UNL     1       4.376   6.108  16.623  0.00  0.00    +0.000 N 
ATOM     17  H   UNL     1       4.188   5.635  15.742  0.00  0.00    +0.000 HD
BRANCH  16  18
ATOM     18  C   UNL     1       5.838   6.113  16.824  0.00  0.00    +0.000 C 
BRANCH  18  19
ATOM     19  C   UNL     1       6.577   5.743  15.535  0.00  0.00    +0.000 C 
BRANCH  19  20
ATOM     20  C   UNL     1       5.654   5.003  14.550  0.00  0.00    +0.000 C 
BRANCH  20  21
ATOM     21  C   UNL     1       6.293   3.730  14.001  0.00  0.00    +0.000 C 
BRANCH  21  22
ATOM     22  C   UNL     1       6.530   3.787  12.494  0.00  0.00    +0.000 C 
BRANCH  22  23
ATOM     23  C   UNL     1       5.782   2.646  11.805  0.00  0.00    +0.000 C 
BRANCH  23  25
ATOM     24  C   UNL     1       6.158   0.233  11.226  0.00  0.00    +0.000 C 
ATOM     25  C   UNL     1       6.741   1.636  11.185  0.00  0.00    +0.000 C 
ENDBRANCH  23  25
ENDBRANCH  22  23
ENDBRANCH  21  22
ENDBRANCH  20  21
ENDBRANCH  19  20
ENDBRANCH  18  19
ENDBRANCH  16  18
ENDBRANCH   1  16
TORSDOF 8
ENDMDL
MODEL 8
REMARK VINA RESULT:      -6.8      2.630      6.345
REMARK  Name = 
REMARK  10 active torsions:
REMARK  status: ('A' for Active; 'I' for Inactive)
REMARK    1  A    between atoms: C_1  and  C_2
REMARK    2  A    between atoms: C_2  and  C_3
REMARK    3  A    between atoms: C_3  and  C_4
REMARK    4  A    between atoms: C_4  and  C_5
REMARK    5  A    between atoms: C_5  and  C_6
REMARK    6  A    between atoms: C_6  and  C_7
REMARK    7  A    between atoms: C_7  and  C_8
REMARK    8  A    between atoms: C_8  and  N_9
REMARK    9  A    between atoms: N_9  and  C_10
REMARK   10  A    between atoms: N_17  and  C_18
REMARK                            x       y       z     vdW  Elec       q    Type
REMARK                         _______ _______ _______ _____ _____    ______ ____
ROOT
ATOM      1  C   UNL     1       3.427   5.703  17.868  0.00  0.00    +0.000 A 
ATOM      2  C   UNL     1       2.617   6.505  18.724  0.00  0.00    +0.000 A 
ATOM      3  C   UNL     1       2.347   7.876  18.495  0.00  0.00    +0.000 A 
ATOM      4  C   UNL     1       1.795   8.715  19.459  0.00  0.00    +0.000 A 
ATOM      5  C   UNL     1       1.392   8.175  20.660  0.00  0.00    +0.000 A 
ATOM      6  C   UNL     1       1.470   6.795  20.847  0.00  0.00    +0.000 A 
ATOM      7  C   UNL     1       2.023   5.930  19.872  0.00  0.00    +0.000 A 
ATOM      8  N   UNL     1       1.981   4.562  19.994  0.00  0.00    +0.000 N 
ATOM      9  C   UNL     1       1.107   3.931  21.019  0.00  0.00    +0.000 C 
ATOM     10  C   UNL     1       2.670   3.740  19.133  0.00  0.00    +0.000 A 
ATOM     11  C   UNL     1       2.639   2.326  19.299  0.00  0.00    +0.000 A 
ATOM     12  C   UNL     1       3.351   1.462  18.469  0.00  0.00    +0.000 A 
ATOM     13  C   UNL     1       4.130   1.991  17.455  0.00  0.00    +0.000 A 
ATOM     14  C   UNL     1       4.170   3.372  17.267  0.00  0.00    +0.000 A 
ATOM     15  C   UNL     1       3.438   4.292  18.074  0.00  0.00    +0.000 A 
ENDROOT
BRANCH   1  16
ATOM     16  N   UNL     1       4.174   6.277  16.795  0.00  0.00    +0.000 N 
ATOM     17  H   UNL     1       4.445   5.589  16.097  0.00  0.00    +0.000 HD
BRANCH  16  18
ATOM     18  C   UNL     1       5.372   7.076  17.123  0.00  0.00    +0.000 C 
BRANCH  18  19
ATOM     19  C   UNL     1       6.536   6.179  17.554  0.00  0.00    +0.000 C 
BRANCH  19  20
ATOM     20  C   UNL     1       7.362   5.708  16.343  0.00  0.00    +0.000 C 
BRANCH  20  21
ATOM     21  C   UNL     1       7.018   4.281  15.927  0.00  0.00    +0.000 C 
BRANCH  21  22
ATOM     22  C   UNL     1       6.311   4.211  14.575  0.00  0.00    +0.000 C 
BRANCH  22  23
ATOM     23  C   UNL     1       7.201   4.815  13.489  0.00  0.00    +0.000 C 
BRANCH  23  25
ATOM     24  C   UNL     1       5.794   3.198  12.184  0.00  0.00    +0.000 C 
ATOM     25  C   UNL     1       6.997   4.126  12.144  0.00  0.00    +0.000 C 
ENDBRANCH  23  25
ENDBRANCH  22  23
ENDBRANCH  21  22
ENDBRANCH  20  21
ENDBRANCH  19  20
ENDBRANCH  18  19
ENDBRANCH  16  18
ENDBRANCH   1  16
TORSDOF 8
ENDMDL
MODEL 9
REMARK VINA RESULT:      -6.7      0.991      3.970
REMARK  Name = 
REMARK  10 active torsions:
REMARK  status: ('A' for Active; 'I' for Inactive)
REMARK    1  A    between atoms: C_1  and  C_2
REMARK    2  A    between atoms: C_2  and  C_3
REMARK    3  A    between atoms: C_3  and  C_4
REMARK    4  A    between atoms: C_4  and  C_5
REMARK    5  A    between atoms: C_5  and  C_6
REMARK    6  A    between atoms: C_6  and  C_7
REMARK    7  A    between atoms: C_7  and  C_8
REMARK    8  A    between atoms: C_8  and  N_9
REMARK    9  A    between atoms: N_9  and  C_10
REMARK   10  A    between atoms: N_17  and  C_18
REMARK                            x       y       z     vdW  Elec       q    Type
REMARK                         _______ _______ _______ _____ _____    ______ ____
ROOT
ATOM      1  C   UNL     1       3.278   5.992  18.316  0.00  0.00    +0.000 A 
ATOM      2  C   UNL     1       4.222   5.554  17.343  0.00  0.00    +0.000 A 
ATOM      3  C   UNL     1       5.150   6.411  16.703  0.00  0.00    +0.000 A 
ATOM      4  C   UNL     1       5.871   6.045  15.571  0.00  0.00    +0.000 A 
ATOM      5  C   UNL     1       5.765   4.753  15.103  0.00  0.00    +0.000 A 
ATOM      6  C   UNL     1       5.005   3.829  15.820  0.00  0.00    +0.000 A 
ATOM      7  C   UNL     1       4.272   4.189  16.977  0.00  0.00    +0.000 A 
ATOM      8  N   UNL     1       3.632   3.258  17.760  0.00  0.00    +0.000 N 
ATOM      9  C   UNL     1       3.917   1.809  17.580  0.00  0.00    +0.000 C 
ATOM     10  C   UNL     1       2.784   3.632  18.776  0.00  0.00    +0.000 A 
ATOM     11  C   UNL     1       2.105   2.651  19.552  0.00  0.00    +0.000 A 
ATOM     12  C   UNL     1       1.212   2.990  20.568  0.00  0.00    +0.000 A 
ATOM     13  C   UNL     1       0.959   4.326  20.824  0.00  0.00    +0.000 A 
ATOM     14  C   UNL     1       1.617   5.306  20.082  0.00  0.00    +0.000 A 
ATOM     15  C   UNL     1       2.558   5.006  19.053  0.00  0.00    +0.000 A 
ENDROOT
BRANCH   1  16
ATOM     16  N   UNL     1       3.083   7.380  18.595  0.00  0.00    +0.000 N 
ATOM     17  H   UNL     1       2.644   7.538  19.498  0.00  0.00    +0.000 HD
BRANCH  16  18
ATOM     18  C   UNL     1       2.365   8.201  17.600  0.00  0.00    +0.000 C 
BRANCH  18  19
ATOM     19  C   UNL     1       1.381   9.158  18.278  0.00  0.00    +0.000 C 
BRANCH  19  20
ATOM     20  C   UNL     1       1.383   8.978  19.807  0.00  0.00    +0.000 C 
BRANCH  20  21
ATOM     21  C   UNL     1       0.146   9.585  20.464  0.00  0.00    +0.000 C 
BRANCH  21  22
ATOM     22  C   UNL     1      -0.830  10.182  19.453  0.00  0.00    +0.000 C 
BRANCH  22  23
ATOM     23  C   UNL     1      -0.889  11.700  19.621  0.00  0.00    +0.000 C 
BRANCH  23  25
ATOM     24  C   UNL     1      -2.112  11.336  17.460  0.00  0.00    +0.000 C 
ATOM     25  C   UNL     1      -1.632  12.367  18.468  0.00  0.00    +0.000 C 
ENDBRANCH  23  25
ENDBRANCH  22  23
ENDBRANCH  21  22
ENDBRANCH  20  21
ENDBRANCH  19  20
ENDBRANCH  18  19
ENDBRANCH  16  18
ENDBRANCH   1  16
TORSDOF 8
ENDMDL
