MODEL 1
REMARK VINA RESULT:      -7.2      0.000      0.000
REMARK  Name = 
REMARK  2 active torsions:
REMARK  status: ('A' for Active; 'I' for Inactive)
REMARK    1  A    between atoms: C_2  and  C_3
REMARK    2  A    between atoms: C_6  and  C_7
REMARK                            x       y       z     vdW  Elec       q    Type
REMARK                         _______ _______ _______ _____ _____    ______ ____
ROOT
ATOM      1  C   UNL     1       6.099   5.877  17.646  0.00  0.00    +0.000 A 
ATOM      2  C   UNL     1       5.303   5.338  16.635  0.00  0.00    +0.000 A 
ATOM      3  C   UNL     1       4.473   4.247  16.901  0.00  0.00    +0.000 A 
ATOM      4  C   UNL     1       4.418   3.680  18.187  0.00  0.00    +0.000 A 
ATOM      5  C   UNL     1       5.239   4.215  19.191  0.00  0.00    +0.000 A 
ATOM      6  C   UNL     1       6.071   5.307  18.925  0.00  0.00    +0.000 A 
ENDROOT
BRANCH   4   7
ATOM      7  C   UNL     1       3.494   2.521  18.491  0.00  0.00    +0.000 C 
ATOM      8  C   UNL     1       2.196   2.507  17.633  0.00  0.00    +0.000 C 
ATOM      9  C   UNL     1       0.989   2.700  18.592  0.00  0.00    +0.000 C 
ATOM     10  C   UNL     1       1.615   2.692  19.919  0.00  0.00    +0.000 A 
ATOM     11  C   UNL     1       1.330   2.757  21.254  0.00  0.00    +0.000 A 
ATOM     12  N   UNL     1       2.508   2.685  21.978  0.00  0.00    +0.000 NA
ATOM     13  C   UNL     1       3.481   2.584  21.091  0.00  0.00    +0.000 A 
ATOM     14  N   UNL     1       2.968   2.597  19.847  0.00  0.00    +0.000 N 
ENDBRANCH   4   7
BRANCH   1  16
ATOM     15  N   UNL     1       7.604   7.933  17.161  0.00  0.00    +0.000 NA
ATOM     16  C   UNL     1       6.931   7.013  17.380  0.00  0.00    +0.000 C 
ENDBRANCH   1  16
TORSDOF 2
ENDMDL
MODEL 2
REMARK VINA RESULT:      -7.2      0.402      1.172
REMARK  Name = 
REMARK  2 active torsions:
REMARK  status: ('A' for Active; 'I' for Inactive)
REMARK    1  A    between atoms: C_2  and  C_3
REMARK    2  A    between atoms: C_6  and  C_7
REMARK                            x       y       z     vdW  Elec       q    Type
REMARK                         _______ _______ _______ _____ _____    ______ ____
ROOT
ATOM      1  C   UNL     1       6.028   6.090  17.736  0.00  0.00    +0.000 A 
ATOM      2  C   UNL     1       6.409   5.112  18.656  0.00  0.00    +0.000 A 
ATOM      3  C   UNL     1       5.567   4.029  18.918  0.00  0.00    +0.000 A 
ATOM      4  C   UNL     1       4.331   3.901  18.259  0.00  0.00    +0.000 A 
ATOM      5  C   UNL     1       3.947   4.902  17.353  0.00  0.00    +0.000 A 
ATOM      6  C   UNL     1       4.790   5.987  17.091  0.00  0.00    +0.000 A 
ENDROOT
BRANCH   4   7
ATOM      7  C   UNL     1       3.430   2.712  18.511  0.00  0.00    +0.000 C 
ATOM      8  C   UNL     1       2.131   2.713  17.655  0.00  0.00    +0.000 C 
ATOM      9  C   UNL     1       0.923   2.838  18.623  0.00  0.00    +0.000 C 
ATOM     10  C   UNL     1       1.551   2.781  19.948  0.00  0.00    +0.000 A 
ATOM     11  C   UNL     1       1.268   2.779  21.285  0.00  0.00    +0.000 A 
ATOM     12  N   UNL     1       2.449   2.696  22.003  0.00  0.00    +0.000 NA
ATOM     13  C   UNL     1       3.422   2.655  21.111  0.00  0.00    +0.000 A 
ATOM     14  N   UNL     1       2.906   2.716  19.870  0.00  0.00    +0.000 N 
ENDBRANCH   4   7
BRANCH   1  16
ATOM     15  N   UNL     1       7.611   8.077  17.211  0.00  0.00    +0.000 NA
ATOM     16  C   UNL     1       6.904   7.187  17.448  0.00  0.00    +0.000 C 
ENDBRANCH   1  16
TORSDOF 2
ENDMDL
MODEL 3
REMARK VINA RESULT:      -6.9      2.033      2.765
REMARK  Name = 
REMARK  2 active torsions:
REMARK  status: ('A' for Active; 'I' for Inactive)
REMARK    1  A    between atoms: C_2  and  C_3
REMARK    2  A    between atoms: C_6  and  C_7
REMARK                            x       y       z     vdW  Elec       q    Type
REMARK                         _______ _______ _______ _____ _____    ______ ____
ROOT
ATOM      1  C   UNL     1       5.720   5.259  15.888  0.00  0.00    +0.000 A 
ATOM      2  C   UNL     1       5.066   4.076  16.234  0.00  0.00    +0.000 A 
ATOM      3  C   UNL     1       3.949   4.111  17.072  0.00  0.00    +0.000 A 
ATOM      4  C   UNL     1       3.461   5.331  17.573  0.00  0.00    +0.000 A 
ATOM      5  C   UNL     1       4.139   6.513  17.237  0.00  0.00    +0.000 A 
ATOM      6  C   UNL     1       5.258   6.478  16.398  0.00  0.00    +0.000 A 
ENDROOT
BRANCH   4   7
ATOM      7  C   UNL     1       2.231   5.380  18.452  0.00  0.00    +0.000 C 
ATOM      8  C   UNL     1       2.452   6.114  19.806  0.00  0.00    +0.000 C 
ATOM      9  C   UNL     1       2.264   5.076  20.947  0.00  0.00    +0.000 C 
ATOM     10  C   UNL     1       1.838   3.868  20.230  0.00  0.00    +0.000 A 
ATOM     11  C   UNL     1       1.441   2.575  20.422  0.00  0.00    +0.000 A 
ATOM     12  N   UNL     1       1.179   1.989  19.196  0.00  0.00    +0.000 NA
ATOM     13  C   UNL     1       1.420   2.914  18.285  0.00  0.00    +0.000 A 
ATOM     14  N   UNL     1       1.828   4.048  18.883  0.00  0.00    +0.000 N 
ENDBRANCH   4   7
BRANCH   1  16
ATOM     15  N   UNL     1       7.764   5.196  14.292  0.00  0.00    +0.000 NA
ATOM     16  C   UNL     1       6.849   5.227  15.006  0.00  0.00    +0.000 C 
ENDBRANCH   1  16
TORSDOF 2
ENDMDL
MODEL 4
REMARK VINA RESULT:      -6.8      1.939      5.786
REMARK  Name = 
REMARK  2 active torsions:
REMARK  status: ('A' for Active; 'I' for Inactive)
REMARK    1  A    between atoms: C_2  and  C_3
REMARK    2  A    between atoms: C_6  and  C_7
REMARK                            x       y       z     vdW  Elec       q    Type
REMARK                         _______ _______ _______ _____ _____    ______ ____
ROOT
ATOM      1  C   UNL     1       2.692   3.766  20.610  0.00  0.00    +0.000 A 
ATOM      2  C   UNL     1       3.760   3.198  19.913  0.00  0.00    +0.000 A 
ATOM      3  C   UNL     1       4.548   3.987  19.073  0.00  0.00    +0.000 A 
ATOM      4  C   UNL     1       4.288   5.361  18.920  0.00  0.00    +0.000 A 
ATOM      5  C   UNL     1       3.198   5.917  19.607  0.00  0.00    +0.000 A 
ATOM      6  C   UNL     1       2.407   5.127  20.448  0.00  0.00    +0.000 A 
ENDROOT
BRANCH   4   7
ATOM      7  C   UNL     1       5.160   6.229  18.039  0.00  0.00    +0.000 C 
ATOM      8  C   UNL     1       4.427   6.796  16.790  0.00  0.00    +0.000 C 
ATOM      9  C   UNL     1       5.105   6.197  15.527  0.00  0.00    +0.000 C 
ATOM     10  C   UNL     1       6.233   5.440  16.083  0.00  0.00    +0.000 A 
ATOM     11  C   UNL     1       7.311   4.680  15.727  0.00  0.00    +0.000 A 
ATOM     12  N   UNL     1       7.977   4.266  16.868  0.00  0.00    +0.000 NA
ATOM     13  C   UNL     1       7.304   4.765  17.890  0.00  0.00    +0.000 A 
ATOM     14  N   UNL     1       6.246   5.465  17.442  0.00  0.00    +0.000 N 
ENDBRANCH   4   7
BRANCH   1  16
ATOM     15  N   UNL     1       1.260   2.312  22.211  0.00  0.00    +0.000 NA
ATOM     16  C   UNL     1       1.900   2.962  21.493  0.00  0.00    +0.000 C 
ENDBRANCH   1  16
TORSDOF 2
ENDMDL
MODEL 5
REMARK VINA RESULT:      -6.8      2.003      2.735
REMARK  Name = 
REMARK  2 active torsions:
REMARK  status: ('A' for Active; 'I' for Inactive)
REMARK    1  A    between atoms: C_2  and  C_3
REMARK    2  A    between atoms: C_6  and  C_7
REMARK                            x       y       z     vdW  Elec       q    Type
REMARK                         _______ _______ _______ _____ _____    ______ ____
ROOT
ATOM      1  C   UNL     1       5.649   5.290  15.965  0.00  0.00    +0.000 A 
ATOM      2  C   UNL     1       5.151   6.499  16.454  0.00  0.00    +0.000 A 
ATOM      3  C   UNL     1       4.015   6.512  17.265  0.00  0.00    +0.000 A 
ATOM      4  C   UNL     1       3.359   5.316  17.609  0.00  0.00    +0.000 A 
ATOM      5  C   UNL     1       3.854   4.109  17.092  0.00  0.00    +0.000 A 
ATOM      6  C   UNL     1       4.992   4.095  16.279  0.00  0.00    +0.000 A 
ENDROOT
BRANCH   4   7
ATOM      7  C   UNL     1       2.149   5.320  18.516  0.00  0.00    +0.000 C 
ATOM      8  C   UNL     1       2.367   6.081  19.855  0.00  0.00    +0.000 C 
ATOM      9  C   UNL     1       2.254   5.051  21.013  0.00  0.00    +0.000 C 
ATOM     10  C   UNL     1       1.867   3.816  20.321  0.00  0.00    +0.000 A 
ATOM     11  C   UNL     1       1.535   2.508  20.538  0.00  0.00    +0.000 A 
ATOM     12  N   UNL     1       1.271   1.895  19.326  0.00  0.00    +0.000 NA
ATOM     13  C   UNL     1       1.448   2.818  18.398  0.00  0.00    +0.000 A 
ATOM     14  N   UNL     1       1.817   3.977  18.973  0.00  0.00    +0.000 N 
ENDBRANCH   4   7
BRANCH   1  16
ATOM     15  N   UNL     1       7.787   5.264  14.496  0.00  0.00    +0.000 NA
ATOM     16  C   UNL     1       6.830   5.274  15.155  0.00  0.00    +0.000 C 
ENDBRANCH   1  16
TORSDOF 2
ENDMDL
MODEL 6
REMARK VINA RESULT:      -6.8      2.007      2.561
REMARK  Name = 
REMARK  2 active torsions:
REMARK  status: ('A' for Active; 'I' for Inactive)
REMARK    1  A    between atoms: C_2  and  C_3
REMARK    2  A    between atoms: C_6  and  C_7
REMARK                            x       y       z     vdW  Elec       q    Type
REMARK                         _______ _______ _______ _____ _____    ______ ____
ROOT
ATOM      1  C   UNL     1       6.508   4.750  15.799  0.00  0.00    +0.000 A 
ATOM      2  C   UNL     1       7.089   4.959  17.051  0.00  0.00    +0.000 A 
ATOM      3  C   UNL     1       6.429   4.543  18.209  0.00  0.00    +0.000 A 
ATOM      4  C   UNL     1       5.178   3.904  18.137  0.00  0.00    +0.000 A 
ATOM      5  C   UNL     1       4.592   3.719  16.875  0.00  0.00    +0.000 A 
ATOM      6  C   UNL     1       5.253   4.135  15.714  0.00  0.00    +0.000 A 
ENDROOT
BRANCH   4   7
ATOM      7  C   UNL     1       4.474   3.419  19.385  0.00  0.00    +0.000 C 
ATOM      8  C   UNL     1       3.805   2.023  19.229  0.00  0.00    +0.000 C 
ATOM      9  C   UNL     1       2.270   2.210  19.384  0.00  0.00    +0.000 C 
ATOM     10  C   UNL     1       2.143   3.630  19.733  0.00  0.00    +0.000 A 
ATOM     11  C   UNL     1       1.228   4.589  20.065  0.00  0.00    +0.000 A 
ATOM     12  N   UNL     1       1.879   5.792  20.272  0.00  0.00    +0.000 NA
ATOM     13  C   UNL     1       3.162   5.559  20.062  0.00  0.00    +0.000 A 
ATOM     14  N   UNL     1       3.342   4.269  19.726  0.00  0.00    +0.000 N 
ENDBRANCH   4   7
BRANCH   1  16
ATOM     15  N   UNL     1       7.756   5.481  13.646  0.00  0.00    +0.000 NA
ATOM     16  C   UNL     1       7.197   5.152  14.609  0.00  0.00    +0.000 C 
ENDBRANCH   1  16
TORSDOF 2
ENDMDL
MODEL 7
REMARK VINA RESULT:      -6.6      1.504      5.832
REMARK  Name = 
REMARK  2 active torsions:
REMARK  status: ('A' for Active; 'I' for Inactive)
REMARK    1  A    between atoms: C_2  and  C_3
REMARK    2  A    between atoms: C_6  and  C_7
REMARK                            x       y       z     vdW  Elec       q    Type
REMARK                         _______ _______ _______ _____ _____    ______ ____
ROOT
ATOM      1  C   UNL     1       2.543   3.309  19.978  0.00  0.00    +0.000 A 
ATOM      2  C   UNL     1       3.873   2.947  19.760  0.00  0.00    +0.000 A 
ATOM      3  C   UNL     1       4.538   3.379  18.611  0.00  0.00    +0.000 A 
ATOM      4  C   UNL     1       3.888   4.188  17.662  0.00  0.00    +0.000 A 
ATOM      5  C   UNL     1       2.544   4.528  17.879  0.00  0.00    +0.000 A 
ATOM      6  C   UNL     1       1.877   4.094  19.030  0.00  0.00    +0.000 A 
ENDROOT
BRANCH   4   7
ATOM      7  C   UNL     1       4.614   4.689  16.433  0.00  0.00    +0.000 C 
ATOM      8  C   UNL     1       5.594   3.652  15.813  0.00  0.00    +0.000 C 
ATOM      9  C   UNL     1       7.033   4.226  15.933  0.00  0.00    +0.000 C 
ATOM     10  C   UNL     1       6.810   5.568  16.482  0.00  0.00    +0.000 A 
ATOM     11  C   UNL     1       7.460   6.713  16.849  0.00  0.00    +0.000 A 
ATOM     12  N   UNL     1       6.539   7.633  17.318  0.00  0.00    +0.000 NA
ATOM     13  C   UNL     1       5.358   7.047  17.238  0.00  0.00    +0.000 A 
ATOM     14  N   UNL     1       5.498   5.802  16.749  0.00  0.00    +0.000 N 
ENDBRANCH   4   7
BRANCH   1  16
ATOM     15  N   UNL     1       1.321   2.545  22.135  0.00  0.00    +0.000 NA
ATOM     16  C   UNL     1       1.869   2.889  21.170  0.00  0.00    +0.000 C 
ENDBRANCH   1  16
TORSDOF 2
ENDMDL
MODEL 8
REMARK VINA RESULT:      -6.6      1.518      5.778
REMARK  Name = 
REMARK  2 active torsions:
REMARK  status: ('A' for Active; 'I' for Inactive)
REMARK    1  A    between atoms: C_2  and  C_3
REMARK    2  A    between atoms: C_6  and  C_7
REMARK                            x       y       z     vdW  Elec       q    Type
REMARK                         _______ _______ _______ _____ _____    ______ ____
ROOT
ATOM      1  C   UNL     1       2.562   3.382  20.097  0.00  0.00    +0.000 A 
ATOM      2  C   UNL     1       1.919   4.264  19.228  0.00  0.00    +0.000 A 
ATOM      3  C   UNL     1       2.573   4.723  18.083  0.00  0.00    +0.000 A 
ATOM      4  C   UNL     1       3.881   4.302  17.782  0.00  0.00    +0.000 A 
ATOM      5  C   UNL     1       4.527   3.432  18.674  0.00  0.00    +0.000 A 
ATOM      6  C   UNL     1       3.872   2.973  19.821  0.00  0.00    +0.000 A 
ENDROOT
BRANCH   4   7
ATOM      7  C   UNL     1       4.582   4.767  16.525  0.00  0.00    +0.000 C 
ATOM      8  C   UNL     1       5.517   3.697  15.892  0.00  0.00    +0.000 C 
ATOM      9  C   UNL     1       6.973   4.235  15.962  0.00  0.00    +0.000 C 
ATOM     10  C   UNL     1       6.801   5.591  16.498  0.00  0.00    +0.000 A 
ATOM     11  C   UNL     1       7.489   6.724  16.829  0.00  0.00    +0.000 A 
ATOM     12  N   UNL     1       6.605   7.674  17.311  0.00  0.00    +0.000 NA
ATOM     13  C   UNL     1       5.408   7.117  17.274  0.00  0.00    +0.000 A 
ATOM     14  N   UNL     1       5.503   5.861  16.799  0.00  0.00    +0.000 N 
ENDBRANCH   4   7
BRANCH   1  16
ATOM     15  N   UNL     1       1.329   2.493  22.200  0.00  0.00    +0.000 NA
ATOM     16  C   UNL     1       1.881   2.889  21.257  0.00  0.00    +0.000 C 
ENDBRANCH   1  16
TORSDOF 2
ENDMDL
MODEL 9
REMARK VINA RESULT:      -6.6      4.129      4.786
REMARK  Name = 
REMARK  2 active torsions:
REMARK  status: ('A' for Active; 'I' for Inactive)
REMARK    1  A    between atoms: C_2  and  C_3
REMARK    2  A    between atoms: C_6  and  C_7
REMARK                            x       y       z     vdW  Elec       q    Type
REMARK                         _______ _______ _______ _____ _____    ______ ____
ROOT
ATOM      1  C   UNL     1       1.453   9.167  19.059  0.00  0.00    +0.000 A 
ATOM      2  C   UNL     1       1.326   8.533  20.296  0.00  0.00    +0.000 A 
ATOM      3  C   UNL     1       1.901   7.279  20.505  0.00  0.00    +0.000 A 
ATOM      4  C   UNL     1       2.621   6.636  19.481  0.00  0.00    +0.000 A 
ATOM      5  C   UNL     1       2.724   7.271  18.234  0.00  0.00    +0.000 A 
ATOM      6  C   UNL     1       2.147   8.529  18.025  0.00  0.00    +0.000 A 
ENDROOT
BRANCH   4   7
ATOM      7  C   UNL     1       3.278   5.293  19.711  0.00  0.00    +0.000 C 
ATOM      8  C   UNL     1       4.692   5.166  19.076  0.00  0.00    +0.000 C 
ATOM      9  C   UNL     1       4.625   4.065  17.982  0.00  0.00    +0.000 C 
ATOM     10  C   UNL     1       3.261   3.543  18.118  0.00  0.00    +0.000 A 
ATOM     11  C   UNL     1       2.405   2.599  17.626  0.00  0.00    +0.000 A 
ATOM     12  N   UNL     1       1.187   2.699  18.277  0.00  0.00    +0.000 NA
ATOM     13  C   UNL     1       1.311   3.690  19.140  0.00  0.00    +0.000 A 
ATOM     14  N   UNL     1       2.545   4.219  19.055  0.00  0.00    +0.000 N 
ENDBRANCH   4   7
BRANCH   1  16
ATOM     15  N   UNL     1       0.423  11.519  18.689  0.00  0.00    +0.000 NA
ATOM     16  C   UNL     1       0.886  10.466  18.854  0.00  0.00    +0.000 C 
ENDBRANCH   1  16
TORSDOF 2
ENDMDL
