MODEL 1
REMARK VINA RESULT:      -7.8      0.000      0.000
REMARK  Name = 
REMARK  7 active torsions:
REMARK  status: ('A' for Active; 'I' for Inactive)
REMARK    1  A    between atoms: C_1  and  O_2
REMARK    2  A    between atoms: O_2  and  C_3
REMARK    3  A    between atoms: C_3  and  C_4
REMARK    4  A    between atoms: C_4  and  N_5
REMARK    5  A    between atoms: C_6  and  C_8
REMARK    6  A    between atoms: C_11  and  S_12
REMARK    7  A    between atoms: S_12  and  N_15
REMARK                            x       y       z     vdW  Elec       q    Type
REMARK                         _______ _______ _______ _____ _____    ______ ____
ROOT
ATOM      1  C   UNL     1       1.939   7.364  19.814  0.00  0.00    +0.000 A 
ATOM      2  C   UNL     1       1.920   6.136  20.500  0.00  0.00    +0.000 A 
ATOM      3  C   UNL     1       2.393   4.949  19.889  0.00  0.00    +0.000 A 
ATOM      4  C   UNL     1       2.849   4.962  18.558  0.00  0.00    +0.000 A 
ATOM      5  C   UNL     1       2.900   6.192  17.891  0.00  0.00    +0.000 A 
ATOM      6  C   UNL     1       2.447   7.377  18.509  0.00  0.00    +0.000 A 
ENDROOT
BRANCH   1   8
ATOM      7  N   UNL     1       1.255   8.536  21.881  0.00  0.00    +0.000 N 
ATOM      8  C   UNL     1       1.402   8.605  20.501  0.00  0.00    +0.000 C 
ATOM      9  O   UNL     1       1.087   9.600  19.845  0.00  0.00    +0.000 OA
ATOM     10  H   UNL     1       1.567   7.722  22.388  0.00  0.00    +0.000 HD
BRANCH   7  11
ATOM     11  C   UNL     1       0.936   9.692  22.706  0.00  0.00    +0.000 C 
BRANCH  11  12
ATOM     12  C   UNL     1      -0.445   9.570  23.373  0.00  0.00    +0.000 C 
BRANCH  12  14
ATOM     13  C   UNL     1      -0.535  11.642  22.225  0.00  0.00    +0.000 C 
ATOM     14  O   UNL     1      -1.199  10.767  23.130  0.00  0.00    +0.000 OA
ENDBRANCH  12  14
ENDBRANCH  11  12
ENDBRANCH   7  11
ENDBRANCH   1   8
BRANCH   4  15
ATOM     15  S   UNL     1       3.620   3.499  17.785  0.00  0.00    +0.000 S 
ATOM     16  O   UNL     1       3.893   2.557  18.847  0.00  0.00    +0.000 OA
ATOM     17  O   UNL     1       2.728   3.137  16.696  0.00  0.00    +0.000 OA
BRANCH  15  18
ATOM     18  N   UNL     1       5.083   4.029  17.096  0.00  0.00    +0.000 N 
ATOM     19  C   UNL     1       5.574   3.331  15.911  0.00  0.00    +0.000 C 
ATOM     20  C   UNL     1       6.010   4.327  14.837  0.00  0.00    +0.000 C 
ATOM     21  C   UNL     1       6.692   5.601  15.337  0.00  0.00    +0.000 C 
ATOM     22  C   UNL     1       6.454   5.997  16.776  0.00  0.00    +0.000 A 
ATOM     23  C   UNL     1       7.250   7.069  17.213  0.00  0.00    +0.000 A 
ATOM     24  C   UNL     1       7.938   6.933  18.404  0.00  0.00    +0.000 A 
ATOM     25  C   UNL     1       7.723   5.790  19.173  0.00  0.00    +0.000 A 
ATOM     26  C   UNL     1       6.698   4.870  18.838  0.00  0.00    +0.000 A 
ATOM     27  C   UNL     1       5.969   5.024  17.657  0.00  0.00    +0.000 A 
ENDBRANCH  15  18
ENDBRANCH   4  15
TORSDOF 6
ENDMDL
MODEL 2
REMARK VINA RESULT:      -7.8      1.477      1.842
REMARK  Name = 
REMARK  7 active torsions:
REMARK  status: ('A' for Active; 'I' for Inactive)
REMARK    1  A    between atoms: C_1  and  O_2
REMARK    2  A    between atoms: O_2  and  C_3
REMARK    3  A    between atoms: C_3  and  C_4
REMARK    4  A    between atoms: C_4  and  N_5
REMARK    5  A    between atoms: C_6  and  C_8
REMARK    6  A    between atoms: C_11  and  S_12
REMARK    7  A    between atoms: S_12  and  N_15
REMARK                            x       y       z     vdW  Elec       q    Type
REMARK                         _______ _______ _______ _____ _____    ______ ____
ROOT
ATOM      1  C   UNL     1       1.825   7.412  20.080  0.00  0.00    +0.000 A 
ATOM      2  C   UNL     1       1.810   6.178  20.754  0.00  0.00    +0.000 A 
ATOM      3  C   UNL     1       2.324   5.006  20.148  0.00  0.00    +0.000 A 
ATOM      4  C   UNL     1       2.821   5.041  18.832  0.00  0.00    +0.000 A 
ATOM      5  C   UNL     1       2.869   6.277  18.178  0.00  0.00    +0.000 A 
ATOM      6  C   UNL     1       2.373   7.448  18.792  0.00  0.00    +0.000 A 
ENDROOT
BRANCH   1   8
ATOM      7  N   UNL     1       0.577   9.543  19.945  0.00  0.00    +0.000 N 
ATOM      8  C   UNL     1       1.243   8.637  20.761  0.00  0.00    +0.000 C 
ATOM      9  O   UNL     1       1.394   8.814  21.971  0.00  0.00    +0.000 OA
ATOM     10  H   UNL     1       0.434   9.340  18.967  0.00  0.00    +0.000 HD
BRANCH   7  11
ATOM     11  C   UNL     1      -0.196  10.662  20.463  0.00  0.00    +0.000 C 
BRANCH  11  12
ATOM     12  C   UNL     1      -1.133  11.266  19.403  0.00  0.00    +0.000 C 
BRANCH  12  14
ATOM     13  C   UNL     1      -2.410  10.022  17.841  0.00  0.00    +0.000 C 
ATOM     14  O   UNL     1      -1.108  10.450  18.223  0.00  0.00    +0.000 OA
ENDBRANCH  12  14
ENDBRANCH  11  12
ENDBRANCH   7  11
ENDBRANCH   1   8
BRANCH   4  15
ATOM     15  S   UNL     1       3.644   3.601  18.071  0.00  0.00    +0.000 S 
ATOM     16  O   UNL     1       4.063   2.736  19.151  0.00  0.00    +0.000 OA
ATOM     17  O   UNL     1       2.707   3.120  17.068  0.00  0.00    +0.000 OA
BRANCH  15  18
ATOM     18  N   UNL     1       5.010   4.200  17.251  0.00  0.00    +0.000 N 
ATOM     19  C   UNL     1       5.366   3.586  15.974  0.00  0.00    +0.000 C 
ATOM     20  C   UNL     1       5.661   4.655  14.923  0.00  0.00    +0.000 C 
ATOM     21  C   UNL     1       6.383   5.908  15.420  0.00  0.00    +0.000 C 
ATOM     22  C   UNL     1       6.311   6.209  16.900  0.00  0.00    +0.000 A 
ATOM     23  C   UNL     1       7.141   7.267  17.309  0.00  0.00    +0.000 A 
ATOM     24  C   UNL     1       7.965   7.070  18.400  0.00  0.00    +0.000 A 
ATOM     25  C   UNL     1       7.856   5.878  19.114  0.00  0.00    +0.000 A 
ATOM     26  C   UNL     1       6.809   4.962  18.844  0.00  0.00    +0.000 A 
ATOM     27  C   UNL     1       5.944   5.174  17.768  0.00  0.00    +0.000 A 
ENDBRANCH  15  18
ENDBRANCH   4  15
TORSDOF 6
ENDMDL
MODEL 3
REMARK VINA RESULT:      -7.8      1.999      2.534
REMARK  Name = 
REMARK  7 active torsions:
REMARK  status: ('A' for Active; 'I' for Inactive)
REMARK    1  A    between atoms: C_1  and  O_2
REMARK    2  A    between atoms: O_2  and  C_3
REMARK    3  A    between atoms: C_3  and  C_4
REMARK    4  A    between atoms: C_4  and  N_5
REMARK    5  A    between atoms: C_6  and  C_8
REMARK    6  A    between atoms: C_11  and  S_12
REMARK    7  A    between atoms: S_12  and  N_15
REMARK                            x       y       z     vdW  Elec       q    Type
REMARK                         _______ _______ _______ _____ _____    ______ ____
ROOT
ATOM      1  C   UNL     1       1.519   9.043  19.441  0.00  0.00    +0.000 A 
ATOM      2  C   UNL     1       1.923   8.679  18.143  0.00  0.00    +0.000 A 
ATOM      3  C   UNL     1       2.388   7.371  17.861  0.00  0.00    +0.000 A 
ATOM      4  C   UNL     1       2.503   6.417  18.887  0.00  0.00    +0.000 A 
ATOM      5  C   UNL     1       2.067   6.771  20.169  0.00  0.00    +0.000 A 
ATOM      6  C   UNL     1       1.585   8.069  20.444  0.00  0.00    +0.000 A 
ENDROOT
BRANCH   1   8
ATOM      7  N   UNL     1       1.062  11.329  18.614  0.00  0.00    +0.000 N 
ATOM      8  C   UNL     1       1.048  10.461  19.700  0.00  0.00    +0.000 C 
ATOM      9  O   UNL     1       0.707  10.813  20.830  0.00  0.00    +0.000 OA
ATOM     10  H   UNL     1       1.304  10.991  17.694  0.00  0.00    +0.000 HD
BRANCH   7  11
ATOM     11  C   UNL     1       0.468  12.657  18.648  0.00  0.00    +0.000 C 
BRANCH  11  12
ATOM     12  C   UNL     1      -0.999  12.653  18.184  0.00  0.00    +0.000 C 
BRANCH  12  14
ATOM     13  C   UNL     1      -1.497  13.552  20.321  0.00  0.00    +0.000 C 
ATOM     14  O   UNL     1      -1.860  12.597  19.330  0.00  0.00    +0.000 OA
ENDBRANCH  12  14
ENDBRANCH  11  12
ENDBRANCH   7  11
ENDBRANCH   1   8
BRANCH   4  15
ATOM     15  S   UNL     1       2.938   4.677  18.546  0.00  0.00    +0.000 S 
ATOM     16  O   UNL     1       3.091   4.023  19.826  0.00  0.00    +0.000 OA
ATOM     17  O   UNL     1       1.932   4.216  17.604  0.00  0.00    +0.000 OA
BRANCH  15  18
ATOM     18  N   UNL     1       4.432   4.702  17.730  0.00  0.00    +0.000 N 
ATOM     19  C   UNL     1       4.623   3.768  16.624  0.00  0.00    +0.000 C 
ATOM     20  C   UNL     1       5.226   4.478  15.413  0.00  0.00    +0.000 C 
ATOM     21  C   UNL     1       6.262   5.561  15.715  0.00  0.00    +0.000 C 
ATOM     22  C   UNL     1       6.252   6.166  17.101  0.00  0.00    +0.000 A 
ATOM     23  C   UNL     1       7.339   7.018  17.361  0.00  0.00    +0.000 A 
ATOM     24  C   UNL     1       8.055   6.830  18.527  0.00  0.00    +0.000 A 
ATOM     25  C   UNL     1       7.602   5.884  19.445  0.00  0.00    +0.000 A 
ATOM     26  C   UNL     1       6.344   5.252  19.278  0.00  0.00    +0.000 A 
ATOM     27  C   UNL     1       5.593   5.469  18.120  0.00  0.00    +0.000 A 
ENDBRANCH  15  18
ENDBRANCH   4  15
TORSDOF 6
ENDMDL
MODEL 4
REMARK VINA RESULT:      -7.8      2.102      2.635
REMARK  Name = 
REMARK  7 active torsions:
REMARK  status: ('A' for Active; 'I' for Inactive)
REMARK    1  A    between atoms: C_1  and  O_2
REMARK    2  A    between atoms: O_2  and  C_3
REMARK    3  A    between atoms: C_3  and  C_4
REMARK    4  A    between atoms: C_4  and  N_5
REMARK    5  A    between atoms: C_6  and  C_8
REMARK    6  A    between atoms: C_11  and  S_12
REMARK    7  A    between atoms: S_12  and  N_15
REMARK                            x       y       z     vdW  Elec       q    Type
REMARK                         _______ _______ _______ _____ _____    ______ ____
ROOT
ATOM      1  C   UNL     1       1.389   8.803  19.677  0.00  0.00    +0.000 A 
ATOM      2  C   UNL     1       1.978   8.507  18.434  0.00  0.00    +0.000 A 
ATOM      3  C   UNL     1       2.517   7.225  18.166  0.00  0.00    +0.000 A 
ATOM      4  C   UNL     1       2.519   6.229  19.159  0.00  0.00    +0.000 A 
ATOM      5  C   UNL     1       1.900   6.514  20.381  0.00  0.00    +0.000 A 
ATOM      6  C   UNL     1       1.346   7.787  20.639  0.00  0.00    +0.000 A 
ENDROOT
BRANCH   1   8
ATOM      7  N   UNL     1       0.110  10.770  18.894  0.00  0.00    +0.000 N 
ATOM      8  C   UNL     1       0.844  10.197  19.926  0.00  0.00    +0.000 C 
ATOM      9  O   UNL     1       1.080  10.784  20.983  0.00  0.00    +0.000 OA
ATOM     10  H   UNL     1      -0.101  10.240  18.062  0.00  0.00    +0.000 HD
BRANCH   7  11
ATOM     11  C   UNL     1      -0.635  12.011  19.042  0.00  0.00    +0.000 C 
BRANCH  11  12
ATOM     12  C   UNL     1      -2.149  11.809  18.854  0.00  0.00    +0.000 C 
BRANCH  12  14
ATOM     13  C   UNL     1      -3.350  10.564  17.233  0.00  0.00    +0.000 C 
ATOM     14  O   UNL     1      -2.390  10.515  18.283  0.00  0.00    +0.000 OA
ENDBRANCH  12  14
ENDBRANCH  11  12
ENDBRANCH   7  11
ENDBRANCH   1   8
BRANCH   4  15
ATOM     15  S   UNL     1       3.049   4.517  18.810  0.00  0.00    +0.000 S 
ATOM     16  O   UNL     1       3.345   3.901  20.084  0.00  0.00    +0.000 OA
ATOM     17  O   UNL     1       2.009   3.969  17.955  0.00  0.00    +0.000 OA
BRANCH  15  18
ATOM     18  N   UNL     1       4.471   4.629  17.881  0.00  0.00    +0.000 N 
ATOM     19  C   UNL     1       4.620   3.724  16.746  0.00  0.00    +0.000 C 
ATOM     20  C   UNL     1       5.091   4.482  15.505  0.00  0.00    +0.000 C 
ATOM     21  C   UNL     1       6.093   5.611  15.747  0.00  0.00    +0.000 C 
ATOM     22  C   UNL     1       6.162   6.192  17.141  0.00  0.00    +0.000 A 
ATOM     23  C   UNL     1       7.223   7.094  17.332  0.00  0.00    +0.000 A 
ATOM     24  C   UNL     1       8.037   6.924  18.436  0.00  0.00    +0.000 A 
ATOM     25  C   UNL     1       7.704   5.943  19.368  0.00  0.00    +0.000 A 
ATOM     26  C   UNL     1       6.469   5.251  19.286  0.00  0.00    +0.000 A 
ATOM     27  C   UNL     1       5.620   5.448  18.194  0.00  0.00    +0.000 A 
ENDBRANCH  15  18
ENDBRANCH   4  15
TORSDOF 6
ENDMDL
MODEL 5
REMARK VINA RESULT:      -7.8      1.345      1.559
REMARK  Name = 
REMARK  7 active torsions:
REMARK  status: ('A' for Active; 'I' for Inactive)
REMARK    1  A    between atoms: C_1  and  O_2
REMARK    2  A    between atoms: O_2  and  C_3
REMARK    3  A    between atoms: C_3  and  C_4
REMARK    4  A    between atoms: C_4  and  N_5
REMARK    5  A    between atoms: C_6  and  C_8
REMARK    6  A    between atoms: C_11  and  S_12
REMARK    7  A    between atoms: S_12  and  N_15
REMARK                            x       y       z     vdW  Elec       q    Type
REMARK                         _______ _______ _______ _____ _____    ______ ____
ROOT
ATOM      1  C   UNL     1       1.523   8.715  19.252  0.00  0.00    +0.000 A 
ATOM      2  C   UNL     1       1.605   7.857  20.364  0.00  0.00    +0.000 A 
ATOM      3  C   UNL     1       2.085   6.531  20.230  0.00  0.00    +0.000 A 
ATOM      4  C   UNL     1       2.446   6.025  18.968  0.00  0.00    +0.000 A 
ATOM      5  C   UNL     1       2.397   6.893  17.872  0.00  0.00    +0.000 A 
ATOM      6  C   UNL     1       1.937   8.220  18.010  0.00  0.00    +0.000 A 
ENDROOT
BRANCH   1   8
ATOM      7  N   UNL     1      -0.205  10.239  20.152  0.00  0.00    +0.000 N 
ATOM      8  C   UNL     1       0.983  10.121  19.439  0.00  0.00    +0.000 C 
ATOM      9  O   UNL     1       1.565  11.089  18.948  0.00  0.00    +0.000 OA
ATOM     10  H   UNL     1      -0.627   9.429  20.578  0.00  0.00    +0.000 HD
BRANCH   7  11
ATOM     11  C   UNL     1      -0.752  11.518  20.579  0.00  0.00    +0.000 C 
BRANCH  11  12
ATOM     12  C   UNL     1       0.034  12.127  21.754  0.00  0.00    +0.000 C 
BRANCH  12  14
ATOM     13  C   UNL     1      -1.913  11.697  23.036  0.00  0.00    +0.000 C 
ATOM     14  O   UNL     1      -0.492  11.625  22.990  0.00  0.00    +0.000 OA
ENDBRANCH  12  14
ENDBRANCH  11  12
ENDBRANCH   7  11
ENDBRANCH   1   8
BRANCH   4  15
ATOM     15  S   UNL     1       3.223   4.385  18.770  0.00  0.00    +0.000 S 
ATOM     16  O   UNL     1       3.595   3.933  20.092  0.00  0.00    +0.000 OA
ATOM     17  O   UNL     1       2.281   3.617  17.972  0.00  0.00    +0.000 OA
BRANCH  15  18
ATOM     18  N   UNL     1       4.621   4.621  17.828  0.00  0.00    +0.000 N 
ATOM     19  C   UNL     1       4.793   3.791  16.639  0.00  0.00    +0.000 C 
ATOM     20  C   UNL     1       5.203   4.643  15.438  0.00  0.00    +0.000 C 
ATOM     21  C   UNL     1       6.154   5.804  15.731  0.00  0.00    +0.000 C 
ATOM     22  C   UNL     1       6.220   6.306  17.155  0.00  0.00    +0.000 A 
ATOM     23  C   UNL     1       7.240   7.246  17.383  0.00  0.00    +0.000 A 
ATOM     24  C   UNL     1       8.081   7.053  18.462  0.00  0.00    +0.000 A 
ATOM     25  C   UNL     1       7.813   6.004  19.339  0.00  0.00    +0.000 A 
ATOM     26  C   UNL     1       6.612   5.258  19.236  0.00  0.00    +0.000 A 
ATOM     27  C   UNL     1       5.735   5.475  18.171  0.00  0.00    +0.000 A 
ENDBRANCH  15  18
ENDBRANCH   4  15
TORSDOF 6
ENDMDL
MODEL 6
REMARK VINA RESULT:      -7.7      1.209      1.338
REMARK  Name = 
REMARK  7 active torsions:
REMARK  status: ('A' for Active; 'I' for Inactive)
REMARK    1  A    between atoms: C_1  and  O_2
REMARK    2  A    between atoms: O_2  and  C_3
REMARK    3  A    between atoms: C_3  and  C_4
REMARK    4  A    between atoms: C_4  and  N_5
REMARK    5  A    between atoms: C_6  and  C_8
REMARK    6  A    between atoms: C_11  and  S_12
REMARK    7  A    between atoms: S_12  and  N_15
REMARK                            x       y       z     vdW  Elec       q    Type
REMARK                         _______ _______ _______ _____ _____    ______ ____
ROOT
ATOM      1  C   UNL     1       1.822   7.492  20.100  0.00  0.00    +0.000 A 
ATOM      2  C   UNL     1       1.769   6.252  20.764  0.00  0.00    +0.000 A 
ATOM      3  C   UNL     1       2.269   5.075  20.156  0.00  0.00    +0.000 A 
ATOM      4  C   UNL     1       2.787   5.110  18.849  0.00  0.00    +0.000 A 
ATOM      5  C   UNL     1       2.872   6.350  18.206  0.00  0.00    +0.000 A 
ATOM      6  C   UNL     1       2.391   7.525  18.822  0.00  0.00    +0.000 A 
ENDROOT
BRANCH   1   8
ATOM      7  N   UNL     1       0.530   9.597  19.982  0.00  0.00    +0.000 N 
ATOM      8  C   UNL     1       1.256   8.723  20.782  0.00  0.00    +0.000 C 
ATOM      9  O   UNL     1       1.468   8.933  21.977  0.00  0.00    +0.000 OA
ATOM     10  H   UNL     1       0.338   9.367  19.019  0.00  0.00    +0.000 HD
BRANCH   7  11
ATOM     11  C   UNL     1      -0.234  10.716  20.514  0.00  0.00    +0.000 C 
BRANCH  11  12
ATOM     12  C   UNL     1       0.551  12.038  20.458  0.00  0.00    +0.000 C 
BRANCH  12  14
ATOM     13  C   UNL     1      -0.591  13.226  22.163  0.00  0.00    +0.000 C 
ATOM     14  O   UNL     1       0.628  12.602  21.776  0.00  0.00    +0.000 OA
ENDBRANCH  12  14
ENDBRANCH  11  12
ENDBRANCH   7  11
ENDBRANCH   1   8
BRANCH   4  15
ATOM     15  S   UNL     1       3.591   3.658  18.088  0.00  0.00    +0.000 S 
ATOM     16  O   UNL     1       4.000   2.789  19.169  0.00  0.00    +0.000 OA
ATOM     17  O   UNL     1       2.647   3.188  17.087  0.00  0.00    +0.000 OA
BRANCH  15  18
ATOM     18  N   UNL     1       4.964   4.239  17.266  0.00  0.00    +0.000 N 
ATOM     19  C   UNL     1       5.304   3.627  15.985  0.00  0.00    +0.000 C 
ATOM     20  C   UNL     1       5.613   4.696  14.938  0.00  0.00    +0.000 C 
ATOM     21  C   UNL     1       6.357   5.934  15.439  0.00  0.00    +0.000 C 
ATOM     22  C   UNL     1       6.296   6.228  16.921  0.00  0.00    +0.000 A 
ATOM     23  C   UNL     1       7.145   7.270  17.332  0.00  0.00    +0.000 A 
ATOM     24  C   UNL     1       7.971   7.053  18.419  0.00  0.00    +0.000 A 
ATOM     25  C   UNL     1       7.844   5.859  19.127  0.00  0.00    +0.000 A 
ATOM     26  C   UNL     1       6.781   4.962  18.855  0.00  0.00    +0.000 A 
ATOM     27  C   UNL     1       5.916   5.195  17.784  0.00  0.00    +0.000 A 
ENDBRANCH  15  18
ENDBRANCH   4  15
TORSDOF 6
ENDMDL
MODEL 7
REMARK VINA RESULT:      -7.7      1.503      2.002
REMARK  Name = 
REMARK  7 active torsions:
REMARK  status: ('A' for Active; 'I' for Inactive)
REMARK    1  A    between atoms: C_1  and  O_2
REMARK    2  A    between atoms: O_2  and  C_3
REMARK    3  A    between atoms: C_3  and  C_4
REMARK    4  A    between atoms: C_4  and  N_5
REMARK    5  A    between atoms: C_6  and  C_8
REMARK    6  A    between atoms: C_11  and  S_12
REMARK    7  A    between atoms: S_12  and  N_15
REMARK                            x       y       z     vdW  Elec       q    Type
REMARK                         _______ _______ _______ _____ _____    ______ ____
ROOT
ATOM      1  C   UNL     1       1.443   9.097  19.423  0.00  0.00    +0.000 A 
ATOM      2  C   UNL     1       1.934   8.705  18.164  0.00  0.00    +0.000 A 
ATOM      3  C   UNL     1       2.435   7.398  17.949  0.00  0.00    +0.000 A 
ATOM      4  C   UNL     1       2.498   6.473  19.007  0.00  0.00    +0.000 A 
ATOM      5  C   UNL     1       1.976   6.854  20.248  0.00  0.00    +0.000 A 
ATOM      6  C   UNL     1       1.459   8.151  20.455  0.00  0.00    +0.000 A 
ENDROOT
BRANCH   1   8
ATOM      7  N   UNL     1       0.094  10.732  20.697  0.00  0.00    +0.000 N 
ATOM      8  C   UNL     1       0.937  10.514  19.613  0.00  0.00    +0.000 C 
ATOM      9  O   UNL     1       1.243  11.403  18.817  0.00  0.00    +0.000 OA
ATOM     10  H   UNL     1      -0.096   9.990  21.353  0.00  0.00    +0.000 HD
BRANCH   7  11
ATOM     11  C   UNL     1      -0.323  12.059  21.126  0.00  0.00    +0.000 C 
BRANCH  11  12
ATOM     12  C   UNL     1      -1.087  12.028  22.462  0.00  0.00    +0.000 C 
BRANCH  12  14
ATOM     13  C   UNL     1      -0.930  14.303  23.107  0.00  0.00    +0.000 C 
ATOM     14  O   UNL     1      -0.499  12.972  23.368  0.00  0.00    +0.000 OA
ENDBRANCH  12  14
ENDBRANCH  11  12
ENDBRANCH   7  11
ENDBRANCH   1   8
BRANCH   4  15
ATOM     15  S   UNL     1       2.978   4.732  18.742  0.00  0.00    +0.000 S 
ATOM     16  O   UNL     1       3.210   4.156  20.048  0.00  0.00    +0.000 OA
ATOM     17  O   UNL     1       1.948   4.186  17.874  0.00  0.00    +0.000 OA
BRANCH  15  18
ATOM     18  N   UNL     1       4.433   4.759  17.858  0.00  0.00    +0.000 N 
ATOM     19  C   UNL     1       4.568   3.836  16.735  0.00  0.00    +0.000 C 
ATOM     20  C   UNL     1       5.118   4.556  15.504  0.00  0.00    +0.000 C 
ATOM     21  C   UNL     1       6.171   5.632  15.769  0.00  0.00    +0.000 C 
ATOM     22  C   UNL     1       6.228   6.222  17.160  0.00  0.00    +0.000 A 
ATOM     23  C   UNL     1       7.329   7.068  17.378  0.00  0.00    +0.000 A 
ATOM     24  C   UNL     1       8.098   6.865  18.508  0.00  0.00    +0.000 A 
ATOM     25  C   UNL     1       7.683   5.912  19.436  0.00  0.00    +0.000 A 
ATOM     26  C   UNL     1       6.417   5.287  19.321  0.00  0.00    +0.000 A 
ATOM     27  C   UNL     1       5.614   5.518  18.201  0.00  0.00    +0.000 A 
ENDBRANCH  15  18
ENDBRANCH   4  15
TORSDOF 6
ENDMDL
MODEL 8
REMARK VINA RESULT:      -7.7      1.829      2.453
REMARK  Name = 
REMARK  7 active torsions:
REMARK  status: ('A' for Active; 'I' for Inactive)
REMARK    1  A    between atoms: C_1  and  O_2
REMARK    2  A    between atoms: O_2  and  C_3
REMARK    3  A    between atoms: C_3  and  C_4
REMARK    4  A    between atoms: C_4  and  N_5
REMARK    5  A    between atoms: C_6  and  C_8
REMARK    6  A    between atoms: C_11  and  S_12
REMARK    7  A    between atoms: S_12  and  N_15
REMARK                            x       y       z     vdW  Elec       q    Type
REMARK                         _______ _______ _______ _____ _____    ______ ____
ROOT
ATOM      1  C   UNL     1       1.504   8.450  20.067  0.00  0.00    +0.000 A 
ATOM      2  C   UNL     1       2.080   8.327  18.789  0.00  0.00    +0.000 A 
ATOM      3  C   UNL     1       2.604   7.090  18.339  0.00  0.00    +0.000 A 
ATOM      4  C   UNL     1       2.605   5.964  19.183  0.00  0.00    +0.000 A 
ATOM      5  C   UNL     1       1.999   6.081  20.439  0.00  0.00    +0.000 A 
ATOM      6  C   UNL     1       1.460   7.309  20.878  0.00  0.00    +0.000 A 
ENDROOT
BRANCH   1   8
ATOM      7  N   UNL     1       0.350  10.574  19.544  0.00  0.00    +0.000 N 
ATOM      8  C   UNL     1       0.975   9.799  20.515  0.00  0.00    +0.000 C 
ATOM      9  O   UNL     1       1.131  10.182  21.675  0.00  0.00    +0.000 OA
ATOM     10  H   UNL     1       0.199  10.206  18.617  0.00  0.00    +0.000 HD
BRANCH   7  11
ATOM     11  C   UNL     1      -0.375  11.799  19.848  0.00  0.00    +0.000 C 
BRANCH  11  12
ATOM     12  C   UNL     1       0.281  13.038  19.214  0.00  0.00    +0.000 C 
BRANCH  12  14
ATOM     13  C   UNL     1       2.396  13.301  18.177  0.00  0.00    +0.000 C 
ATOM     14  O   UNL     1       1.704  12.958  19.372  0.00  0.00    +0.000 OA
ENDBRANCH  12  14
ENDBRANCH  11  12
ENDBRANCH   7  11
ENDBRANCH   1   8
BRANCH   4  15
ATOM     15  S   UNL     1       3.116   4.314  18.593  0.00  0.00    +0.000 S 
ATOM     16  O   UNL     1       3.381   3.512  19.766  0.00  0.00    +0.000 OA
ATOM     17  O   UNL     1       2.082   3.916  17.651  0.00  0.00    +0.000 OA
BRANCH  15  18
ATOM     18  N   UNL     1       4.555   4.538  17.712  0.00  0.00    +0.000 N 
ATOM     19  C   UNL     1       4.768   3.712  16.527  0.00  0.00    +0.000 C 
ATOM     20  C   UNL     1       5.238   4.563  15.348  0.00  0.00    +0.000 C 
ATOM     21  C   UNL     1       6.189   5.712  15.686  0.00  0.00    +0.000 C 
ATOM     22  C   UNL     1       6.200   6.208  17.114  0.00  0.00    +0.000 A 
ATOM     23  C   UNL     1       7.220   7.135  17.389  0.00  0.00    +0.000 A 
ATOM     24  C   UNL     1       8.012   6.928  18.501  0.00  0.00    +0.000 A 
ATOM     25  C   UNL     1       7.695   5.879  19.362  0.00  0.00    +0.000 A 
ATOM     26  C   UNL     1       6.492   5.147  19.205  0.00  0.00    +0.000 A 
ATOM     27  C   UNL     1       5.663   5.379  18.105  0.00  0.00    +0.000 A 
ENDBRANCH  15  18
ENDBRANCH   4  15
TORSDOF 6
ENDMDL
MODEL 9
REMARK VINA RESULT:      -7.6      1.525      2.058
REMARK  Name = 
REMARK  7 active torsions:
REMARK  status: ('A' for Active; 'I' for Inactive)
REMARK    1  A    between atoms: C_1  and  O_2
REMARK    2  A    between atoms: O_2  and  C_3
REMARK    3  A    between atoms: C_3  and  C_4
REMARK    4  A    between atoms: C_4  and  N_5
REMARK    5  A    between atoms: C_6  and  C_8
REMARK    6  A    between atoms: C_11  and  S_12
REMARK    7  A    between atoms: S_12  and  N_15
REMARK                            x       y       z     vdW  Elec       q    Type
REMARK                         _______ _______ _______ _____ _____    ______ ____
ROOT
ATOM      1  C   UNL     1       1.582   7.914  20.173  0.00  0.00    +0.000 A 
ATOM      2  C   UNL     1       2.129   7.948  18.878  0.00  0.00    +0.000 A 
ATOM      3  C   UNL     1       2.663   6.782  18.277  0.00  0.00    +0.000 A 
ATOM      4  C   UNL     1       2.703   5.567  18.986  0.00  0.00    +0.000 A 
ATOM      5  C   UNL     1       2.126   5.528  20.261  0.00  0.00    +0.000 A 
ATOM      6  C   UNL     1       1.576   6.688  20.849  0.00  0.00    +0.000 A 
ENDROOT
BRANCH   1   8
ATOM      7  N   UNL     1       0.984  10.303  19.949  0.00  0.00    +0.000 N 
ATOM      8  C   UNL     1       1.041   9.193  20.784  0.00  0.00    +0.000 C 
ATOM      9  O   UNL     1       0.707   9.231  21.969  0.00  0.00    +0.000 OA
ATOM     10  H   UNL     1       1.222  10.220  18.973  0.00  0.00    +0.000 HD
BRANCH   7  11
ATOM     11  C   UNL     1       0.320  11.544  20.320  0.00  0.00    +0.000 C 
BRANCH  11  12
ATOM     12  C   UNL     1      -1.143  11.590  19.844  0.00  0.00    +0.000 C 
BRANCH  12  14
ATOM     13  C   UNL     1      -0.472  13.267  18.309  0.00  0.00    +0.000 C 
ATOM     14  O   UNL     1      -1.187  12.049  18.485  0.00  0.00    +0.000 OA
ENDBRANCH  12  14
ENDBRANCH  11  12
ENDBRANCH   7  11
ENDBRANCH   1   8
BRANCH   4  15
ATOM     15  S   UNL     1       3.227   4.005  18.200  0.00  0.00    +0.000 S 
ATOM     16  O   UNL     1       3.444   3.051  19.264  0.00  0.00    +0.000 OA
ATOM     17  O   UNL     1       2.228   3.747  17.176  0.00  0.00    +0.000 OA
BRANCH  15  18
ATOM     18  N   UNL     1       4.700   4.330  17.411  0.00  0.00    +0.000 N 
ATOM     19  C   UNL     1       5.030   3.541  16.228  0.00  0.00    +0.000 C 
ATOM     20  C   UNL     1       5.518   4.441  15.094  0.00  0.00    +0.000 C 
ATOM     21  C   UNL     1       6.377   5.636  15.506  0.00  0.00    +0.000 C 
ATOM     22  C   UNL     1       6.275   6.104  16.940  0.00  0.00    +0.000 A 
ATOM     23  C   UNL     1       7.220   7.084  17.290  0.00  0.00    +0.000 A 
ATOM     24  C   UNL     1       7.957   6.901  18.445  0.00  0.00    +0.000 A 
ATOM     25  C   UNL     1       7.652   5.818  19.268  0.00  0.00    +0.000 A 
ATOM     26  C   UNL     1       6.506   5.021  19.027  0.00  0.00    +0.000 A 
ATOM     27  C   UNL     1       5.731   5.226  17.883  0.00  0.00    +0.000 A 
ENDBRANCH  15  18
ENDBRANCH   4  15
TORSDOF 6
ENDMDL
