MODEL 1
REMARK VINA RESULT:      -6.0      0.000      0.000
REMARK  Name = 
REMARK  7 active torsions:
REMARK  status: ('A' for Active; 'I' for Inactive)
REMARK    1  A    between atoms: C_1  and  N_2
REMARK    2  A    between atoms: N_2  and  C_3
REMARK    3  A    between atoms: N_2  and  C_4
REMARK    4  A    between atoms: C_6  and  C_7
REMARK    5  A    between atoms: N_11  and  C_12
REMARK    6  A    between atoms: N_11  and  C_13
REMARK    7  A    between atoms: C_14  and  N_15
REMARK                            x       y       z     vdW  Elec       q    Type
REMARK                         _______ _______ _______ _____ _____    ______ ____
ROOT
ATOM      1  C   UNL     1       5.244   4.992  18.450  0.00  0.00    +0.000 A 
ATOM      2  N   UNL     1       4.712   6.147  18.025  0.00  0.00    +0.000 NA
ATOM      3  C   UNL     1       3.436   6.370  18.378  0.00  0.00    +0.000 A 
ATOM      4  N   UNL     1       2.636   5.554  19.088  0.00  0.00    +0.000 NA
ATOM      5  C   UNL     1       3.157   4.386  19.508  0.00  0.00    +0.000 A 
ATOM      6  N   UNL     1       2.295   3.449  20.093  0.00  0.00    +0.000 N 
ATOM      7  C   UNL     1       0.859   3.681  19.944  0.00  0.00    +0.000 C 
ATOM      8  C   UNL     1       2.679   2.801  21.344  0.00  0.00    +0.000 C 
ATOM      9  C   UNL     1       4.494   4.056  19.197  0.00  0.00    +0.000 A 
ENDROOT
BRANCH   1  11
ATOM     10  C   UNL     1       6.674   4.483  16.586  0.00  0.00    +0.000 C 
ATOM     11  N   UNL     1       6.564   4.619  18.041  0.00  0.00    +0.000 N 
ATOM     12  C   UNL     1       7.559   5.520  18.635  0.00  0.00    +0.000 C 
ENDBRANCH   1  11
BRANCH   9  13
ATOM     13  N   UNL     1       5.102   2.830  19.598  0.00  0.00    +0.000 N 
ATOM     14  H   UNL     1       4.879   2.663  20.575  0.00  0.00    +0.000 HD
ATOM     15  H   UNL     1       4.746   2.090  18.992  0.00  0.00    +0.000 HD
ENDBRANCH   9  13
BRANCH   3  16
ATOM     16  C   UNL     1       2.850   7.606  17.922  0.00  0.00    +0.000 C 
ATOM     17  N   UNL     1       2.378   8.600  17.553  0.00  0.00    +0.000 NA
ENDBRANCH   3  16
TORSDOF 3
ENDMDL
MODEL 2
REMARK VINA RESULT:      -5.8      0.949      4.144
REMARK  Name = 
REMARK  7 active torsions:
REMARK  status: ('A' for Active; 'I' for Inactive)
REMARK    1  A    between atoms: C_1  and  N_2
REMARK    2  A    between atoms: N_2  and  C_3
REMARK    3  A    between atoms: N_2  and  C_4
REMARK    4  A    between atoms: C_6  and  C_7
REMARK    5  A    between atoms: N_11  and  C_12
REMARK    6  A    between atoms: N_11  and  C_13
REMARK    7  A    between atoms: C_14  and  N_15
REMARK                            x       y       z     vdW  Elec       q    Type
REMARK                         _______ _______ _______ _____ _____    ______ ____
ROOT
ATOM      1  C   UNL     1       3.278   4.789  19.025  0.00  0.00    +0.000 A 
ATOM      2  N   UNL     1       2.618   5.917  18.722  0.00  0.00    +0.000 NA
ATOM      3  C   UNL     1       3.332   6.863  18.091  0.00  0.00    +0.000 A 
ATOM      4  N   UNL     1       4.632   6.808  17.752  0.00  0.00    +0.000 NA
ATOM      5  C   UNL     1       5.306   5.686  18.064  0.00  0.00    +0.000 A 
ATOM      6  N   UNL     1       6.696   5.677  17.880  0.00  0.00    +0.000 N 
ATOM      7  C   UNL     1       7.345   6.965  17.644  0.00  0.00    +0.000 C 
ATOM      8  C   UNL     1       7.325   4.546  17.203  0.00  0.00    +0.000 C 
ATOM      9  C   UNL     1       4.649   4.625  18.722  0.00  0.00    +0.000 A 
ENDROOT
BRANCH   1  11
ATOM     10  C   UNL     1       2.181   4.248  21.093  0.00  0.00    +0.000 C 
ATOM     11  N   UNL     1       2.633   3.764  19.786  0.00  0.00    +0.000 N 
ATOM     12  C   UNL     1       1.581   3.120  18.990  0.00  0.00    +0.000 C 
ENDBRANCH   1  11
BRANCH   9  13
ATOM     13  N   UNL     1       5.308   3.416  19.094  0.00  0.00    +0.000 N 
ATOM     14  H   UNL     1       6.308   3.593  19.135  0.00  0.00    +0.000 HD
ATOM     15  H   UNL     1       4.935   3.119  19.996  0.00  0.00    +0.000 HD
ENDBRANCH   9  13
BRANCH   3  16
ATOM     16  C   UNL     1       2.634   8.082  17.766  0.00  0.00    +0.000 C 
ATOM     17  N   UNL     1       2.071   9.063  17.503  0.00  0.00    +0.000 NA
ENDBRANCH   3  16
TORSDOF 3
ENDMDL
MODEL 3
REMARK VINA RESULT:      -5.4      1.613      3.845
REMARK  Name = 
REMARK  7 active torsions:
REMARK  status: ('A' for Active; 'I' for Inactive)
REMARK    1  A    between atoms: C_1  and  N_2
REMARK    2  A    between atoms: N_2  and  C_3
REMARK    3  A    between atoms: N_2  and  C_4
REMARK    4  A    between atoms: C_6  and  C_7
REMARK    5  A    between atoms: N_11  and  C_12
REMARK    6  A    between atoms: N_11  and  C_13
REMARK    7  A    between atoms: C_14  and  N_15
REMARK                            x       y       z     vdW  Elec       q    Type
REMARK                         _______ _______ _______ _____ _____    ______ ____
ROOT
ATOM      1  C   UNL     1       3.885   4.012  18.760  0.00  0.00    +0.000 A 
ATOM      2  N   UNL     1       4.959   4.214  17.983  0.00  0.00    +0.000 NA
ATOM      3  C   UNL     1       5.150   5.475  17.563  0.00  0.00    +0.000 A 
ATOM      4  N   UNL     1       4.373   6.542  17.820  0.00  0.00    +0.000 NA
ATOM      5  C   UNL     1       3.286   6.347  18.588  0.00  0.00    +0.000 A 
ATOM      6  N   UNL     1       2.373   7.402  18.722  0.00  0.00    +0.000 N 
ATOM      7  C   UNL     1       2.511   8.524  17.796  0.00  0.00    +0.000 C 
ATOM      8  C   UNL     1       1.882   7.765  20.048  0.00  0.00    +0.000 C 
ATOM      9  C   UNL     1       2.996   5.060  19.089  0.00  0.00    +0.000 A 
ENDROOT
BRANCH   1  11
ATOM     10  C   UNL     1       3.353   1.783  18.037  0.00  0.00    +0.000 C 
ATOM     11  N   UNL     1       3.541   2.687  19.175  0.00  0.00    +0.000 N 
ATOM     12  C   UNL     1       4.497   2.198  20.176  0.00  0.00    +0.000 C 
ENDBRANCH   1  11
BRANCH   9  13
ATOM     13  N   UNL     1       1.853   4.782  19.896  0.00  0.00    +0.000 N 
ATOM     14  H   UNL     1       1.077   4.545  19.284  0.00  0.00    +0.000 HD
ATOM     15  H   UNL     1       2.091   4.015  20.525  0.00  0.00    +0.000 HD
ENDBRANCH   9  13
BRANCH   3  16
ATOM     16  C   UNL     1       6.298   5.704  16.721  0.00  0.00    +0.000 C 
ATOM     17  N   UNL     1       7.224   5.888  16.045  0.00  0.00    +0.000 NA
ENDBRANCH   3  16
TORSDOF 3
ENDMDL
MODEL 4
REMARK VINA RESULT:      -5.4      1.275      4.248
REMARK  Name = 
REMARK  7 active torsions:
REMARK  status: ('A' for Active; 'I' for Inactive)
REMARK    1  A    between atoms: C_1  and  N_2
REMARK    2  A    between atoms: N_2  and  C_3
REMARK    3  A    between atoms: N_2  and  C_4
REMARK    4  A    between atoms: C_6  and  C_7
REMARK    5  A    between atoms: N_11  and  C_12
REMARK    6  A    between atoms: N_11  and  C_13
REMARK    7  A    between atoms: C_14  and  N_15
REMARK                            x       y       z     vdW  Elec       q    Type
REMARK                         _______ _______ _______ _____ _____    ______ ____
ROOT
ATOM      1  C   UNL     1       2.741   4.115  18.711  0.00  0.00    +0.000 A 
ATOM      2  N   UNL     1       2.249   5.357  18.837  0.00  0.00    +0.000 NA
ATOM      3  C   UNL     1       2.921   6.321  18.188  0.00  0.00    +0.000 A 
ATOM      4  N   UNL     1       4.037   6.178  17.450  0.00  0.00    +0.000 NA
ATOM      5  C   UNL     1       4.545   4.938  17.329  0.00  0.00    +0.000 A 
ATOM      6  N   UNL     1       5.797   4.793  16.716  0.00  0.00    +0.000 N 
ATOM      7  C   UNL     1       6.586   6.008  16.517  0.00  0.00    +0.000 C 
ATOM      8  C   UNL     1       5.981   3.774  15.687  0.00  0.00    +0.000 C 
ATOM      9  C   UNL     1       3.912   3.849  17.965  0.00  0.00    +0.000 A 
ENDROOT
BRANCH   1  11
ATOM     10  C   UNL     1       2.039   3.338  20.874  0.00  0.00    +0.000 C 
ATOM     11  N   UNL     1       2.155   3.036  19.445  0.00  0.00    +0.000 N 
ATOM     12  C   UNL     1       0.896   2.614  18.819  0.00  0.00    +0.000 C 
ENDBRANCH   1  11
BRANCH   9  13
ATOM     13  N   UNL     1       4.406   2.514  17.891  0.00  0.00    +0.000 N 
ATOM     14  H   UNL     1       5.120   2.393  18.604  0.00  0.00    +0.000 HD
ATOM     15  H   UNL     1       3.620   1.879  18.027  0.00  0.00    +0.000 HD
ENDBRANCH   9  13
BRANCH   3  16
ATOM     16  C   UNL     1       2.406   7.662  18.320  0.00  0.00    +0.000 C 
ATOM     17  N   UNL     1       1.991   8.741  18.429  0.00  0.00    +0.000 NA
ENDBRANCH   3  16
TORSDOF 3
ENDMDL
MODEL 5
REMARK VINA RESULT:      -5.3      2.200      3.517
REMARK  Name = 
REMARK  7 active torsions:
REMARK  status: ('A' for Active; 'I' for Inactive)
REMARK    1  A    between atoms: C_1  and  N_2
REMARK    2  A    between atoms: N_2  and  C_3
REMARK    3  A    between atoms: N_2  and  C_4
REMARK    4  A    between atoms: C_6  and  C_7
REMARK    5  A    between atoms: N_11  and  C_12
REMARK    6  A    between atoms: N_11  and  C_13
REMARK    7  A    between atoms: C_14  and  N_15
REMARK                            x       y       z     vdW  Elec       q    Type
REMARK                         _______ _______ _______ _____ _____    ______ ____
ROOT
ATOM      1  C   UNL     1       6.101   5.686  17.648  0.00  0.00    +0.000 A 
ATOM      2  N   UNL     1       6.444   5.297  16.411  0.00  0.00    +0.000 NA
ATOM      3  C   UNL     1       5.593   4.451  15.806  0.00  0.00    +0.000 A 
ATOM      4  N   UNL     1       4.456   3.942  16.313  0.00  0.00    +0.000 NA
ATOM      5  C   UNL     1       4.111   4.317  17.559  0.00  0.00    +0.000 A 
ATOM      6  N   UNL     1       3.031   3.666  18.170  0.00  0.00    +0.000 N 
ATOM      7  C   UNL     1       2.545   2.442  17.535  0.00  0.00    +0.000 C 
ATOM      8  C   UNL     1       1.999   4.455  18.837  0.00  0.00    +0.000 C 
ATOM      9  C   UNL     1       4.932   5.209  18.282  0.00  0.00    +0.000 A 
ENDROOT
BRANCH   1  11
ATOM     10  C   UNL     1       7.984   5.711  19.141  0.00  0.00    +0.000 C 
ATOM     11  N   UNL     1       6.991   6.505  18.412  0.00  0.00    +0.000 N 
ATOM     12  C   UNL     1       7.570   7.559  17.570  0.00  0.00    +0.000 C 
ENDBRANCH   1  11
BRANCH   9  13
ATOM     13  N   UNL     1       4.633   5.634  19.610  0.00  0.00    +0.000 N 
ATOM     14  H   UNL     1       4.627   4.818  20.216  0.00  0.00    +0.000 HD
ATOM     15  H   UNL     1       5.341   6.313  19.890  0.00  0.00    +0.000 HD
ENDBRANCH   9  13
BRANCH   3  16
ATOM     16  C   UNL     1       5.953   4.021  14.478  0.00  0.00    +0.000 C 
ATOM     17  N   UNL     1       6.241   3.674  13.408  0.00  0.00    +0.000 NA
ENDBRANCH   3  16
TORSDOF 3
ENDMDL
MODEL 6
REMARK VINA RESULT:      -5.2      1.844      4.145
REMARK  Name = 
REMARK  7 active torsions:
REMARK  status: ('A' for Active; 'I' for Inactive)
REMARK    1  A    between atoms: C_1  and  N_2
REMARK    2  A    between atoms: N_2  and  C_3
REMARK    3  A    between atoms: N_2  and  C_4
REMARK    4  A    between atoms: C_6  and  C_7
REMARK    5  A    between atoms: N_11  and  C_12
REMARK    6  A    between atoms: N_11  and  C_13
REMARK    7  A    between atoms: C_14  and  N_15
REMARK                            x       y       z     vdW  Elec       q    Type
REMARK                         _______ _______ _______ _____ _____    ______ ____
ROOT
ATOM      1  C   UNL     1       3.789   5.156  18.589  0.00  0.00    +0.000 A 
ATOM      2  N   UNL     1       3.413   4.216  19.469  0.00  0.00    +0.000 NA
ATOM      3  C   UNL     1       2.503   4.597  20.380  0.00  0.00    +0.000 A 
ATOM      4  N   UNL     1       1.950   5.816  20.515  0.00  0.00    +0.000 NA
ATOM      5  C   UNL     1       2.330   6.768  19.645  0.00  0.00    +0.000 A 
ATOM      6  N   UNL     1       1.902   8.083  19.875  0.00  0.00    +0.000 N 
ATOM      7  C   UNL     1       1.325   8.376  21.186  0.00  0.00    +0.000 C 
ATOM      8  C   UNL     1       1.337   8.859  18.775  0.00  0.00    +0.000 C 
ATOM      9  C   UNL     1       3.277   6.473  18.641  0.00  0.00    +0.000 A 
ENDROOT
BRANCH   1  11
ATOM     10  C   UNL     1       6.116   4.633  18.294  0.00  0.00    +0.000 C 
ATOM     11  N   UNL     1       4.826   4.878  17.644  0.00  0.00    +0.000 N 
ATOM     12  C   UNL     1       4.409   3.813  16.723  0.00  0.00    +0.000 C 
ENDBRANCH   1  11
BRANCH   9  13
ATOM     13  N   UNL     1       3.734   7.440  17.698  0.00  0.00    +0.000 N 
ATOM     14  H   UNL     1       3.206   7.326  16.837  0.00  0.00    +0.000 HD
ATOM     15  H   UNL     1       3.603   8.365  18.107  0.00  0.00    +0.000 HD
ENDBRANCH   9  13
BRANCH   3  16
ATOM     16  C   UNL     1       2.096   3.597  21.336  0.00  0.00    +0.000 C 
ATOM     17  N   UNL     1       1.770   2.791  22.105  0.00  0.00    +0.000 NA
ENDBRANCH   3  16
TORSDOF 3
ENDMDL
MODEL 7
REMARK VINA RESULT:      -5.1      1.669      5.447
REMARK  Name = 
REMARK  7 active torsions:
REMARK  status: ('A' for Active; 'I' for Inactive)
REMARK    1  A    between atoms: C_1  and  N_2
REMARK    2  A    between atoms: N_2  and  C_3
REMARK    3  A    between atoms: N_2  and  C_4
REMARK    4  A    between atoms: C_6  and  C_7
REMARK    5  A    between atoms: N_11  and  C_12
REMARK    6  A    between atoms: N_11  and  C_13
REMARK    7  A    between atoms: C_14  and  N_15
REMARK                            x       y       z     vdW  Elec       q    Type
REMARK                         _______ _______ _______ _____ _____    ______ ____
ROOT
ATOM      1  C   UNL     1       2.743   3.648  19.288  0.00  0.00    +0.000 A 
ATOM      2  N   UNL     1       3.293   2.708  20.071  0.00  0.00    +0.000 NA
ATOM      3  C   UNL     1       4.634   2.651  20.066  0.00  0.00    +0.000 A 
ATOM      4  N   UNL     1       5.476   3.417  19.348  0.00  0.00    +0.000 NA
ATOM      5  C   UNL     1       4.933   4.354  18.550  0.00  0.00    +0.000 A 
ATOM      6  N   UNL     1       5.777   5.040  17.666  0.00  0.00    +0.000 N 
ATOM      7  C   UNL     1       7.118   4.494  17.466  0.00  0.00    +0.000 C 
ATOM      8  C   UNL     1       5.694   6.495  17.574  0.00  0.00    +0.000 C 
ATOM      9  C   UNL     1       3.531   4.504  18.487  0.00  0.00    +0.000 A 
ENDROOT
BRANCH   1  11
ATOM     10  C   UNL     1       0.740   2.444  18.726  0.00  0.00    +0.000 C 
ATOM     11  N   UNL     1       1.321   3.721  19.150  0.00  0.00    +0.000 N 
ATOM     12  C   UNL     1       0.715   4.280  20.365  0.00  0.00    +0.000 C 
ENDBRANCH   1  11
BRANCH   9  13
ATOM     13  N   UNL     1       2.891   5.466  17.650  0.00  0.00    +0.000 N 
ATOM     14  H   UNL     1       3.006   6.385  18.068  0.00  0.00    +0.000 HD
ATOM     15  H   UNL     1       3.317   5.411  16.725  0.00  0.00    +0.000 HD
ENDBRANCH   9  13
BRANCH   3  16
ATOM     16  C   UNL     1       5.238   1.641  20.898  0.00  0.00    +0.000 C 
ATOM     17  N   UNL     1       5.722   0.827  21.570  0.00  0.00    +0.000 NA
ENDBRANCH   3  16
TORSDOF 3
ENDMDL
MODEL 8
REMARK VINA RESULT:      -5.1      1.904      2.016
REMARK  Name = 
REMARK  7 active torsions:
REMARK  status: ('A' for Active; 'I' for Inactive)
REMARK    1  A    between atoms: C_1  and  N_2
REMARK    2  A    between atoms: N_2  and  C_3
REMARK    3  A    between atoms: N_2  and  C_4
REMARK    4  A    between atoms: C_6  and  C_7
REMARK    5  A    between atoms: N_11  and  C_12
REMARK    6  A    between atoms: N_11  and  C_13
REMARK    7  A    between atoms: C_14  and  N_15
REMARK                            x       y       z     vdW  Elec       q    Type
REMARK                         _______ _______ _______ _____ _____    ______ ____
ROOT
ATOM      1  C   UNL     1       4.698   5.576  17.592  0.00  0.00    +0.000 A 
ATOM      2  N   UNL     1       4.035   6.512  18.288  0.00  0.00    +0.000 NA
ATOM      3  C   UNL     1       2.997   6.073  19.019  0.00  0.00    +0.000 A 
ATOM      4  N   UNL     1       2.544   4.809  19.108  0.00  0.00    +0.000 NA
ATOM      5  C   UNL     1       3.195   3.867  18.403  0.00  0.00    +0.000 A 
ATOM      6  N   UNL     1       2.636   2.583  18.343  0.00  0.00    +0.000 N 
ATOM      7  C   UNL     1       1.255   2.435  18.799  0.00  0.00    +0.000 C 
ATOM      8  C   UNL     1       3.483   1.417  18.581  0.00  0.00    +0.000 C 
ATOM      9  C   UNL     1       4.305   4.219  17.607  0.00  0.00    +0.000 A 
ENDROOT
BRANCH   1  11
ATOM     10  C   UNL     1       5.249   6.586  15.482  0.00  0.00    +0.000 C 
ATOM     11  N   UNL     1       5.754   5.959  16.706  0.00  0.00    +0.000 N 
ATOM     12  C   UNL     1       6.757   6.759  17.419  0.00  0.00    +0.000 C 
ENDBRANCH   1  11
BRANCH   9  13
ATOM     13  N   UNL     1       5.029   3.272  16.823  0.00  0.00    +0.000 N 
ATOM     14  H   UNL     1       4.734   2.338  17.092  0.00  0.00    +0.000 HD
ATOM     15  H   UNL     1       4.837   3.466  15.840  0.00  0.00    +0.000 HD
ENDBRANCH   9  13
BRANCH   3  16
ATOM     16  C   UNL     1       2.273   7.070  19.767  0.00  0.00    +0.000 C 
ATOM     17  N   UNL     1       1.689   7.871  20.371  0.00  0.00    +0.000 NA
ENDBRANCH   3  16
TORSDOF 3
ENDMDL
MODEL 9
REMARK VINA RESULT:      -5.1      2.585      4.990
REMARK  Name = 
REMARK  7 active torsions:
REMARK  status: ('A' for Active; 'I' for Inactive)
REMARK    1  A    between atoms: C_1  and  N_2
REMARK    2  A    between atoms: N_2  and  C_3
REMARK    3  A    between atoms: N_2  and  C_4
REMARK    4  A    between atoms: C_6  and  C_7
REMARK    5  A    between atoms: N_11  and  C_12
REMARK    6  A    between atoms: N_11  and  C_13
REMARK    7  A    between atoms: C_14  and  N_15
REMARK                            x       y       z     vdW  Elec       q    Type
REMARK                         _______ _______ _______ _____ _____    ______ ____
ROOT
ATOM      1  C   UNL     1       4.473   3.700  17.511  0.00  0.00    +0.000 A 
ATOM      2  N   UNL     1       4.704   3.510  16.203  0.00  0.00    +0.000 NA
ATOM      3  C   UNL     1       5.752   4.175  15.690  0.00  0.00    +0.000 A 
ATOM      4  N   UNL     1       6.573   5.019  16.339  0.00  0.00    +0.000 NA
ATOM      5  C   UNL     1       6.342   5.226  17.648  0.00  0.00    +0.000 A 
ATOM      6  N   UNL     1       7.071   6.231  18.299  0.00  0.00    +0.000 N 
ATOM      7  C   UNL     1       7.811   7.168  17.456  0.00  0.00    +0.000 C 
ATOM      8  C   UNL     1       7.697   5.946  19.587  0.00  0.00    +0.000 C 
ATOM      9  C   UNL     1       5.269   4.570  18.289  0.00  0.00    +0.000 A 
ENDROOT
BRANCH   1  11
ATOM     10  C   UNL     1       2.071   3.615  17.547  0.00  0.00    +0.000 C 
ATOM     11  N   UNL     1       3.321   3.114  18.126  0.00  0.00    +0.000 N 
ATOM     12  C   UNL     1       3.432   1.651  18.136  0.00  0.00    +0.000 C 
ENDBRANCH   1  11
BRANCH   9  13
ATOM     13  N   UNL     1       4.959   4.757  19.669  0.00  0.00    +0.000 N 
ATOM     14  H   UNL     1       4.023   4.399  19.841  0.00  0.00    +0.000 HD
ATOM     15  H   UNL     1       5.663   4.265  20.218  0.00  0.00    +0.000 HD
ENDBRANCH   9  13
BRANCH   3  16
ATOM     16  C   UNL     1       6.007   3.984  14.284  0.00  0.00    +0.000 C 
ATOM     17  N   UNL     1       6.212   3.832  13.152  0.00  0.00    +0.000 NA
ENDBRANCH   3  16
TORSDOF 3
ENDMDL
