MODEL 1
REMARK VINA RESULT:      -7.5      0.000      0.000
REMARK  Name = 
REMARK  4 active torsions:
REMARK  status: ('A' for Active; 'I' for Inactive)
REMARK    1  A    between atoms: C_2  and  C_17
REMARK    2  A    between atoms: N_3  and  C_4
REMARK    3  A    between atoms: C_4  and  N_6
REMARK    4  A    between atoms: N_6  and  C_7
REMARK                            x       y       z     vdW  Elec       q    Type
REMARK                         _______ _______ _______ _____ _____    ______ ____
ROOT
ATOM      1  N   UNL     1       4.379   3.789  18.712  0.00  0.00    +0.000 N 
ATOM      2  H   UNL     1       4.598   2.953  19.247  0.00  0.00    +0.000 HD
ENDROOT
BRANCH   1   3
ATOM      3  C   UNL     1       5.482   4.582  18.300  0.00  0.00    +0.000 A 
ATOM      4  C   UNL     1       6.199   5.294  19.267  0.00  0.00    +0.000 A 
ATOM      5  C   UNL     1       7.259   6.110  18.904  0.00  0.00    +0.000 A 
ATOM      6  C   UNL     1       7.614   6.215  17.565  0.00  0.00    +0.000 A 
ATOM      7  C   UNL     1       6.978   5.477  16.582  0.00  0.00    +0.000 A 
ATOM      8  N   UNL     1       7.423   5.630  15.322  0.00  0.00    +0.000 NA
ATOM      9  C   UNL     1       6.842   4.906  14.347  0.00  0.00    +0.000 A 
ATOM     10  C   UNL     1       5.825   4.002  14.572  0.00  0.00    +0.000 A 
ATOM     11  C   UNL     1       5.356   3.856  15.878  0.00  0.00    +0.000 A 
ATOM     12  C   UNL     1       5.916   4.609  16.939  0.00  0.00    +0.000 A 
ENDBRANCH   1   3
BRANCH   1  13
ATOM     13  C   UNL     1       3.037   3.971  18.435  0.00  0.00    +0.000 C 
ATOM     14  S   UNL     1       1.868   2.786  18.246  0.00  0.00    +0.000 S 
BRANCH  13  17
ATOM     15  O   UNL     1       2.734   5.951  20.529  0.00  0.00    +0.000 OA
ATOM     16  C   UNL     1       2.536   6.229  19.346  0.00  0.00    +0.000 C 
ATOM     17  N   UNL     1       2.619   5.281  18.341  0.00  0.00    +0.000 N 
ATOM     18  H   UNL     1       2.438   5.610  17.396  0.00  0.00    +0.000 HD
BRANCH  16  19
ATOM     19  C   UNL     1       2.145   7.553  18.925  0.00  0.00    +0.000 A 
ATOM     20  C   UNL     1       2.360   8.197  17.723  0.00  0.00    +0.000 A 
ATOM     21  C   UNL     1       1.898   9.520  17.878  0.00  0.00    +0.000 A 
ATOM     22  C   UNL     1       1.382   9.596  19.152  0.00  0.00    +0.000 A 
ATOM     23  O   UNL     1       1.506   8.401  19.793  0.00  0.00    +0.000 OA
ENDBRANCH  16  19
ENDBRANCH  13  17
ENDBRANCH   1  13
TORSDOF 4
ENDMDL
MODEL 2
REMARK VINA RESULT:      -7.4      1.218      1.494
REMARK  Name = 
REMARK  4 active torsions:
REMARK  status: ('A' for Active; 'I' for Inactive)
REMARK    1  A    between atoms: C_2  and  C_17
REMARK    2  A    between atoms: N_3  and  C_4
REMARK    3  A    between atoms: C_4  and  N_6
REMARK    4  A    between atoms: N_6  and  C_7
REMARK                            x       y       z     vdW  Elec       q    Type
REMARK                         _______ _______ _______ _____ _____    ______ ____
ROOT
ATOM      1  N   UNL     1       5.322   3.553  19.180  0.00  0.00    +0.000 N 
ATOM      2  H   UNL     1       5.793   2.724  19.535  0.00  0.00    +0.000 HD
ENDROOT
BRANCH   1   3
ATOM      3  C   UNL     1       6.144   4.524  18.550  0.00  0.00    +0.000 A 
ATOM      4  C   UNL     1       6.849   5.431  19.347  0.00  0.00    +0.000 A 
ATOM      5  C   UNL     1       7.633   6.418  18.771  0.00  0.00    +0.000 A 
ATOM      6  C   UNL     1       7.720   6.502  17.387  0.00  0.00    +0.000 A 
ATOM      7  C   UNL     1       7.095   5.585  16.560  0.00  0.00    +0.000 A 
ATOM      8  N   UNL     1       7.273   5.740  15.236  0.00  0.00    +0.000 NA
ATOM      9  C   UNL     1       6.699   4.849  14.406  0.00  0.00    +0.000 A 
ATOM     10  C   UNL     1       5.952   3.775  14.841  0.00  0.00    +0.000 A 
ATOM     11  C   UNL     1       5.757   3.625  16.215  0.00  0.00    +0.000 A 
ATOM     12  C   UNL     1       6.319   4.546  17.132  0.00  0.00    +0.000 A 
ENDBRANCH   1   3
BRANCH   1  13
ATOM     13  C   UNL     1       3.949   3.555  19.330  0.00  0.00    +0.000 C 
ATOM     14  S   UNL     1       2.902   2.261  19.131  0.00  0.00    +0.000 S 
BRANCH  13  17
ATOM     15  O   UNL     1       2.685   5.605  17.718  0.00  0.00    +0.000 OA
ATOM     16  C   UNL     1       2.741   5.694  18.945  0.00  0.00    +0.000 C 
ATOM     17  N   UNL     1       3.392   4.753  19.724  0.00  0.00    +0.000 N 
ATOM     18  H   UNL     1       3.384   4.916  20.728  0.00  0.00    +0.000 HD
BRANCH  16  19
ATOM     19  C   UNL     1       2.181   6.816  19.658  0.00  0.00    +0.000 A 
ATOM     20  C   UNL     1       1.564   6.859  20.893  0.00  0.00    +0.000 A 
ATOM     21  C   UNL     1       1.079   8.173  21.063  0.00  0.00    +0.000 A 
ATOM     22  C   UNL     1       1.470   8.871  19.943  0.00  0.00    +0.000 A 
ATOM     23  O   UNL     1       2.160   8.064  19.090  0.00  0.00    +0.000 OA
ENDBRANCH  16  19
ENDBRANCH  13  17
ENDBRANCH   1  13
TORSDOF 4
ENDMDL
MODEL 3
REMARK VINA RESULT:      -7.4      3.195      6.454
REMARK  Name = 
REMARK  4 active torsions:
REMARK  status: ('A' for Active; 'I' for Inactive)
REMARK    1  A    between atoms: C_2  and  C_17
REMARK    2  A    between atoms: N_3  and  C_4
REMARK    3  A    between atoms: C_4  and  N_6
REMARK    4  A    between atoms: N_6  and  C_7
REMARK                            x       y       z     vdW  Elec       q    Type
REMARK                         _______ _______ _______ _____ _____    ______ ____
ROOT
ATOM      1  N   UNL     1       5.573   4.318  18.357  0.00  0.00    +0.000 N 
ATOM      2  H   UNL     1       5.618   3.303  18.405  0.00  0.00    +0.000 HD
ENDROOT
BRANCH   1   3
ATOM      3  C   UNL     1       4.349   4.915  18.758  0.00  0.00    +0.000 A 
ATOM      4  C   UNL     1       3.985   6.146  18.203  0.00  0.00    +0.000 A 
ATOM      5  C   UNL     1       2.817   6.781  18.594  0.00  0.00    +0.000 A 
ATOM      6  C   UNL     1       1.998   6.183  19.545  0.00  0.00    +0.000 A 
ATOM      7  C   UNL     1       2.283   4.935  20.071  0.00  0.00    +0.000 A 
ATOM      8  N   UNL     1       1.407   4.435  20.959  0.00  0.00    +0.000 NA
ATOM      9  C   UNL     1       1.642   3.211  21.469  0.00  0.00    +0.000 A 
ATOM     10  C   UNL     1       2.725   2.435  21.116  0.00  0.00    +0.000 A 
ATOM     11  C   UNL     1       3.640   2.963  20.205  0.00  0.00    +0.000 A 
ATOM     12  C   UNL     1       3.454   4.254  19.654  0.00  0.00    +0.000 A 
ENDBRANCH   1   3
BRANCH   1  13
ATOM     13  C   UNL     1       6.742   4.938  17.959  0.00  0.00    +0.000 C 
ATOM     14  S   UNL     1       7.903   5.645  18.939  0.00  0.00    +0.000 S 
BRANCH  13  17
ATOM     15  O   UNL     1       5.562   3.291  15.887  0.00  0.00    +0.000 OA
ATOM     16  C   UNL     1       6.371   4.180  15.620  0.00  0.00    +0.000 C 
ATOM     17  N   UNL     1       6.988   4.935  16.603  0.00  0.00    +0.000 N 
ATOM     18  H   UNL     1       7.642   5.645  16.282  0.00  0.00    +0.000 HD
BRANCH  16  19
ATOM     19  C   UNL     1       6.781   4.462  14.266  0.00  0.00    +0.000 A 
ATOM     20  C   UNL     1       6.415   3.845  13.086  0.00  0.00    +0.000 A 
ATOM     21  C   UNL     1       7.206   4.414  12.065  0.00  0.00    +0.000 A 
ATOM     22  C   UNL     1       7.975   5.380  12.672  0.00  0.00    +0.000 A 
ATOM     23  O   UNL     1       7.712   5.436  14.007  0.00  0.00    +0.000 OA
ENDBRANCH  16  19
ENDBRANCH  13  17
ENDBRANCH   1  13
TORSDOF 4
ENDMDL
MODEL 4
REMARK VINA RESULT:      -7.3      3.163      6.400
REMARK  Name = 
REMARK  4 active torsions:
REMARK  status: ('A' for Active; 'I' for Inactive)
REMARK    1  A    between atoms: C_2  and  C_17
REMARK    2  A    between atoms: N_3  and  C_4
REMARK    3  A    between atoms: C_4  and  N_6
REMARK    4  A    between atoms: N_6  and  C_7
REMARK                            x       y       z     vdW  Elec       q    Type
REMARK                         _______ _______ _______ _____ _____    ______ ____
ROOT
ATOM      1  N   UNL     1       4.078   6.103  17.689  0.00  0.00    +0.000 N 
ATOM      2  H   UNL     1       3.845   6.860  17.051  0.00  0.00    +0.000 HD
ENDROOT
BRANCH   1   3
ATOM      3  C   UNL     1       3.091   5.763  18.652  0.00  0.00    +0.000 A 
ATOM      4  C   UNL     1       2.663   6.742  19.553  0.00  0.00    +0.000 A 
ATOM      5  C   UNL     1       1.730   6.442  20.533  0.00  0.00    +0.000 A 
ATOM      6  C   UNL     1       1.213   5.155  20.614  0.00  0.00    +0.000 A 
ATOM      7  C   UNL     1       1.555   4.172  19.701  0.00  0.00    +0.000 A 
ATOM      8  N   UNL     1       0.970   2.971  19.853  0.00  0.00    +0.000 NA
ATOM      9  C   UNL     1       1.263   2.002  18.965  0.00  0.00    +0.000 A 
ATOM     10  C   UNL     1       2.118   2.180  17.898  0.00  0.00    +0.000 A 
ATOM     11  C   UNL     1       2.734   3.423  17.753  0.00  0.00    +0.000 A 
ATOM     12  C   UNL     1       2.480   4.472  18.670  0.00  0.00    +0.000 A 
ENDBRANCH   1   3
BRANCH   1  13
ATOM     13  C   UNL     1       5.302   5.503  17.463  0.00  0.00    +0.000 C 
ATOM     14  S   UNL     1       6.474   5.123  18.599  0.00  0.00    +0.000 S 
BRANCH  13  17
ATOM     15  O   UNL     1       7.595   6.147  15.813  0.00  0.00    +0.000 OA
ATOM     16  C   UNL     1       6.691   5.419  15.403  0.00  0.00    +0.000 C 
ATOM     17  N   UNL     1       5.562   5.150  16.157  0.00  0.00    +0.000 N 
ATOM     18  H   UNL     1       4.871   4.536  15.730  0.00  0.00    +0.000 HD
BRANCH  16  19
ATOM     19  C   UNL     1       6.715   4.838  14.082  0.00  0.00    +0.000 A 
ATOM     20  C   UNL     1       5.998   3.773  13.574  0.00  0.00    +0.000 A 
ATOM     21  C   UNL     1       6.494   3.528  12.276  0.00  0.00    +0.000 A 
ATOM     22  C   UNL     1       7.454   4.487  12.048  0.00  0.00    +0.000 A 
ATOM     23  O   UNL     1       7.584   5.304  13.130  0.00  0.00    +0.000 OA
ENDBRANCH  16  19
ENDBRANCH  13  17
ENDBRANCH   1  13
TORSDOF 4
ENDMDL
MODEL 5
REMARK VINA RESULT:      -7.2      3.347      6.187
REMARK  Name = 
REMARK  4 active torsions:
REMARK  status: ('A' for Active; 'I' for Inactive)
REMARK    1  A    between atoms: C_2  and  C_17
REMARK    2  A    between atoms: N_3  and  C_4
REMARK    3  A    between atoms: C_4  and  N_6
REMARK    4  A    between atoms: N_6  and  C_7
REMARK                            x       y       z     vdW  Elec       q    Type
REMARK                         _______ _______ _______ _____ _____    ______ ____
ROOT
ATOM      1  N   UNL     1       5.901   6.178  18.431  0.00  0.00    +0.000 N 
ATOM      2  H   UNL     1       6.351   5.960  19.317  0.00  0.00    +0.000 HD
ENDROOT
BRANCH   1   3
ATOM      3  C   UNL     1       4.514   5.888  18.341  0.00  0.00    +0.000 A 
ATOM      4  C   UNL     1       3.650   6.872  17.851  0.00  0.00    +0.000 A 
ATOM      5  C   UNL     1       2.284   6.644  17.782  0.00  0.00    +0.000 A 
ATOM      6  C   UNL     1       1.773   5.421  18.199  0.00  0.00    +0.000 A 
ATOM      7  C   UNL     1       2.597   4.393  18.626  0.00  0.00    +0.000 A 
ATOM      8  N   UNL     1       1.999   3.241  18.976  0.00  0.00    +0.000 NA
ATOM      9  C   UNL     1       2.775   2.214  19.371  0.00  0.00    +0.000 A 
ATOM     10  C   UNL     1       4.151   2.274  19.420  0.00  0.00    +0.000 A 
ATOM     11  C   UNL     1       4.767   3.477  19.071  0.00  0.00    +0.000 A 
ATOM     12  C   UNL     1       3.999   4.596  18.669  0.00  0.00    +0.000 A 
ENDBRANCH   1   3
BRANCH   1  13
ATOM     13  C   UNL     1       6.719   6.771  17.490  0.00  0.00    +0.000 C 
ATOM     14  S   UNL     1       7.724   8.095  17.705  0.00  0.00    +0.000 S 
BRANCH  13  17
ATOM     15  O   UNL     1       7.882   4.244  16.678  0.00  0.00    +0.000 OA
ATOM     16  C   UNL     1       7.240   4.940  15.891  0.00  0.00    +0.000 C 
ATOM     17  N   UNL     1       6.729   6.176  16.247  0.00  0.00    +0.000 N 
ATOM     18  H   UNL     1       6.214   6.675  15.525  0.00  0.00    +0.000 HD
BRANCH  16  19
ATOM     19  C   UNL     1       7.022   4.545  14.520  0.00  0.00    +0.000 A 
ATOM     20  C   UNL     1       7.623   5.000  13.364  0.00  0.00    +0.000 A 
ATOM     21  C   UNL     1       6.953   4.386  12.285  0.00  0.00    +0.000 A 
ATOM     22  C   UNL     1       6.012   3.554  12.846  0.00  0.00    +0.000 A 
ATOM     23  O   UNL     1       6.057   3.623  14.205  0.00  0.00    +0.000 OA
ENDBRANCH  16  19
ENDBRANCH  13  17
ENDBRANCH   1  13
TORSDOF 4
ENDMDL
MODEL 6
REMARK VINA RESULT:      -7.2      2.547      6.866
REMARK  Name = 
REMARK  4 active torsions:
REMARK  status: ('A' for Active; 'I' for Inactive)
REMARK    1  A    between atoms: C_2  and  C_17
REMARK    2  A    between atoms: N_3  and  C_4
REMARK    3  A    between atoms: C_4  and  N_6
REMARK    4  A    between atoms: N_6  and  C_7
REMARK                            x       y       z     vdW  Elec       q    Type
REMARK                         _______ _______ _______ _____ _____    ______ ____
ROOT
ATOM      1  N   UNL     1       2.523   6.690  20.224  0.00  0.00    +0.000 N 
ATOM      2  H   UNL     1       3.072   6.761  21.077  0.00  0.00    +0.000 HD
ENDROOT
BRANCH   1   3
ATOM      3  C   UNL     1       1.969   7.900  19.728  0.00  0.00    +0.000 A 
ATOM      4  C   UNL     1       2.139   8.215  18.376  0.00  0.00    +0.000 A 
ATOM      5  C   UNL     1       1.648   9.404  17.859  0.00  0.00    +0.000 A 
ATOM      6  C   UNL     1       0.975  10.286  18.695  0.00  0.00    +0.000 A 
ATOM      7  C   UNL     1       0.723   9.986  20.023  0.00  0.00    +0.000 A 
ATOM      8  N   UNL     1       0.035  10.897  20.733  0.00  0.00    +0.000 NA
ATOM      9  C   UNL     1      -0.249  10.622  22.020  0.00  0.00    +0.000 A 
ATOM     10  C   UNL     1       0.114   9.448  22.646  0.00  0.00    +0.000 A 
ATOM     11  C   UNL     1       0.841   8.511  21.910  0.00  0.00    +0.000 A 
ATOM     12  C   UNL     1       1.186   8.758  20.559  0.00  0.00    +0.000 A 
ENDBRANCH   1   3
BRANCH   1  13
ATOM     13  C   UNL     1       2.462   5.426  19.671  0.00  0.00    +0.000 C 
ATOM     14  S   UNL     1       1.425   4.179  20.094  0.00  0.00    +0.000 S 
BRANCH  13  17
ATOM     15  O   UNL     1       5.359   5.388  19.678  0.00  0.00    +0.000 OA
ATOM     16  C   UNL     1       4.715   5.115  18.666  0.00  0.00    +0.000 C 
ATOM     17  N   UNL     1       3.333   5.186  18.630  0.00  0.00    +0.000 N 
ATOM     18  H   UNL     1       2.892   4.942  17.746  0.00  0.00    +0.000 HD
BRANCH  16  19
ATOM     19  C   UNL     1       5.355   4.758  17.423  0.00  0.00    +0.000 A 
ATOM     20  C   UNL     1       4.937   3.892  16.432  0.00  0.00    +0.000 A 
ATOM     21  C   UNL     1       5.991   3.797  15.500  0.00  0.00    +0.000 A 
ATOM     22  C   UNL     1       6.975   4.648  15.949  0.00  0.00    +0.000 A 
ATOM     23  O   UNL     1       6.593   5.256  17.107  0.00  0.00    +0.000 OA
ENDBRANCH  16  19
ENDBRANCH  13  17
ENDBRANCH   1  13
TORSDOF 4
ENDMDL
MODEL 7
REMARK VINA RESULT:      -7.2      3.029      6.101
REMARK  Name = 
REMARK  4 active torsions:
REMARK  status: ('A' for Active; 'I' for Inactive)
REMARK    1  A    between atoms: C_2  and  C_17
REMARK    2  A    between atoms: N_3  and  C_4
REMARK    3  A    between atoms: C_4  and  N_6
REMARK    4  A    between atoms: N_6  and  C_7
REMARK                            x       y       z     vdW  Elec       q    Type
REMARK                         _______ _______ _______ _____ _____    ______ ____
ROOT
ATOM      1  N   UNL     1       5.703   4.239  19.017  0.00  0.00    +0.000 N 
ATOM      2  H   UNL     1       5.978   3.391  19.507  0.00  0.00    +0.000 HD
ENDROOT
BRANCH   1   3
ATOM      3  C   UNL     1       4.352   4.646  19.168  0.00  0.00    +0.000 A 
ATOM      4  C   UNL     1       4.076   5.996  19.405  0.00  0.00    +0.000 A 
ATOM      5  C   UNL     1       2.774   6.430  19.597  0.00  0.00    +0.000 A 
ATOM      6  C   UNL     1       1.733   5.511  19.548  0.00  0.00    +0.000 A 
ATOM      7  C   UNL     1       1.951   4.176  19.250  0.00  0.00    +0.000 A 
ATOM      8  N   UNL     1       0.869   3.380  19.197  0.00  0.00    +0.000 NA
ATOM      9  C   UNL     1       1.045   2.083  18.883  0.00  0.00    +0.000 A 
ATOM     10  C   UNL     1       2.275   1.529  18.597  0.00  0.00    +0.000 A 
ATOM     11  C   UNL     1       3.398   2.355  18.667  0.00  0.00    +0.000 A 
ATOM     12  C   UNL     1       3.273   3.722  19.014  0.00  0.00    +0.000 A 
ENDBRANCH   1   3
BRANCH   1  13
ATOM     13  C   UNL     1       6.721   4.874  18.331  0.00  0.00    +0.000 C 
ATOM     14  S   UNL     1       7.929   5.843  18.972  0.00  0.00    +0.000 S 
BRANCH  13  17
ATOM     15  O   UNL     1       5.771   6.552  16.168  0.00  0.00    +0.000 OA
ATOM     16  C   UNL     1       6.351   5.488  15.950  0.00  0.00    +0.000 C 
ATOM     17  N   UNL     1       6.758   4.647  16.972  0.00  0.00    +0.000 N 
ATOM     18  H   UNL     1       7.229   3.790  16.690  0.00  0.00    +0.000 HD
BRANCH  16  19
ATOM     19  C   UNL     1       6.598   5.009  14.611  0.00  0.00    +0.000 A 
ATOM     20  C   UNL     1       5.934   4.043  13.883  0.00  0.00    +0.000 A 
ATOM     21  C   UNL     1       6.659   3.862  12.686  0.00  0.00    +0.000 A 
ATOM     22  C   UNL     1       7.699   4.762  12.732  0.00  0.00    +0.000 A 
ATOM     23  O   UNL     1       7.662   5.482  13.887  0.00  0.00    +0.000 OA
ENDBRANCH  16  19
ENDBRANCH  13  17
ENDBRANCH   1  13
TORSDOF 4
ENDMDL
MODEL 8
REMARK VINA RESULT:      -7.2      1.495      1.906
REMARK  Name = 
REMARK  4 active torsions:
REMARK  status: ('A' for Active; 'I' for Inactive)
REMARK    1  A    between atoms: C_2  and  C_17
REMARK    2  A    between atoms: N_3  and  C_4
REMARK    3  A    between atoms: C_4  and  N_6
REMARK    4  A    between atoms: N_6  and  C_7
REMARK                            x       y       z     vdW  Elec       q    Type
REMARK                         _______ _______ _______ _____ _____    ______ ____
ROOT
ATOM      1  N   UNL     1       3.532   5.224  18.487  0.00  0.00    +0.000 N 
ATOM      2  H   UNL     1       2.969   5.364  17.652  0.00  0.00    +0.000 HD
ENDROOT
BRANCH   1   3
ATOM      3  C   UNL     1       4.940   5.235  18.308  0.00  0.00    +0.000 A 
ATOM      4  C   UNL     1       5.760   5.470  19.416  0.00  0.00    +0.000 A 
ATOM      5  C   UNL     1       7.138   5.526  19.279  0.00  0.00    +0.000 A 
ATOM      6  C   UNL     1       7.708   5.341  18.025  0.00  0.00    +0.000 A 
ATOM      7  C   UNL     1       6.942   5.038  16.913  0.00  0.00    +0.000 A 
ATOM      8  N   UNL     1       7.599   4.846  15.755  0.00  0.00    +0.000 NA
ATOM      9  C   UNL     1       6.884   4.524  14.661  0.00  0.00    +0.000 A 
ATOM     10  C   UNL     1       5.514   4.364  14.666  0.00  0.00    +0.000 A 
ATOM     11  C   UNL     1       4.834   4.578  15.865  0.00  0.00    +0.000 A 
ATOM     12  C   UNL     1       5.534   4.940  17.042  0.00  0.00    +0.000 A 
ENDBRANCH   1   3
BRANCH   1  13
ATOM     13  C   UNL     1       2.815   5.103  19.662  0.00  0.00    +0.000 C 
ATOM     14  S   UNL     1       2.510   3.700  20.527  0.00  0.00    +0.000 S 
BRANCH  13  17
ATOM     15  O   UNL     1       2.433   7.670  18.373  0.00  0.00    +0.000 OA
ATOM     16  C   UNL     1       2.102   7.482  19.544  0.00  0.00    +0.000 C 
ATOM     17  N   UNL     1       2.332   6.280  20.192  0.00  0.00    +0.000 N 
ATOM     18  H   UNL     1       2.023   6.223  21.159  0.00  0.00    +0.000 HD
BRANCH  16  19
ATOM     19  C   UNL     1       1.502   8.520  20.348  0.00  0.00    +0.000 A 
ATOM     20  C   UNL     1       1.217   8.536  21.698  0.00  0.00    +0.000 A 
ATOM     21  C   UNL     1       0.511   9.731  21.953  0.00  0.00    +0.000 A 
ATOM     22  C   UNL     1       0.448  10.399  20.751  0.00  0.00    +0.000 A 
ATOM     23  O   UNL     1       1.066   9.685  19.770  0.00  0.00    +0.000 OA
ENDBRANCH  16  19
ENDBRANCH  13  17
ENDBRANCH   1  13
TORSDOF 4
ENDMDL
MODEL 9
REMARK VINA RESULT:      -7.0      3.266      6.218
REMARK  Name = 
REMARK  4 active torsions:
REMARK  status: ('A' for Active; 'I' for Inactive)
REMARK    1  A    between atoms: C_2  and  C_17
REMARK    2  A    between atoms: N_3  and  C_4
REMARK    3  A    between atoms: C_4  and  N_6
REMARK    4  A    between atoms: N_6  and  C_7
REMARK                            x       y       z     vdW  Elec       q    Type
REMARK                         _______ _______ _______ _____ _____    ______ ____
ROOT
ATOM      1  N   UNL     1       4.114   6.648  17.022  0.00  0.00    +0.000 N 
ATOM      2  H   UNL     1       3.541   7.097  16.312  0.00  0.00    +0.000 HD
ENDROOT
BRANCH   1   3
ATOM      3  C   UNL     1       3.424   6.083  18.126  0.00  0.00    +0.000 A 
ATOM      4  C   UNL     1       2.814   6.938  19.050  0.00  0.00    +0.000 A 
ATOM      5  C   UNL     1       2.162   6.430  20.162  0.00  0.00    +0.000 A 
ATOM      6  C   UNL     1       2.112   5.055  20.356  0.00  0.00    +0.000 A 
ATOM      7  C   UNL     1       2.641   4.168  19.434  0.00  0.00    +0.000 A 
ATOM      8  N   UNL     1       2.508   2.858  19.704  0.00  0.00    +0.000 NA
ATOM      9  C   UNL     1       2.990   1.970  18.814  0.00  0.00    +0.000 A 
ATOM     10  C   UNL     1       3.598   2.331  17.631  0.00  0.00    +0.000 A 
ATOM     11  C   UNL     1       3.747   3.692  17.360  0.00  0.00    +0.000 A 
ATOM     12  C   UNL     1       3.279   4.669  18.272  0.00  0.00    +0.000 A 
ENDBRANCH   1   3
BRANCH   1  13
ATOM     13  C   UNL     1       5.469   6.624  16.750  0.00  0.00    +0.000 C 
ATOM     14  S   UNL     1       6.712   7.188  17.723  0.00  0.00    +0.000 S 
BRANCH  13  17
ATOM     15  O   UNL     1       7.490   4.611  16.239  0.00  0.00    +0.000 OA
ATOM     16  C   UNL     1       6.758   5.031  15.343  0.00  0.00    +0.000 C 
ATOM     17  N   UNL     1       5.828   6.033  15.558  0.00  0.00    +0.000 N 
ATOM     18  H   UNL     1       5.271   6.311  14.754  0.00  0.00    +0.000 HD
BRANCH  16  19
ATOM     19  C   UNL     1       6.854   4.548  13.986  0.00  0.00    +0.000 A 
ATOM     20  C   UNL     1       7.646   4.993  12.946  0.00  0.00    +0.000 A 
ATOM     21  C   UNL     1       7.256   4.270  11.798  0.00  0.00    +0.000 A 
ATOM     22  C   UNL     1       6.282   3.392  12.213  0.00  0.00    +0.000 A 
ATOM     23  O   UNL     1       6.042   3.534  13.546  0.00  0.00    +0.000 OA
ENDBRANCH  16  19
ENDBRANCH  13  17
ENDBRANCH   1  13
TORSDOF 4
ENDMDL
