MODEL 1
REMARK VINA RESULT:      -8.1      0.000      0.000
REMARK  Name = 
REMARK  10 active torsions:
REMARK  status: ('A' for Active; 'I' for Inactive)
REMARK    1  A    between atoms: C_2  and  O_3
REMARK    2  A    between atoms: C_2  and  C_4
REMARK    3  A    between atoms: C_4  and  C_5
REMARK    4  A    between atoms: C_4  and  O_12
REMARK    5  A    between atoms: C_5  and  C_6
REMARK    6  A    between atoms: O_12  and  C_13
REMARK    7  A    between atoms: C_16  and  C_17
REMARK    8  A    between atoms: N_18  and  O_19
REMARK    9  A    between atoms: O_19  and  C_20
REMARK   10  A    between atoms: C_20  and  C_21
REMARK                            x       y       z     vdW  Elec       q    Type
REMARK                         _______ _______ _______ _____ _____    ______ ____
ROOT
ATOM      1  C   UNL     1       4.146   6.227  18.565  0.00  0.00    +0.000 A 
ATOM      2  C   UNL     1       4.118   7.074  17.452  0.00  0.00    +0.000 A 
ATOM      3  C   UNL     1       3.166   8.090  17.356  0.00  0.00    +0.000 A 
ATOM      4  C   UNL     1       2.215   8.233  18.366  0.00  0.00    +0.000 A 
ATOM      5  C   UNL     1       2.197   7.353  19.450  0.00  0.00    +0.000 A 
ATOM      6  C   UNL     1       3.163   6.345  19.547  0.00  0.00    +0.000 A 
ENDROOT
BRANCH   4   7
ATOM      7  C   UNL     1       1.239   9.328  18.269  0.00  0.00    +0.000 C 
ATOM      8  N   UNL     1       0.981  10.098  19.276  0.00  0.00    +0.000 NA
BRANCH   8   9
ATOM      9  O   UNL     1       0.006  11.030  18.885  0.00  0.00    +0.000 OA
BRANCH   9  10
ATOM     10  C   UNL     1      -1.278  10.540  19.273  0.00  0.00    +0.000 C 
BRANCH  10  11
ATOM     11  C   UNL     1      -2.209  10.622  18.093  0.00  0.00    +0.000 A 
ATOM     12  C   UNL     1      -1.941   9.895  16.924  0.00  0.00    +0.000 A 
ATOM     13  C   UNL     1      -2.800   9.982  15.827  0.00  0.00    +0.000 A 
ATOM     14  C   UNL     1      -3.929  10.797  15.886  0.00  0.00    +0.000 A 
ATOM     15  C   UNL     1      -4.197  11.533  17.038  0.00  0.00    +0.000 A 
ATOM     16  C   UNL     1      -3.339  11.450  18.136  0.00  0.00    +0.000 A 
ENDBRANCH  10  11
ENDBRANCH   9  10
ENDBRANCH   8   9
ENDBRANCH   4   7
BRANCH   1  17
ATOM     17  O   UNL     1       5.199   5.358  18.580  0.00  0.00    +0.000 OA
BRANCH  17  18
ATOM     18  C   UNL     1       5.648   4.794  17.337  0.00  0.00    +0.000 C 
BRANCH  18  20
ATOM     19  O   UNL     1       7.763   4.501  18.516  0.00  0.00    +0.000 OA
ATOM     20  C   UNL     1       7.160   4.582  17.457  0.00  0.00    +0.000 C 
BRANCH  20  21
ATOM     21  O   UNL     1       7.782   4.456  16.257  0.00  0.00    +0.000 OA
ATOM     22  H   UNL     1       8.296   3.618  16.243  0.00  0.00    +0.000 HD
ENDBRANCH  20  21
ENDBRANCH  18  20
BRANCH  18  23
ATOM     23  C   UNL     1       4.963   3.466  16.955  0.00  0.00    +0.000 C 
BRANCH  23  24
ATOM     24  C   UNL     1       3.673   3.150  17.678  0.00  0.00    +0.000 A 
ATOM     25  C   UNL     1       3.673   2.349  18.829  0.00  0.00    +0.000 A 
ATOM     26  C   UNL     1       2.484   2.094  19.517  0.00  0.00    +0.000 A 
ATOM     27  C   UNL     1       1.287   2.642  19.065  0.00  0.00    +0.000 A 
ATOM     28  C   UNL     1       1.274   3.437  17.920  0.00  0.00    +0.000 A 
ATOM     29  C   UNL     1       2.461   3.687  17.229  0.00  0.00    +0.000 A 
ENDBRANCH  23  24
ENDBRANCH  18  23
ENDBRANCH  17  18
ENDBRANCH   1  17
TORSDOF 10
ENDMDL
MODEL 2
REMARK VINA RESULT:      -7.9      0.637      1.261
REMARK  Name = 
REMARK  10 active torsions:
REMARK  status: ('A' for Active; 'I' for Inactive)
REMARK    1  A    between atoms: C_2  and  O_3
REMARK    2  A    between atoms: C_2  and  C_4
REMARK    3  A    between atoms: C_4  and  C_5
REMARK    4  A    between atoms: C_4  and  O_12
REMARK    5  A    between atoms: C_5  and  C_6
REMARK    6  A    between atoms: O_12  and  C_13
REMARK    7  A    between atoms: C_16  and  C_17
REMARK    8  A    between atoms: N_18  and  O_19
REMARK    9  A    between atoms: O_19  and  C_20
REMARK   10  A    between atoms: C_20  and  C_21
REMARK                            x       y       z     vdW  Elec       q    Type
REMARK                         _______ _______ _______ _____ _____    ______ ____
ROOT
ATOM      1  C   UNL     1       3.988   6.468  18.380  0.00  0.00    +0.000 A 
ATOM      2  C   UNL     1       3.733   7.495  17.465  0.00  0.00    +0.000 A 
ATOM      3  C   UNL     1       2.737   8.439  17.716  0.00  0.00    +0.000 A 
ATOM      4  C   UNL     1       1.969   8.330  18.874  0.00  0.00    +0.000 A 
ATOM      5  C   UNL     1       2.174   7.273  19.763  0.00  0.00    +0.000 A 
ATOM      6  C   UNL     1       3.185   6.337  19.512  0.00  0.00    +0.000 A 
ENDROOT
BRANCH   4   7
ATOM      7  C   UNL     1       0.945   9.350  19.143  0.00  0.00    +0.000 C 
ATOM      8  N   UNL     1       0.879  10.444  18.455  0.00  0.00    +0.000 NA
BRANCH   8   9
ATOM      9  O   UNL     1      -0.182  11.219  18.951  0.00  0.00    +0.000 OA
BRANCH   9  10
ATOM     10  C   UNL     1      -1.324  10.378  19.115  0.00  0.00    +0.000 C 
BRANCH  10  11
ATOM     11  C   UNL     1      -2.212  10.520  17.908  0.00  0.00    +0.000 A 
ATOM     12  C   UNL     1      -3.318  11.383  17.934  0.00  0.00    +0.000 A 
ATOM     13  C   UNL     1      -4.145  11.504  16.817  0.00  0.00    +0.000 A 
ATOM     14  C   UNL     1      -3.881  10.763  15.667  0.00  0.00    +0.000 A 
ATOM     15  C   UNL     1      -2.793   9.892  15.634  0.00  0.00    +0.000 A 
ATOM     16  C   UNL     1      -1.964   9.768  16.751  0.00  0.00    +0.000 A 
ENDBRANCH  10  11
ENDBRANCH   9  10
ENDBRANCH   8   9
ENDBRANCH   4   7
BRANCH   1  17
ATOM     17  O   UNL     1       5.064   5.690  18.062  0.00  0.00    +0.000 OA
BRANCH  17  18
ATOM     18  C   UNL     1       5.101   5.055  16.774  0.00  0.00    +0.000 C 
BRANCH  18  20
ATOM     19  O   UNL     1       6.864   5.633  15.190  0.00  0.00    +0.000 OA
ATOM     20  C   UNL     1       6.543   5.149  16.265  0.00  0.00    +0.000 C 
BRANCH  20  21
ATOM     21  O   UNL     1       7.456   4.664  17.144  0.00  0.00    +0.000 OA
ATOM     22  H   UNL     1       7.827   3.822  16.798  0.00  0.00    +0.000 HD
ENDBRANCH  20  21
ENDBRANCH  18  20
BRANCH  18  23
ATOM     23  C   UNL     1       4.643   3.582  16.775  0.00  0.00    +0.000 C 
BRANCH  23  24
ATOM     24  C   UNL     1       3.457   3.254  17.653  0.00  0.00    +0.000 A 
ATOM     25  C   UNL     1       3.614   2.476  18.810  0.00  0.00    +0.000 A 
ATOM     26  C   UNL     1       2.522   2.211  19.641  0.00  0.00    +0.000 A 
ATOM     27  C   UNL     1       1.268   2.726  19.328  0.00  0.00    +0.000 A 
ATOM     28  C   UNL     1       1.100   3.498  18.179  0.00  0.00    +0.000 A 
ATOM     29  C   UNL     1       2.188   3.759  17.346  0.00  0.00    +0.000 A 
ENDBRANCH  23  24
ENDBRANCH  18  23
ENDBRANCH  17  18
ENDBRANCH   1  17
TORSDOF 10
ENDMDL
MODEL 3
REMARK VINA RESULT:      -7.8      1.276      1.739
REMARK  Name = 
REMARK  10 active torsions:
REMARK  status: ('A' for Active; 'I' for Inactive)
REMARK    1  A    between atoms: C_2  and  O_3
REMARK    2  A    between atoms: C_2  and  C_4
REMARK    3  A    between atoms: C_4  and  C_5
REMARK    4  A    between atoms: C_4  and  O_12
REMARK    5  A    between atoms: C_5  and  C_6
REMARK    6  A    between atoms: O_12  and  C_13
REMARK    7  A    between atoms: C_16  and  C_17
REMARK    8  A    between atoms: N_18  and  O_19
REMARK    9  A    between atoms: O_19  and  C_20
REMARK   10  A    between atoms: C_20  and  C_21
REMARK                            x       y       z     vdW  Elec       q    Type
REMARK                         _______ _______ _______ _____ _____    ______ ____
ROOT
ATOM      1  C   UNL     1       3.745   6.473  18.233  0.00  0.00    +0.000 A 
ATOM      2  C   UNL     1       3.108   6.457  19.478  0.00  0.00    +0.000 A 
ATOM      3  C   UNL     1       2.148   7.418  19.797  0.00  0.00    +0.000 A 
ATOM      4  C   UNL     1       1.853   8.421  18.875  0.00  0.00    +0.000 A 
ATOM      5  C   UNL     1       2.528   8.481  17.655  0.00  0.00    +0.000 A 
ATOM      6  C   UNL     1       3.480   7.506  17.335  0.00  0.00    +0.000 A 
ENDROOT
BRANCH   4   7
ATOM      7  C   UNL     1       0.815   9.407  19.210  0.00  0.00    +0.000 C 
ATOM      8  N   UNL     1       0.359   9.530  20.414  0.00  0.00    +0.000 NA
BRANCH   8   9
ATOM      9  O   UNL     1      -0.623  10.534  20.418  0.00  0.00    +0.000 OA
BRANCH   9  10
ATOM     10  C   UNL     1      -0.553  11.247  19.183  0.00  0.00    +0.000 C 
BRANCH  10  11
ATOM     11  C   UNL     1      -1.884  11.148  18.486  0.00  0.00    +0.000 A 
ATOM     12  C   UNL     1      -2.011  10.426  17.291  0.00  0.00    +0.000 A 
ATOM     13  C   UNL     1      -3.243  10.345  16.642  0.00  0.00    +0.000 A 
ATOM     14  C   UNL     1      -4.358  10.990  17.175  0.00  0.00    +0.000 A 
ATOM     15  C   UNL     1      -4.241  11.722  18.355  0.00  0.00    +0.000 A 
ATOM     16  C   UNL     1      -3.009  11.805  19.006  0.00  0.00    +0.000 A 
ENDBRANCH  10  11
ENDBRANCH   9  10
ENDBRANCH   8   9
ENDBRANCH   4   7
BRANCH   1  17
ATOM     17  O   UNL     1       4.573   5.409  18.014  0.00  0.00    +0.000 OA
BRANCH  17  18
ATOM     18  C   UNL     1       4.216   4.451  17.005  0.00  0.00    +0.000 C 
BRANCH  18  20
ATOM     19  O   UNL     1       5.883   5.297  15.439  0.00  0.00    +0.000 OA
ATOM     20  C   UNL     1       5.399   4.349  16.039  0.00  0.00    +0.000 C 
BRANCH  20  21
ATOM     21  O   UNL     1       5.895   3.091  15.926  0.00  0.00    +0.000 OA
ATOM     22  H   UNL     1       5.187   2.490  15.602  0.00  0.00    +0.000 HD
ENDBRANCH  20  21
ENDBRANCH  18  20
BRANCH  18  23
ATOM     23  C   UNL     1       3.865   3.051  17.551  0.00  0.00    +0.000 C 
BRANCH  23  24
ATOM     24  C   UNL     1       2.970   3.016  18.768  0.00  0.00    +0.000 A 
ATOM     25  C   UNL     1       3.500   2.765  20.042  0.00  0.00    +0.000 A 
ATOM     26  C   UNL     1       2.674   2.774  21.169  0.00  0.00    +0.000 A 
ATOM     27  C   UNL     1       1.315   3.042  21.035  0.00  0.00    +0.000 A 
ATOM     28  C   UNL     1       0.777   3.290  19.774  0.00  0.00    +0.000 A 
ATOM     29  C   UNL     1       1.600   3.275  18.646  0.00  0.00    +0.000 A 
ENDBRANCH  23  24
ENDBRANCH  18  23
ENDBRANCH  17  18
ENDBRANCH   1  17
TORSDOF 10
ENDMDL
MODEL 4
REMARK VINA RESULT:      -7.8      1.170      1.998
REMARK  Name = 
REMARK  10 active torsions:
REMARK  status: ('A' for Active; 'I' for Inactive)
REMARK    1  A    between atoms: C_2  and  O_3
REMARK    2  A    between atoms: C_2  and  C_4
REMARK    3  A    between atoms: C_4  and  C_5
REMARK    4  A    between atoms: C_4  and  O_12
REMARK    5  A    between atoms: C_5  and  C_6
REMARK    6  A    between atoms: O_12  and  C_13
REMARK    7  A    between atoms: C_16  and  C_17
REMARK    8  A    between atoms: N_18  and  O_19
REMARK    9  A    between atoms: O_19  and  C_20
REMARK   10  A    between atoms: C_20  and  C_21
REMARK                            x       y       z     vdW  Elec       q    Type
REMARK                         _______ _______ _______ _____ _____    ______ ____
ROOT
ATOM      1  C   UNL     1       3.732   6.299  18.388  0.00  0.00    +0.000 A 
ATOM      2  C   UNL     1       3.003   6.351  19.580  0.00  0.00    +0.000 A 
ATOM      3  C   UNL     1       2.131   7.410  19.835  0.00  0.00    +0.000 A 
ATOM      4  C   UNL     1       2.020   8.442  18.904  0.00  0.00    +0.000 A 
ATOM      5  C   UNL     1       2.791   8.430  17.740  0.00  0.00    +0.000 A 
ATOM      6  C   UNL     1       3.652   7.358  17.484  0.00  0.00    +0.000 A 
ENDROOT
BRANCH   4   7
ATOM      7  C   UNL     1       1.074   9.536  19.169  0.00  0.00    +0.000 C 
ATOM      8  N   UNL     1      -0.159   9.305  19.487  0.00  0.00    +0.000 NA
BRANCH   8   9
ATOM      9  O   UNL     1      -0.811  10.536  19.662  0.00  0.00    +0.000 OA
BRANCH   9  10
ATOM     10  C   UNL     1      -0.799  11.241  18.420  0.00  0.00    +0.000 C 
BRANCH  10  11
ATOM     11  C   UNL     1      -2.205  11.313  17.887  0.00  0.00    +0.000 A 
ATOM     12  C   UNL     1      -3.272  11.646  18.734  0.00  0.00    +0.000 A 
ATOM     13  C   UNL     1      -4.576  11.701  18.239  0.00  0.00    +0.000 A 
ATOM     14  C   UNL     1      -4.826  11.419  16.898  0.00  0.00    +0.000 A 
ATOM     15  C   UNL     1      -3.775  11.075  16.050  0.00  0.00    +0.000 A 
ATOM     16  C   UNL     1      -2.471  11.017  16.542  0.00  0.00    +0.000 A 
ENDBRANCH  10  11
ENDBRANCH   9  10
ENDBRANCH   8   9
ENDBRANCH   4   7
BRANCH   1  17
ATOM     17  O   UNL     1       4.453   5.152  18.222  0.00  0.00    +0.000 OA
BRANCH  17  18
ATOM     18  C   UNL     1       4.089   4.254  17.162  0.00  0.00    +0.000 C 
BRANCH  18  20
ATOM     19  O   UNL     1       5.276   4.084  15.038  0.00  0.00    +0.000 OA
ATOM     20  C   UNL     1       5.316   4.097  16.259  0.00  0.00    +0.000 C 
BRANCH  20  21
ATOM     21  O   UNL     1       6.482   4.002  16.947  0.00  0.00    +0.000 OA
ATOM     22  H   UNL     1       6.303   3.633  17.841  0.00  0.00    +0.000 HD
ENDBRANCH  20  21
ENDBRANCH  18  20
BRANCH  18  23
ATOM     23  C   UNL     1       3.610   2.866  17.637  0.00  0.00    +0.000 C 
BRANCH  23  24
ATOM     24  C   UNL     1       2.784   2.845  18.903  0.00  0.00    +0.000 A 
ATOM     25  C   UNL     1       3.387   2.628  20.151  0.00  0.00    +0.000 A 
ATOM     26  C   UNL     1       2.625   2.651  21.321  0.00  0.00    +0.000 A 
ATOM     27  C   UNL     1       1.257   2.896  21.257  0.00  0.00    +0.000 A 
ATOM     28  C   UNL     1       0.646   3.111  20.022  0.00  0.00    +0.000 A 
ATOM     29  C   UNL     1       1.405   3.083  18.852  0.00  0.00    +0.000 A 
ENDBRANCH  23  24
ENDBRANCH  18  23
ENDBRANCH  17  18
ENDBRANCH   1  17
TORSDOF 10
ENDMDL
MODEL 5
REMARK VINA RESULT:      -7.8      4.977      8.239
REMARK  Name = 
REMARK  10 active torsions:
REMARK  status: ('A' for Active; 'I' for Inactive)
REMARK    1  A    between atoms: C_2  and  O_3
REMARK    2  A    between atoms: C_2  and  C_4
REMARK    3  A    between atoms: C_4  and  C_5
REMARK    4  A    between atoms: C_4  and  O_12
REMARK    5  A    between atoms: C_5  and  C_6
REMARK    6  A    between atoms: O_12  and  C_13
REMARK    7  A    between atoms: C_16  and  C_17
REMARK    8  A    between atoms: N_18  and  O_19
REMARK    9  A    between atoms: O_19  and  C_20
REMARK   10  A    between atoms: C_20  and  C_21
REMARK                            x       y       z     vdW  Elec       q    Type
REMARK                         _______ _______ _______ _____ _____    ______ ____
ROOT
ATOM      1  C   UNL     1       5.509   4.500  18.244  0.00  0.00    +0.000 A 
ATOM      2  C   UNL     1       6.204   5.170  19.256  0.00  0.00    +0.000 A 
ATOM      3  C   UNL     1       7.006   6.272  18.957  0.00  0.00    +0.000 A 
ATOM      4  C   UNL     1       7.139   6.681  17.631  0.00  0.00    +0.000 A 
ATOM      5  C   UNL     1       6.498   5.981  16.607  0.00  0.00    +0.000 A 
ATOM      6  C   UNL     1       5.684   4.885  16.915  0.00  0.00    +0.000 A 
ENDROOT
BRANCH   4   7
ATOM      7  C   UNL     1       7.960   7.864  17.334  0.00  0.00    +0.000 C 
ATOM      8  N   UNL     1       8.276   8.719  18.252  0.00  0.00    +0.000 NA
BRANCH   8   9
ATOM      9  O   UNL     1       9.046   9.737  17.665  0.00  0.00    +0.000 OA
BRANCH   9  10
ATOM     10  C   UNL     1       8.699  10.981  18.274  0.00  0.00    +0.000 C 
BRANCH  10  11
ATOM     11  C   UNL     1       9.961  11.735  18.596  0.00  0.00    +0.000 A 
ATOM     12  C   UNL     1      10.262  12.936  17.936  0.00  0.00    +0.000 A 
ATOM     13  C   UNL     1      11.438  13.627  18.229  0.00  0.00    +0.000 A 
ATOM     14  C   UNL     1      12.327  13.124  19.177  0.00  0.00    +0.000 A 
ATOM     15  C   UNL     1      12.045  11.925  19.829  0.00  0.00    +0.000 A 
ATOM     16  C   UNL     1      10.870  11.230  19.537  0.00  0.00    +0.000 A 
ENDBRANCH  10  11
ENDBRANCH   9  10
ENDBRANCH   8   9
ENDBRANCH   4   7
BRANCH   1  17
ATOM     17  O   UNL     1       4.675   3.518  18.694  0.00  0.00    +0.000 OA
BRANCH  17  18
ATOM     18  C   UNL     1       3.683   2.989  17.799  0.00  0.00    +0.000 C 
BRANCH  18  20
ATOM     19  O   UNL     1       2.070   1.522  18.891  0.00  0.00    +0.000 OA
ATOM     20  C   UNL     1       3.180   1.676  18.405  0.00  0.00    +0.000 C 
BRANCH  20  21
ATOM     21  O   UNL     1       4.083   0.666  18.328  0.00  0.00    +0.000 OA
ATOM     22  H   UNL     1       4.780   0.902  17.675  0.00  0.00    +0.000 HD
ENDBRANCH  20  21
ENDBRANCH  18  20
BRANCH  18  23
ATOM     23  C   UNL     1       2.491   3.933  17.539  0.00  0.00    +0.000 C 
BRANCH  23  24
ATOM     24  C   UNL     1       2.337   5.091  18.499  0.00  0.00    +0.000 A 
ATOM     25  C   UNL     1       2.563   6.409  18.075  0.00  0.00    +0.000 A 
ATOM     26  C   UNL     1       2.378   7.479  18.955  0.00  0.00    +0.000 A 
ATOM     27  C   UNL     1       1.960   7.242  20.261  0.00  0.00    +0.000 A 
ATOM     28  C   UNL     1       1.735   5.937  20.693  0.00  0.00    +0.000 A 
ATOM     29  C   UNL     1       1.925   4.867  19.817  0.00  0.00    +0.000 A 
ENDBRANCH  23  24
ENDBRANCH  18  23
ENDBRANCH  17  18
ENDBRANCH   1  17
TORSDOF 10
ENDMDL
MODEL 6
REMARK VINA RESULT:      -7.7      5.043      8.547
REMARK  Name = 
REMARK  10 active torsions:
REMARK  status: ('A' for Active; 'I' for Inactive)
REMARK    1  A    between atoms: C_2  and  O_3
REMARK    2  A    between atoms: C_2  and  C_4
REMARK    3  A    between atoms: C_4  and  C_5
REMARK    4  A    between atoms: C_4  and  O_12
REMARK    5  A    between atoms: C_5  and  C_6
REMARK    6  A    between atoms: O_12  and  C_13
REMARK    7  A    between atoms: C_16  and  C_17
REMARK    8  A    between atoms: N_18  and  O_19
REMARK    9  A    between atoms: O_19  and  C_20
REMARK   10  A    between atoms: C_20  and  C_21
REMARK                            x       y       z     vdW  Elec       q    Type
REMARK                         _______ _______ _______ _____ _____    ______ ____
ROOT
ATOM      1  C   UNL     1       4.889   5.188  17.552  0.00  0.00    +0.000 A 
ATOM      2  C   UNL     1       5.868   5.038  18.539  0.00  0.00    +0.000 A 
ATOM      3  C   UNL     1       6.925   5.944  18.637  0.00  0.00    +0.000 A 
ATOM      4  C   UNL     1       7.018   6.986  17.715  0.00  0.00    +0.000 A 
ATOM      5  C   UNL     1       6.080   7.108  16.688  0.00  0.00    +0.000 A 
ATOM      6  C   UNL     1       5.015   6.204  16.605  0.00  0.00    +0.000 A 
ENDROOT
BRANCH   4   7
ATOM      7  C   UNL     1       8.117   7.953  17.849  0.00  0.00    +0.000 C 
ATOM      8  N   UNL     1       7.898   9.226  17.913  0.00  0.00    +0.000 NA
BRANCH   8   9
ATOM      9  O   UNL     1       9.133   9.886  18.021  0.00  0.00    +0.000 OA
BRANCH   9  10
ATOM     10  C   UNL     1       9.311  10.303  19.375  0.00  0.00    +0.000 C 
BRANCH  10  11
ATOM     11  C   UNL     1      10.242  11.486  19.401  0.00  0.00    +0.000 A 
ATOM     12  C   UNL     1      11.233  11.635  18.420  0.00  0.00    +0.000 A 
ATOM     13  C   UNL     1      12.101  12.727  18.453  0.00  0.00    +0.000 A 
ATOM     14  C   UNL     1      11.993  13.675  19.468  0.00  0.00    +0.000 A 
ATOM     15  C   UNL     1      11.021  13.530  20.457  0.00  0.00    +0.000 A 
ATOM     16  C   UNL     1      10.152  12.439  20.427  0.00  0.00    +0.000 A 
ENDBRANCH  10  11
ENDBRANCH   9  10
ENDBRANCH   8   9
ENDBRANCH   4   7
BRANCH   1  17
ATOM     17  O   UNL     1       3.856   4.301  17.648  0.00  0.00    +0.000 OA
BRANCH  17  18
ATOM     18  C   UNL     1       2.600   4.757  18.174  0.00  0.00    +0.000 C 
BRANCH  18  20
ATOM     19  O   UNL     1       1.767   2.498  17.785  0.00  0.00    +0.000 OA
ATOM     20  C   UNL     1       1.752   3.514  18.463  0.00  0.00    +0.000 C 
BRANCH  20  21
ATOM     21  O   UNL     1       0.988   3.631  19.578  0.00  0.00    +0.000 OA
ATOM     22  H   UNL     1       1.571   3.745  20.362  0.00  0.00    +0.000 HD
ENDBRANCH  20  21
ENDBRANCH  18  20
BRANCH  18  23
ATOM     23  C   UNL     1       2.717   5.616  19.451  0.00  0.00    +0.000 C 
BRANCH  23  24
ATOM     24  C   UNL     1       2.203   7.034  19.348  0.00  0.00    +0.000 A 
ATOM     25  C   UNL     1       2.256   7.730  18.132  0.00  0.00    +0.000 A 
ATOM     26  C   UNL     1       1.742   9.026  18.032  0.00  0.00    +0.000 A 
ATOM     27  C   UNL     1       1.164   9.633  19.143  0.00  0.00    +0.000 A 
ATOM     28  C   UNL     1       1.107   8.951  20.358  0.00  0.00    +0.000 A 
ATOM     29  C   UNL     1       1.626   7.659  20.460  0.00  0.00    +0.000 A 
ENDBRANCH  23  24
ENDBRANCH  18  23
ENDBRANCH  17  18
ENDBRANCH   1  17
TORSDOF 10
ENDMDL
MODEL 7
REMARK VINA RESULT:      -7.7      2.235      2.966
REMARK  Name = 
REMARK  10 active torsions:
REMARK  status: ('A' for Active; 'I' for Inactive)
REMARK    1  A    between atoms: C_2  and  O_3
REMARK    2  A    between atoms: C_2  and  C_4
REMARK    3  A    between atoms: C_4  and  C_5
REMARK    4  A    between atoms: C_4  and  O_12
REMARK    5  A    between atoms: C_5  and  C_6
REMARK    6  A    between atoms: O_12  and  C_13
REMARK    7  A    between atoms: C_16  and  C_17
REMARK    8  A    between atoms: N_18  and  O_19
REMARK    9  A    between atoms: O_19  and  C_20
REMARK   10  A    between atoms: C_20  and  C_21
REMARK                            x       y       z     vdW  Elec       q    Type
REMARK                         _______ _______ _______ _____ _____    ______ ____
ROOT
ATOM      1  C   UNL     1       3.610   6.206  18.498  0.00  0.00    +0.000 A 
ATOM      2  C   UNL     1       3.430   7.229  17.561  0.00  0.00    +0.000 A 
ATOM      3  C   UNL     1       2.596   8.311  17.840  0.00  0.00    +0.000 A 
ATOM      4  C   UNL     1       1.910   8.349  19.054  0.00  0.00    +0.000 A 
ATOM      5  C   UNL     1       2.034   7.302  19.970  0.00  0.00    +0.000 A 
ATOM      6  C   UNL     1       2.884   6.226  19.689  0.00  0.00    +0.000 A 
ENDROOT
BRANCH   4   7
ATOM      7  C   UNL     1       1.059   9.511  19.350  0.00  0.00    +0.000 C 
ATOM      8  N   UNL     1       1.352  10.694  18.917  0.00  0.00    +0.000 NA
BRANCH   8   9
ATOM      9  O   UNL     1       0.370  11.590  19.372  0.00  0.00    +0.000 OA
BRANCH   9  10
ATOM     10  C   UNL     1       0.468  11.694  20.792  0.00  0.00    +0.000 C 
BRANCH  10  11
ATOM     11  C   UNL     1      -0.892  12.012  21.353  0.00  0.00    +0.000 A 
ATOM     12  C   UNL     1      -1.177  11.779  22.706  0.00  0.00    +0.000 A 
ATOM     13  C   UNL     1      -2.442  12.064  23.221  0.00  0.00    +0.000 A 
ATOM     14  C   UNL     1      -3.436  12.577  22.390  0.00  0.00    +0.000 A 
ATOM     15  C   UNL     1      -3.168  12.800  21.040  0.00  0.00    +0.000 A 
ATOM     16  C   UNL     1      -1.904  12.514  20.522  0.00  0.00    +0.000 A 
ENDBRANCH  10  11
ENDBRANCH   9  10
ENDBRANCH   8   9
ENDBRANCH   4   7
BRANCH   1  17
ATOM     17  O   UNL     1       4.541   5.275  18.139  0.00  0.00    +0.000 OA
BRANCH  17  18
ATOM     18  C   UNL     1       4.198   4.307  17.134  0.00  0.00    +0.000 C 
BRANCH  18  20
ATOM     19  O   UNL     1       5.287   4.308  14.952  0.00  0.00    +0.000 OA
ATOM     20  C   UNL     1       5.382   4.220  16.167  0.00  0.00    +0.000 C 
BRANCH  20  21
ATOM     21  O   UNL     1       6.577   4.064  16.791  0.00  0.00    +0.000 OA
ATOM     22  H   UNL     1       6.623   4.671  17.562  0.00  0.00    +0.000 HD
ENDBRANCH  20  21
ENDBRANCH  18  20
BRANCH  18  23
ATOM     23  C   UNL     1       3.871   2.903  17.686  0.00  0.00    +0.000 C 
BRANCH  23  24
ATOM     24  C   UNL     1       2.955   2.857  18.888  0.00  0.00    +0.000 A 
ATOM     25  C   UNL     1       3.477   2.713  20.182  0.00  0.00    +0.000 A 
ATOM     26  C   UNL     1       2.629   2.713  21.293  0.00  0.00    +0.000 A 
ATOM     27  C   UNL     1       1.256   2.864  21.121  0.00  0.00    +0.000 A 
ATOM     28  C   UNL     1       0.727   3.005  19.840  0.00  0.00    +0.000 A 
ATOM     29  C   UNL     1       1.572   2.999  18.729  0.00  0.00    +0.000 A 
ENDBRANCH  23  24
ENDBRANCH  18  23
ENDBRANCH  17  18
ENDBRANCH   1  17
TORSDOF 10
ENDMDL
MODEL 8
REMARK VINA RESULT:      -7.7      2.296      3.026
REMARK  Name = 
REMARK  10 active torsions:
REMARK  status: ('A' for Active; 'I' for Inactive)
REMARK    1  A    between atoms: C_2  and  O_3
REMARK    2  A    between atoms: C_2  and  C_4
REMARK    3  A    between atoms: C_4  and  C_5
REMARK    4  A    between atoms: C_4  and  O_12
REMARK    5  A    between atoms: C_5  and  C_6
REMARK    6  A    between atoms: O_12  and  C_13
REMARK    7  A    between atoms: C_16  and  C_17
REMARK    8  A    between atoms: N_18  and  O_19
REMARK    9  A    between atoms: O_19  and  C_20
REMARK   10  A    between atoms: C_20  and  C_21
REMARK                            x       y       z     vdW  Elec       q    Type
REMARK                         _______ _______ _______ _____ _____    ______ ____
ROOT
ATOM      1  C   UNL     1       3.509   6.431  18.397  0.00  0.00    +0.000 A 
ATOM      2  C   UNL     1       3.283   7.406  17.420  0.00  0.00    +0.000 A 
ATOM      3  C   UNL     1       2.433   8.483  17.674  0.00  0.00    +0.000 A 
ATOM      4  C   UNL     1       1.778   8.562  18.902  0.00  0.00    +0.000 A 
ATOM      5  C   UNL     1       1.949   7.561  19.860  0.00  0.00    +0.000 A 
ATOM      6  C   UNL     1       2.814   6.490  19.605  0.00  0.00    +0.000 A 
ENDROOT
BRANCH   4   7
ATOM      7  C   UNL     1       0.911   9.719  19.169  0.00  0.00    +0.000 C 
ATOM      8  N   UNL     1       0.019  10.109  18.317  0.00  0.00    +0.000 NA
BRANCH   8   9
ATOM      9  O   UNL     1      -0.634  11.237  18.843  0.00  0.00    +0.000 OA
BRANCH   9  10
ATOM     10  C   UNL     1      -0.042  11.563  20.100  0.00  0.00    +0.000 C 
BRANCH  10  11
ATOM     11  C   UNL     1      -1.136  11.838  21.097  0.00  0.00    +0.000 A 
ATOM     12  C   UNL     1      -2.262  12.589  20.730  0.00  0.00    +0.000 A 
ATOM     13  C   UNL     1      -3.270  12.851  21.660  0.00  0.00    +0.000 A 
ATOM     14  C   UNL     1      -3.160  12.372  22.963  0.00  0.00    +0.000 A 
ATOM     15  C   UNL     1      -2.039  11.636  23.343  0.00  0.00    +0.000 A 
ATOM     16  C   UNL     1      -1.029  11.373  22.416  0.00  0.00    +0.000 A 
ENDBRANCH  10  11
ENDBRANCH   9  10
ENDBRANCH   8   9
ENDBRANCH   4   7
BRANCH   1  17
ATOM     17  O   UNL     1       4.449   5.503  18.055  0.00  0.00    +0.000 OA
BRANCH  17  18
ATOM     18  C   UNL     1       4.108   4.496  17.089  0.00  0.00    +0.000 C 
BRANCH  18  20
ATOM     19  O   UNL     1       5.908   3.495  15.783  0.00  0.00    +0.000 OA
ATOM     20  C   UNL     1       5.226   4.475  16.043  0.00  0.00    +0.000 C 
BRANCH  20  21
ATOM     21  O   UNL     1       5.378   5.656  15.393  0.00  0.00    +0.000 OA
ATOM     22  H   UNL     1       5.266   6.396  16.031  0.00  0.00    +0.000 HD
ENDBRANCH  20  21
ENDBRANCH  18  20
BRANCH  18  23
ATOM     23  C   UNL     1       3.919   3.083  17.679  0.00  0.00    +0.000 C 
BRANCH  23  24
ATOM     24  C   UNL     1       2.993   2.977  18.869  0.00  0.00    +0.000 A 
ATOM     25  C   UNL     1       3.502   2.764  20.159  0.00  0.00    +0.000 A 
ATOM     26  C   UNL     1       2.645   2.708  21.260  0.00  0.00    +0.000 A 
ATOM     27  C   UNL     1       1.274   2.872  21.085  0.00  0.00    +0.000 A 
ATOM     28  C   UNL     1       0.756   3.082  19.808  0.00  0.00    +0.000 A 
ATOM     29  C   UNL     1       1.611   3.132  18.706  0.00  0.00    +0.000 A 
ENDBRANCH  23  24
ENDBRANCH  18  23
ENDBRANCH  17  18
ENDBRANCH   1  17
TORSDOF 10
ENDMDL
MODEL 9
REMARK VINA RESULT:      -7.6      1.365      2.326
REMARK  Name = 
REMARK  10 active torsions:
REMARK  status: ('A' for Active; 'I' for Inactive)
REMARK    1  A    between atoms: C_2  and  O_3
REMARK    2  A    between atoms: C_2  and  C_4
REMARK    3  A    between atoms: C_4  and  C_5
REMARK    4  A    between atoms: C_4  and  O_12
REMARK    5  A    between atoms: C_5  and  C_6
REMARK    6  A    between atoms: O_12  and  C_13
REMARK    7  A    between atoms: C_16  and  C_17
REMARK    8  A    between atoms: N_18  and  O_19
REMARK    9  A    between atoms: O_19  and  C_20
REMARK   10  A    between atoms: C_20  and  C_21
REMARK                            x       y       z     vdW  Elec       q    Type
REMARK                         _______ _______ _______ _____ _____    ______ ____
ROOT
ATOM      1  C   UNL     1       3.687   6.371  18.370  0.00  0.00    +0.000 A 
ATOM      2  C   UNL     1       3.006   6.379  19.592  0.00  0.00    +0.000 A 
ATOM      3  C   UNL     1       2.075   7.378  19.880  0.00  0.00    +0.000 A 
ATOM      4  C   UNL     1       1.853   8.393  18.951  0.00  0.00    +0.000 A 
ATOM      5  C   UNL     1       2.574   8.428  17.755  0.00  0.00    +0.000 A 
ATOM      6  C   UNL     1       3.496   7.416  17.466  0.00  0.00    +0.000 A 
ENDROOT
BRANCH   4   7
ATOM      7  C   UNL     1       0.846   9.421  19.252  0.00  0.00    +0.000 C 
ATOM      8  N   UNL     1       1.182  10.632  19.557  0.00  0.00    +0.000 NA
BRANCH   8   9
ATOM      9  O   UNL     1       0.012  11.369  19.804  0.00  0.00    +0.000 OA
BRANCH   9  10
ATOM     10  C   UNL     1      -0.648  11.611  18.562  0.00  0.00    +0.000 C 
BRANCH  10  11
ATOM     11  C   UNL     1      -2.114  11.827  18.822  0.00  0.00    +0.000 A 
ATOM     12  C   UNL     1      -3.074  11.378  17.902  0.00  0.00    +0.000 A 
ATOM     13  C   UNL     1      -4.433  11.589  18.141  0.00  0.00    +0.000 A 
ATOM     14  C   UNL     1      -4.845  12.254  19.294  0.00  0.00    +0.000 A 
ATOM     15  C   UNL     1      -3.900  12.715  20.208  0.00  0.00    +0.000 A 
ATOM     16  C   UNL     1      -2.540  12.507  19.971  0.00  0.00    +0.000 A 
ENDBRANCH  10  11
ENDBRANCH   9  10
ENDBRANCH   8   9
ENDBRANCH   4   7
BRANCH   1  17
ATOM     17  O   UNL     1       4.477   5.275  18.177  0.00  0.00    +0.000 OA
BRANCH  17  18
ATOM     18  C   UNL     1       4.118   4.335  17.152  0.00  0.00    +0.000 C 
BRANCH  18  20
ATOM     19  O   UNL     1       5.287   4.243  15.014  0.00  0.00    +0.000 OA
ATOM     20  C   UNL     1       5.333   4.180  16.233  0.00  0.00    +0.000 C 
BRANCH  20  21
ATOM     21  O   UNL     1       6.497   3.992  16.906  0.00  0.00    +0.000 OA
ATOM     22  H   UNL     1       6.560   3.053  17.191  0.00  0.00    +0.000 HD
ENDBRANCH  20  21
ENDBRANCH  18  20
BRANCH  18  23
ATOM     23  C   UNL     1       3.683   2.951  17.680  0.00  0.00    +0.000 C 
BRANCH  23  24
ATOM     24  C   UNL     1       2.845   2.952  18.939  0.00  0.00    +0.000 A 
ATOM     25  C   UNL     1       1.464   3.190  18.881  0.00  0.00    +0.000 A 
ATOM     26  C   UNL     1       0.688   3.149  20.042  0.00  0.00    +0.000 A 
ATOM     27  C   UNL     1       1.282   2.862  21.267  0.00  0.00    +0.000 A 
ATOM     28  C   UNL     1       2.654   2.626  21.337  0.00  0.00    +0.000 A 
ATOM     29  C   UNL     1       3.431   2.673  20.179  0.00  0.00    +0.000 A 
ENDBRANCH  23  24
ENDBRANCH  18  23
ENDBRANCH  17  18
ENDBRANCH   1  17
TORSDOF 10
ENDMDL
