MODEL 1
REMARK VINA RESULT:      -7.8      0.000      0.000
REMARK  Name = 
REMARK  7 active torsions:
REMARK  status: ('A' for Active; 'I' for Inactive)
REMARK    1  A    between atoms: C_1  and  S_2
REMARK    2  A    between atoms: S_2  and  C_3
REMARK    3  A    between atoms: C_6  and  N_7
REMARK    4  A    between atoms: C_8  and  C_10
REMARK    5  A    between atoms: C_10  and  C_11
REMARK    6  A    between atoms: C_15  and  C_17
REMARK    7  A    between atoms: C_17  and  C_18
REMARK                            x       y       z     vdW  Elec       q    Type
REMARK                         _______ _______ _______ _____ _____    ______ ____
ROOT
ATOM      1  C   UNL     1       7.366   6.541  17.935  0.00  0.00    +0.000 C 
ATOM      2  C   UNL     1       7.571   5.852  16.575  0.00  0.00    +0.000 C 
ATOM      3  C   UNL     1       8.035   5.739  19.080  0.00  0.00    +0.000 C 
ATOM      4  C   UNL     1       6.709   5.020  19.288  0.00  0.00    +0.000 C 
ATOM      5  N   UNL     1       6.082   6.115  18.547  0.00  0.00    +0.000 N 
ATOM      6  C   UNL     1       4.860   6.156  17.899  0.00  0.00    +0.000 C 
ATOM      7  O   UNL     1       4.490   7.109  17.221  0.00  0.00    +0.000 OA
ENDROOT
BRANCH   1   9
ATOM      8  N   UNL     1       8.587   8.478  18.931  0.00  0.00    +0.000 N 
ATOM      9  C   UNL     1       7.652   8.105  17.965  0.00  0.00    +0.000 C 
ATOM     10  O   UNL     1       7.107   8.920  17.217  0.00  0.00    +0.000 OA
ATOM     11  H   UNL     1       9.310   7.781  19.046  0.00  0.00    +0.000 HD
BRANCH   8  15
ATOM     12  C   UNL     1      10.124  12.371  19.039  0.00  0.00    +0.000 A 
ATOM     13  C   UNL     1       9.776  11.729  20.234  0.00  0.00    +0.000 A 
ATOM     14  C   UNL     1       9.229  10.443  20.211  0.00  0.00    +0.000 A 
ATOM     15  C   UNL     1       9.059   9.796  18.990  0.00  0.00    +0.000 A 
ATOM     16  C   UNL     1       9.426  10.413  17.797  0.00  0.00    +0.000 A 
ATOM     17  C   UNL     1       9.931  11.711  17.821  0.00  0.00    +0.000 A 
BRANCH  12  19
ATOM     18  C   UNL     1      10.948  14.362  17.326  0.00  0.00    +0.000 C 
ATOM     19  S   UNL     1      10.748  14.040  19.097  0.00  0.00    +0.000 S 
ENDBRANCH  12  19
ENDBRANCH   8  15
ENDBRANCH   1   9
BRANCH   6  20
ATOM     20  C   UNL     1       4.103   4.839  17.880  0.00  0.00    +0.000 C 
ATOM     21  C   UNL     1       3.532   4.190  16.614  0.00  0.00    +0.000 C 
ATOM     22  C   UNL     1       4.910   3.833  17.035  0.00  0.00    +0.000 C 
BRANCH  20  23
ATOM     23  C   UNL     1       3.330   4.459  19.157  0.00  0.00    +0.000 A 
ATOM     24  C   UNL     1       3.624   3.258  19.832  0.00  0.00    +0.000 A 
ATOM     25  C   UNL     1       2.852   2.809  20.908  0.00  0.00    +0.000 A 
ATOM     26  C   UNL     1       1.781   3.577  21.354  0.00  0.00    +0.000 A 
ATOM     27  C   UNL     1       1.509   4.790  20.738  0.00  0.00    +0.000 A 
ATOM     28  C   UNL     1       2.268   5.227  19.667  0.00  0.00    +0.000 A 
ENDBRANCH  20  23
ENDBRANCH   6  20
TORSDOF 5
ENDMDL
MODEL 2
REMARK VINA RESULT:      -7.7      0.591      1.160
REMARK  Name = 
REMARK  7 active torsions:
REMARK  status: ('A' for Active; 'I' for Inactive)
REMARK    1  A    between atoms: C_1  and  S_2
REMARK    2  A    between atoms: S_2  and  C_3
REMARK    3  A    between atoms: C_6  and  N_7
REMARK    4  A    between atoms: C_8  and  C_10
REMARK    5  A    between atoms: C_10  and  C_11
REMARK    6  A    between atoms: C_15  and  C_17
REMARK    7  A    between atoms: C_17  and  C_18
REMARK                            x       y       z     vdW  Elec       q    Type
REMARK                         _______ _______ _______ _____ _____    ______ ____
ROOT
ATOM      1  C   UNL     1       7.386   6.486  17.949  0.00  0.00    +0.000 C 
ATOM      2  C   UNL     1       7.583   5.760  16.607  0.00  0.00    +0.000 C 
ATOM      3  C   UNL     1       8.056   5.712  19.113  0.00  0.00    +0.000 C 
ATOM      4  C   UNL     1       6.728   5.004  19.345  0.00  0.00    +0.000 C 
ATOM      5  N   UNL     1       6.102   6.080  18.577  0.00  0.00    +0.000 N 
ATOM      6  C   UNL     1       4.879   6.109  17.932  0.00  0.00    +0.000 C 
ATOM      7  O   UNL     1       4.509   7.045  17.230  0.00  0.00    +0.000 OA
ENDROOT
BRANCH   1   9
ATOM      8  N   UNL     1       8.589   8.450  18.914  0.00  0.00    +0.000 N 
ATOM      9  C   UNL     1       7.678   8.049  17.936  0.00  0.00    +0.000 C 
ATOM     10  O   UNL     1       7.155   8.841  17.148  0.00  0.00    +0.000 OA
ATOM     11  H   UNL     1       9.305   7.754  19.070  0.00  0.00    +0.000 HD
BRANCH   8  15
ATOM     12  C   UNL     1       9.890  12.426  19.078  0.00  0.00    +0.000 A 
ATOM     13  C   UNL     1       9.673  11.817  17.835  0.00  0.00    +0.000 A 
ATOM     14  C   UNL     1       9.272  10.480  17.765  0.00  0.00    +0.000 A 
ATOM     15  C   UNL     1       9.065   9.767  18.942  0.00  0.00    +0.000 A 
ATOM     16  C   UNL     1       9.251  10.368  20.184  0.00  0.00    +0.000 A 
ATOM     17  C   UNL     1       9.692  11.687  20.250  0.00  0.00    +0.000 A 
BRANCH  12  19
ATOM     18  C   UNL     1       9.280  14.818  20.297  0.00  0.00    +0.000 C 
ATOM     19  S   UNL     1      10.474  14.109  19.134  0.00  0.00    +0.000 S 
ENDBRANCH  12  19
ENDBRANCH   8  15
ENDBRANCH   1   9
BRANCH   6  20
ATOM     20  C   UNL     1       4.117   4.795  17.950  0.00  0.00    +0.000 C 
ATOM     21  C   UNL     1       3.430   4.178  16.727  0.00  0.00    +0.000 C 
ATOM     22  C   UNL     1       4.839   3.808  17.013  0.00  0.00    +0.000 C 
BRANCH  20  23
ATOM     23  C   UNL     1       3.460   4.386  19.283  0.00  0.00    +0.000 A 
ATOM     24  C   UNL     1       3.652   3.090  19.799  0.00  0.00    +0.000 A 
ATOM     25  C   UNL     1       2.961   2.635  20.927  0.00  0.00    +0.000 A 
ATOM     26  C   UNL     1       2.083   3.489  21.586  0.00  0.00    +0.000 A 
ATOM     27  C   UNL     1       1.922   4.789  21.127  0.00  0.00    +0.000 A 
ATOM     28  C   UNL     1       2.599   5.232  20.004  0.00  0.00    +0.000 A 
ENDBRANCH  20  23
ENDBRANCH   6  20
TORSDOF 5
ENDMDL
MODEL 3
REMARK VINA RESULT:      -7.6      0.893      1.499
REMARK  Name = 
REMARK  7 active torsions:
REMARK  status: ('A' for Active; 'I' for Inactive)
REMARK    1  A    between atoms: C_1  and  S_2
REMARK    2  A    between atoms: S_2  and  C_3
REMARK    3  A    between atoms: C_6  and  N_7
REMARK    4  A    between atoms: C_8  and  C_10
REMARK    5  A    between atoms: C_10  and  C_11
REMARK    6  A    between atoms: C_15  and  C_17
REMARK    7  A    between atoms: C_17  and  C_18
REMARK                            x       y       z     vdW  Elec       q    Type
REMARK                         _______ _______ _______ _____ _____    ______ ____
ROOT
ATOM      1  C   UNL     1       7.372   6.574  17.896  0.00  0.00    +0.000 C 
ATOM      2  C   UNL     1       7.693   5.869  16.567  0.00  0.00    +0.000 C 
ATOM      3  C   UNL     1       7.915   5.772  19.106  0.00  0.00    +0.000 C 
ATOM      4  C   UNL     1       6.563   5.077  19.192  0.00  0.00    +0.000 C 
ATOM      5  N   UNL     1       6.028   6.175  18.386  0.00  0.00    +0.000 N 
ATOM      6  C   UNL     1       4.875   6.231  17.624  0.00  0.00    +0.000 C 
ATOM      7  O   UNL     1       4.587   7.183  16.906  0.00  0.00    +0.000 OA
ENDROOT
BRANCH   1   9
ATOM      8  N   UNL     1       8.628   8.482  18.904  0.00  0.00    +0.000 N 
ATOM      9  C   UNL     1       7.681   8.133  17.940  0.00  0.00    +0.000 C 
ATOM     10  O   UNL     1       7.143   8.964  17.204  0.00  0.00    +0.000 OA
ATOM     11  H   UNL     1       9.341   7.773  19.007  0.00  0.00    +0.000 HD
BRANCH   8  15
ATOM     12  C   UNL     1       9.973  12.438  19.184  0.00  0.00    +0.000 A 
ATOM     13  C   UNL     1       9.821  11.843  17.924  0.00  0.00    +0.000 A 
ATOM     14  C   UNL     1       9.406  10.513  17.817  0.00  0.00    +0.000 A 
ATOM     15  C   UNL     1       9.120   9.792  18.973  0.00  0.00    +0.000 A 
ATOM     16  C   UNL     1       9.241  10.380  20.229  0.00  0.00    +0.000 A 
ATOM     17  C   UNL     1       9.695  11.692  20.335  0.00  0.00    +0.000 A 
BRANCH  12  19
ATOM     18  C   UNL     1      10.308  14.431  21.053  0.00  0.00    +0.000 C 
ATOM     19  S   UNL     1      10.576  14.112  19.290  0.00  0.00    +0.000 S 
ENDBRANCH  12  19
ENDBRANCH   8  15
ENDBRANCH   1   9
BRANCH   6  20
ATOM     20  C   UNL     1       4.100   4.927  17.543  0.00  0.00    +0.000 C 
ATOM     21  C   UNL     1       3.907   4.116  16.257  0.00  0.00    +0.000 C 
ATOM     22  C   UNL     1       5.077   3.813  17.118  0.00  0.00    +0.000 C 
BRANCH  20  23
ATOM     23  C   UNL     1       2.962   4.725  18.563  0.00  0.00    +0.000 A 
ATOM     24  C   UNL     1       2.904   5.518  19.726  0.00  0.00    +0.000 A 
ATOM     25  C   UNL     1       1.975   5.271  20.741  0.00  0.00    +0.000 A 
ATOM     26  C   UNL     1       1.054   4.238  20.594  0.00  0.00    +0.000 A 
ATOM     27  C   UNL     1       1.058   3.481  19.431  0.00  0.00    +0.000 A 
ATOM     28  C   UNL     1       1.987   3.721  18.433  0.00  0.00    +0.000 A 
ENDBRANCH  20  23
ENDBRANCH   6  20
TORSDOF 5
ENDMDL
MODEL 4
REMARK VINA RESULT:      -7.6      4.778      7.400
REMARK  Name = 
REMARK  7 active torsions:
REMARK  status: ('A' for Active; 'I' for Inactive)
REMARK    1  A    between atoms: C_1  and  S_2
REMARK    2  A    between atoms: S_2  and  C_3
REMARK    3  A    between atoms: C_6  and  N_7
REMARK    4  A    between atoms: C_8  and  C_10
REMARK    5  A    between atoms: C_10  and  C_11
REMARK    6  A    between atoms: C_15  and  C_17
REMARK    7  A    between atoms: C_17  and  C_18
REMARK                            x       y       z     vdW  Elec       q    Type
REMARK                         _______ _______ _______ _____ _____    ______ ____
ROOT
ATOM      1  C   UNL     1       3.804   4.974  18.416  0.00  0.00    +0.000 C 
ATOM      2  C   UNL     1       4.989   5.211  19.369  0.00  0.00    +0.000 C 
ATOM      3  C   UNL     1       3.459   3.468  18.307  0.00  0.00    +0.000 C 
ATOM      4  C   UNL     1       4.392   3.389  17.105  0.00  0.00    +0.000 C 
ATOM      5  N   UNL     1       4.281   4.845  17.015  0.00  0.00    +0.000 N 
ATOM      6  C   UNL     1       5.112   5.757  16.389  0.00  0.00    +0.000 C 
ATOM      7  O   UNL     1       4.962   6.972  16.472  0.00  0.00    +0.000 OA
ENDROOT
BRANCH   1   9
ATOM      8  N   UNL     1       2.895   7.209  19.060  0.00  0.00    +0.000 N 
ATOM      9  C   UNL     1       2.550   5.929  18.626  0.00  0.00    +0.000 C 
ATOM     10  O   UNL     1       1.381   5.585  18.431  0.00  0.00    +0.000 OA
ATOM     11  H   UNL     1       3.768   7.522  18.657  0.00  0.00    +0.000 HD
BRANCH   8  15
ATOM     12  C   UNL     1      -0.107  10.110  19.387  0.00  0.00    +0.000 A 
ATOM     13  C   UNL     1       0.475   9.850  18.140  0.00  0.00    +0.000 A 
ATOM     14  C   UNL     1       1.502   8.909  18.022  0.00  0.00    +0.000 A 
ATOM     15  C   UNL     1       1.923   8.213  19.152  0.00  0.00    +0.000 A 
ATOM     16  C   UNL     1       1.335   8.443  20.392  0.00  0.00    +0.000 A 
ATOM     17  C   UNL     1       0.341   9.411  20.514  0.00  0.00    +0.000 A 
BRANCH  12  19
ATOM     18  C   UNL     1      -1.639  11.718  17.763  0.00  0.00    +0.000 C 
ATOM     19  S   UNL     1      -1.361  11.369  19.518  0.00  0.00    +0.000 S 
ENDBRANCH  12  19
ENDBRANCH   8  15
ENDBRANCH   1   9
BRANCH   6  20
ATOM     20  C   UNL     1       6.373   5.163  15.787  0.00  0.00    +0.000 C 
ATOM     21  C   UNL     1       7.796   5.551  16.204  0.00  0.00    +0.000 C 
ATOM     22  C   UNL     1       7.135   4.420  16.902  0.00  0.00    +0.000 C 
BRANCH  20  23
ATOM     23  C   UNL     1       6.284   4.663  14.331  0.00  0.00    +0.000 A 
ATOM     24  C   UNL     1       5.155   3.942  13.897  0.00  0.00    +0.000 A 
ATOM     25  C   UNL     1       5.100   3.350  12.632  0.00  0.00    +0.000 A 
ATOM     26  C   UNL     1       6.169   3.501  11.755  0.00  0.00    +0.000 A 
ATOM     27  C   UNL     1       7.267   4.255  12.142  0.00  0.00    +0.000 A 
ATOM     28  C   UNL     1       7.324   4.831  13.400  0.00  0.00    +0.000 A 
ENDBRANCH  20  23
ENDBRANCH   6  20
TORSDOF 5
ENDMDL
MODEL 5
REMARK VINA RESULT:      -7.5      4.847      7.188
REMARK  Name = 
REMARK  7 active torsions:
REMARK  status: ('A' for Active; 'I' for Inactive)
REMARK    1  A    between atoms: C_1  and  S_2
REMARK    2  A    between atoms: S_2  and  C_3
REMARK    3  A    between atoms: C_6  and  N_7
REMARK    4  A    between atoms: C_8  and  C_10
REMARK    5  A    between atoms: C_10  and  C_11
REMARK    6  A    between atoms: C_15  and  C_17
REMARK    7  A    between atoms: C_17  and  C_18
REMARK                            x       y       z     vdW  Elec       q    Type
REMARK                         _______ _______ _______ _____ _____    ______ ____
ROOT
ATOM      1  C   UNL     1       3.937   4.820  18.422  0.00  0.00    +0.000 C 
ATOM      2  C   UNL     1       5.172   5.126  19.287  0.00  0.00    +0.000 C 
ATOM      3  C   UNL     1       3.636   3.301  18.385  0.00  0.00    +0.000 C 
ATOM      4  C   UNL     1       4.492   3.209  17.129  0.00  0.00    +0.000 C 
ATOM      5  N   UNL     1       4.328   4.656  16.998  0.00  0.00    +0.000 N 
ATOM      6  C   UNL     1       5.087   5.570  16.289  0.00  0.00    +0.000 C 
ATOM      7  O   UNL     1       4.903   6.783  16.342  0.00  0.00    +0.000 OA
ENDROOT
BRANCH   1   9
ATOM      8  N   UNL     1       2.998   7.062  18.995  0.00  0.00    +0.000 N 
ATOM      9  C   UNL     1       2.668   5.743  18.681  0.00  0.00    +0.000 C 
ATOM     10  O   UNL     1       1.502   5.345  18.617  0.00  0.00    +0.000 OA
ATOM     11  H   UNL     1       3.818   7.375  18.493  0.00  0.00    +0.000 HD
BRANCH   8  15
ATOM     12  C   UNL     1       0.104  10.074  19.275  0.00  0.00    +0.000 A 
ATOM     13  C   UNL     1       0.496   9.379  20.426  0.00  0.00    +0.000 A 
ATOM     14  C   UNL     1       1.435   8.347  20.342  0.00  0.00    +0.000 A 
ATOM     15  C   UNL     1       1.998   8.036  19.107  0.00  0.00    +0.000 A 
ATOM     16  C   UNL     1       1.637   8.738  17.960  0.00  0.00    +0.000 A 
ATOM     17  C   UNL     1       0.669   9.736  18.041  0.00  0.00    +0.000 A 
BRANCH  12  19
ATOM     18  C   UNL     1      -0.123  12.818  19.270  0.00  0.00    +0.000 C 
ATOM     19  S   UNL     1      -1.152  11.333  19.403  0.00  0.00    +0.000 S 
ENDBRANCH  12  19
ENDBRANCH   8  15
ENDBRANCH   1   9
BRANCH   6  20
ATOM     20  C   UNL     1       6.326   4.994  15.626  0.00  0.00    +0.000 C 
ATOM     21  C   UNL     1       7.753   5.492  15.881  0.00  0.00    +0.000 C 
ATOM     22  C   UNL     1       7.224   4.393  16.726  0.00  0.00    +0.000 C 
BRANCH  20  23
ATOM     23  C   UNL     1       6.144   4.365  14.231  0.00  0.00    +0.000 A 
ATOM     24  C   UNL     1       7.205   4.378  13.305  0.00  0.00    +0.000 A 
ATOM     25  C   UNL     1       7.037   3.948  11.985  0.00  0.00    +0.000 A 
ATOM     26  C   UNL     1       5.801   3.461  11.573  0.00  0.00    +0.000 A 
ATOM     27  C   UNL     1       4.758   3.388  12.485  0.00  0.00    +0.000 A 
ATOM     28  C   UNL     1       4.925   3.824  13.788  0.00  0.00    +0.000 A 
ENDBRANCH  20  23
ENDBRANCH   6  20
TORSDOF 5
ENDMDL
MODEL 6
REMARK VINA RESULT:      -7.5      0.558      1.165
REMARK  Name = 
REMARK  7 active torsions:
REMARK  status: ('A' for Active; 'I' for Inactive)
REMARK    1  A    between atoms: C_1  and  S_2
REMARK    2  A    between atoms: S_2  and  C_3
REMARK    3  A    between atoms: C_6  and  N_7
REMARK    4  A    between atoms: C_8  and  C_10
REMARK    5  A    between atoms: C_10  and  C_11
REMARK    6  A    between atoms: C_15  and  C_17
REMARK    7  A    between atoms: C_17  and  C_18
REMARK                            x       y       z     vdW  Elec       q    Type
REMARK                         _______ _______ _______ _____ _____    ______ ____
ROOT
ATOM      1  C   UNL     1       7.382   6.539  17.875  0.00  0.00    +0.000 C 
ATOM      2  C   UNL     1       7.613   5.872  16.508  0.00  0.00    +0.000 C 
ATOM      3  C   UNL     1       8.034   5.723  19.019  0.00  0.00    +0.000 C 
ATOM      4  C   UNL     1       6.707   4.995  19.193  0.00  0.00    +0.000 C 
ATOM      5  N   UNL     1       6.088   6.099  18.457  0.00  0.00    +0.000 N 
ATOM      6  C   UNL     1       4.878   6.145  17.789  0.00  0.00    +0.000 C 
ATOM      7  O   UNL     1       4.515   7.107  17.119  0.00  0.00    +0.000 OA
ENDROOT
BRANCH   1   9
ATOM      8  N   UNL     1       8.598   8.463  18.902  0.00  0.00    +0.000 N 
ATOM      9  C   UNL     1       7.660   8.104  17.934  0.00  0.00    +0.000 C 
ATOM     10  O   UNL     1       7.108   8.930  17.203  0.00  0.00    +0.000 OA
ATOM     11  H   UNL     1       9.324   7.767  19.001  0.00  0.00    +0.000 HD
BRANCH   8  15
ATOM     12  C   UNL     1      10.117  12.361  19.078  0.00  0.00    +0.000 A 
ATOM     13  C   UNL     1       9.784  11.691  20.262  0.00  0.00    +0.000 A 
ATOM     14  C   UNL     1       9.243  10.403  20.217  0.00  0.00    +0.000 A 
ATOM     15  C   UNL     1       9.064   9.781  18.984  0.00  0.00    +0.000 A 
ATOM     16  C   UNL     1       9.416  10.425  17.802  0.00  0.00    +0.000 A 
ATOM     17  C   UNL     1       9.914  11.725  17.848  0.00  0.00    +0.000 A 
BRANCH  12  19
ATOM     18  C   UNL     1      10.408  14.395  20.909  0.00  0.00    +0.000 C 
ATOM     19  S   UNL     1      10.733  14.031  19.165  0.00  0.00    +0.000 S 
ENDBRANCH  12  19
ENDBRANCH   8  15
ENDBRANCH   1   9
BRANCH   6  20
ATOM     20  C   UNL     1       4.127   4.826  17.736  0.00  0.00    +0.000 C 
ATOM     21  C   UNL     1       3.544   4.215  16.457  0.00  0.00    +0.000 C 
ATOM     22  C   UNL     1       4.929   3.852  16.850  0.00  0.00    +0.000 C 
BRANCH  20  23
ATOM     23  C   UNL     1       3.371   4.401  19.009  0.00  0.00    +0.000 A 
ATOM     24  C   UNL     1       2.449   5.279  19.613  0.00  0.00    +0.000 A 
ATOM     25  C   UNL     1       1.851   4.989  20.843  0.00  0.00    +0.000 A 
ATOM     26  C   UNL     1       2.140   3.787  21.482  0.00  0.00    +0.000 A 
ATOM     27  C   UNL     1       3.002   2.884  20.877  0.00  0.00    +0.000 A 
ATOM     28  C   UNL     1       3.600   3.178  19.664  0.00  0.00    +0.000 A 
ENDBRANCH  20  23
ENDBRANCH   6  20
TORSDOF 5
ENDMDL
MODEL 7
REMARK VINA RESULT:      -7.4      4.771      7.394
REMARK  Name = 
REMARK  7 active torsions:
REMARK  status: ('A' for Active; 'I' for Inactive)
REMARK    1  A    between atoms: C_1  and  S_2
REMARK    2  A    between atoms: S_2  and  C_3
REMARK    3  A    between atoms: C_6  and  N_7
REMARK    4  A    between atoms: C_8  and  C_10
REMARK    5  A    between atoms: C_10  and  C_11
REMARK    6  A    between atoms: C_15  and  C_17
REMARK    7  A    between atoms: C_17  and  C_18
REMARK                            x       y       z     vdW  Elec       q    Type
REMARK                         _______ _______ _______ _____ _____    ______ ____
ROOT
ATOM      1  C   UNL     1       3.849   4.906  18.388  0.00  0.00    +0.000 C 
ATOM      2  C   UNL     1       5.016   5.123  19.367  0.00  0.00    +0.000 C 
ATOM      3  C   UNL     1       3.495   3.403  18.258  0.00  0.00    +0.000 C 
ATOM      4  C   UNL     1       4.451   3.328  17.075  0.00  0.00    +0.000 C 
ATOM      5  N   UNL     1       4.353   4.786  16.996  0.00  0.00    +0.000 N 
ATOM      6  C   UNL     1       5.203   5.697  16.396  0.00  0.00    +0.000 C 
ATOM      7  O   UNL     1       5.062   6.912  16.488  0.00  0.00    +0.000 OA
ENDROOT
BRANCH   1   9
ATOM      8  N   UNL     1       2.949   7.155  18.992  0.00  0.00    +0.000 N 
ATOM      9  C   UNL     1       2.599   5.868  18.583  0.00  0.00    +0.000 C 
ATOM     10  O   UNL     1       1.428   5.525  18.396  0.00  0.00    +0.000 OA
ATOM     11  H   UNL     1       3.822   7.457  18.582  0.00  0.00    +0.000 HD
BRANCH   8  15
ATOM     12  C   UNL     1      -0.042  10.071  19.268  0.00  0.00    +0.000 A 
ATOM     13  C   UNL     1       0.547   9.796  18.027  0.00  0.00    +0.000 A 
ATOM     14  C   UNL     1       1.571   8.850  17.926  0.00  0.00    +0.000 A 
ATOM     15  C   UNL     1       1.981   8.164  19.067  0.00  0.00    +0.000 A 
ATOM     16  C   UNL     1       1.384   8.409  20.300  0.00  0.00    +0.000 A 
ATOM     17  C   UNL     1       0.395   9.383  20.405  0.00  0.00    +0.000 A 
BRANCH  12  19
ATOM     18  C   UNL     1      -1.190  11.729  21.142  0.00  0.00    +0.000 C 
ATOM     19  S   UNL     1      -1.293  11.337  19.376  0.00  0.00    +0.000 S 
ENDBRANCH  12  19
ENDBRANCH   8  15
ENDBRANCH   1   9
BRANCH   6  20
ATOM     20  C   UNL     1       6.472   5.098  15.813  0.00  0.00    +0.000 C 
ATOM     21  C   UNL     1       7.890   5.526  16.207  0.00  0.00    +0.000 C 
ATOM     22  C   UNL     1       7.250   4.415  16.955  0.00  0.00    +0.000 C 
BRANCH  20  23
ATOM     23  C   UNL     1       6.385   4.536  14.380  0.00  0.00    +0.000 A 
ATOM     24  C   UNL     1       7.408   4.808  13.450  0.00  0.00    +0.000 A 
ATOM     25  C   UNL     1       7.298   4.439  12.106  0.00  0.00    +0.000 A 
ATOM     26  C   UNL     1       6.169   3.753  11.670  0.00  0.00    +0.000 A 
ATOM     27  C   UNL     1       5.176   3.426  12.582  0.00  0.00    +0.000 A 
ATOM     28  C   UNL     1       5.282   3.802  13.911  0.00  0.00    +0.000 A 
ENDBRANCH  20  23
ENDBRANCH   6  20
TORSDOF 5
ENDMDL
MODEL 8
REMARK VINA RESULT:      -7.2      6.611      9.032
REMARK  Name = 
REMARK  7 active torsions:
REMARK  status: ('A' for Active; 'I' for Inactive)
REMARK    1  A    between atoms: C_1  and  S_2
REMARK    2  A    between atoms: S_2  and  C_3
REMARK    3  A    between atoms: C_6  and  N_7
REMARK    4  A    between atoms: C_8  and  C_10
REMARK    5  A    between atoms: C_10  and  C_11
REMARK    6  A    between atoms: C_15  and  C_17
REMARK    7  A    between atoms: C_17  and  C_18
REMARK                            x       y       z     vdW  Elec       q    Type
REMARK                         _______ _______ _______ _____ _____    ______ ____
ROOT
ATOM      1  C   UNL     1       0.534   9.707  19.638  0.00  0.00    +0.000 C 
ATOM      2  C   UNL     1      -0.903   9.958  19.151  0.00  0.00    +0.000 C 
ATOM      3  C   UNL     1       0.550   9.118  21.071  0.00  0.00    +0.000 C 
ATOM      4  C   UNL     1       0.658  10.541  21.604  0.00  0.00    +0.000 C 
ATOM      5  N   UNL     1       1.094  10.933  20.263  0.00  0.00    +0.000 N 
ATOM      6  C   UNL     1       1.095  12.180  19.664  0.00  0.00    +0.000 C 
ATOM      7  O   UNL     1       1.394  12.362  18.488  0.00  0.00    +0.000 OA
ENDROOT
BRANCH   1   9
ATOM      8  N   UNL     1       2.159   7.873  19.158  0.00  0.00    +0.000 N 
ATOM      9  C   UNL     1       1.492   8.967  18.607  0.00  0.00    +0.000 C 
ATOM     10  O   UNL     1       1.643   9.317  17.433  0.00  0.00    +0.000 OA
ATOM     11  H   UNL     1       1.587   7.383  19.832  0.00  0.00    +0.000 HD
BRANCH   8  15
ATOM     12  C   UNL     1       4.483   5.261  16.854  0.00  0.00    +0.000 A 
ATOM     13  C   UNL     1       4.811   6.622  16.904  0.00  0.00    +0.000 A 
ATOM     14  C   UNL     1       4.024   7.511  17.641  0.00  0.00    +0.000 A 
ATOM     15  C   UNL     1       2.926   7.027  18.347  0.00  0.00    +0.000 A 
ATOM     16  C   UNL     1       2.605   5.672  18.327  0.00  0.00    +0.000 A 
ATOM     17  C   UNL     1       3.366   4.796  17.557  0.00  0.00    +0.000 A 
BRANCH  12  19
ATOM     18  C   UNL     1       7.112   4.525  16.499  0.00  0.00    +0.000 C 
ATOM     19  S   UNL     1       5.462   4.165  15.844  0.00  0.00    +0.000 S 
ENDBRANCH  12  19
ENDBRANCH   8  15
ENDBRANCH   1   9
BRANCH   6  20
ATOM     20  C   UNL     1       0.465  13.286  20.492  0.00  0.00    +0.000 C 
ATOM     21  C   UNL     1       1.217  14.117  21.538  0.00  0.00    +0.000 C 
ATOM     22  C   UNL     1       1.170  14.611  20.140  0.00  0.00    +0.000 C 
BRANCH  20  23
ATOM     23  C   UNL     1      -1.044  13.170  20.782  0.00  0.00    +0.000 A 
ATOM     24  C   UNL     1      -1.514  13.195  22.110  0.00  0.00    +0.000 A 
ATOM     25  C   UNL     1      -2.855  12.950  22.423  0.00  0.00    +0.000 A 
ATOM     26  C   UNL     1      -3.766  12.707  21.400  0.00  0.00    +0.000 A 
ATOM     27  C   UNL     1      -3.334  12.733  20.081  0.00  0.00    +0.000 A 
ATOM     28  C   UNL     1      -2.004  12.966  19.776  0.00  0.00    +0.000 A 
ENDBRANCH  20  23
ENDBRANCH   6  20
TORSDOF 5
ENDMDL
MODEL 9
REMARK VINA RESULT:      -7.2      9.145     11.377
REMARK  Name = 
REMARK  7 active torsions:
REMARK  status: ('A' for Active; 'I' for Inactive)
REMARK    1  A    between atoms: C_1  and  S_2
REMARK    2  A    between atoms: S_2  and  C_3
REMARK    3  A    between atoms: C_6  and  N_7
REMARK    4  A    between atoms: C_8  and  C_10
REMARK    5  A    between atoms: C_10  and  C_11
REMARK    6  A    between atoms: C_15  and  C_17
REMARK    7  A    between atoms: C_17  and  C_18
REMARK                            x       y       z     vdW  Elec       q    Type
REMARK                         _______ _______ _______ _____ _____    ______ ____
ROOT
ATOM      1  C   UNL     1      -0.330  13.272  21.039  0.00  0.00    +0.000 C 
ATOM      2  C   UNL     1       0.207  14.429  21.900  0.00  0.00    +0.000 C 
ATOM      3  C   UNL     1      -1.099  13.799  19.801  0.00  0.00    +0.000 C 
ATOM      4  C   UNL     1      -2.378  13.731  20.625  0.00  0.00    +0.000 C 
ATOM      5  N   UNL     1      -1.662  12.833  21.531  0.00  0.00    +0.000 N 
ATOM      6  C   UNL     1      -1.935  12.504  22.847  0.00  0.00    +0.000 C 
ATOM      7  O   UNL     1      -1.193  11.810  23.535  0.00  0.00    +0.000 OA
ENDROOT
BRANCH   1   9
ATOM      8  N   UNL     1       0.106  10.963  20.196  0.00  0.00    +0.000 N 
ATOM      9  C   UNL     1       0.704  12.104  20.731  0.00  0.00    +0.000 C 
ATOM     10  O   UNL     1       1.917  12.184  20.942  0.00  0.00    +0.000 OA
ATOM     11  H   UNL     1      -0.668  11.192  19.588  0.00  0.00    +0.000 HD
BRANCH   8  15
ATOM     12  C   UNL     1       2.358   7.765  18.702  0.00  0.00    +0.000 A 
ATOM     13  C   UNL     1       1.878   7.721  20.017  0.00  0.00    +0.000 A 
ATOM     14  C   UNL     1       1.155   8.796  20.540  0.00  0.00    +0.000 A 
ATOM     15  C   UNL     1       0.892   9.900  19.733  0.00  0.00    +0.000 A 
ATOM     16  C   UNL     1       1.341   9.944  18.416  0.00  0.00    +0.000 A 
ATOM     17  C   UNL     1       2.098   8.890  17.911  0.00  0.00    +0.000 A 
BRANCH  12  19
ATOM     18  C   UNL     1       2.130   5.069  18.194  0.00  0.00    +0.000 C 
ATOM     19  S   UNL     1       3.342   6.411  18.088  0.00  0.00    +0.000 S 
ENDBRANCH  12  19
ENDBRANCH   8  15
ENDBRANCH   1   9
BRANCH   6  20
ATOM     20  C   UNL     1      -3.099  13.259  23.465  0.00  0.00    +0.000 C 
ATOM     21  C   UNL     1      -4.569  13.033  23.095  0.00  0.00    +0.000 C 
ATOM     22  C   UNL     1      -3.989  12.244  24.210  0.00  0.00    +0.000 C 
BRANCH  20  23
ATOM     23  C   UNL     1      -2.815  14.685  23.974  0.00  0.00    +0.000 A 
ATOM     24  C   UNL     1      -1.846  14.901  24.974  0.00  0.00    +0.000 A 
ATOM     25  C   UNL     1      -1.661  16.156  25.562  0.00  0.00    +0.000 A 
ATOM     26  C   UNL     1      -2.425  17.237  25.133  0.00  0.00    +0.000 A 
ATOM     27  C   UNL     1      -3.346  17.058  24.110  0.00  0.00    +0.000 A 
ATOM     28  C   UNL     1      -3.534  15.811  23.537  0.00  0.00    +0.000 A 
ENDBRANCH  20  23
ENDBRANCH   6  20
TORSDOF 5
ENDMDL
