MODEL 1
REMARK VINA RESULT:      -6.3      0.000      0.000
REMARK  Name = 
REMARK  18 active torsions:
REMARK  status: ('A' for Active; 'I' for Inactive)
REMARK    1  A    between atoms: C_1  and  C_2
REMARK    2  A    between atoms: C_2  and  C_3
REMARK    3  A    between atoms: C_3  and  C_4
REMARK    4  A    between atoms: C_4  and  C_5
REMARK    5  A    between atoms: C_5  and  C_6
REMARK    6  A    between atoms: C_6  and  C_7
REMARK    7  A    between atoms: C_7  and  C_8
REMARK    8  A    between atoms: C_8  and  C_9
REMARK    9  A    between atoms: C_9  and  C_10
REMARK   10  A    between atoms: C_10  and  S_11
REMARK   11  A    between atoms: S_11  and  C_12
REMARK   12  A    between atoms: N_20  and  C_21
REMARK   13  A    between atoms: C_21  and  C_22
REMARK   14  A    between atoms: C_22  and  O_24
REMARK   15  A    between atoms: O_24  and  C_25
REMARK   16  A    between atoms: C_25  and  C_26
REMARK   17  A    between atoms: C_25  and  C_27
REMARK   18  A    between atoms: C_25  and  C_28
REMARK                            x       y       z     vdW  Elec       q    Type
REMARK                         _______ _______ _______ _____ _____    ______ ____
ROOT
ATOM      1  C   UNL     1       7.390   7.237  18.071  0.00  0.00    +0.000 A 
ATOM      2  N   UNL     1       8.303   6.548  18.798  0.00  0.00    +0.000 NA
ATOM      3  C   UNL     1       8.038   5.260  19.107  0.00  0.00    +0.000 A 
ATOM      4  N   UNL     1       6.957   4.536  18.786  0.00  0.00    +0.000 NA
ATOM      5  C   UNL     1       6.078   5.273  18.084  0.00  0.00    +0.000 A 
ATOM      6  C   UNL     1       6.209   6.596  17.680  0.00  0.00    +0.000 A 
ATOM      7  N   UNL     1       5.102   6.974  16.943  0.00  0.00    +0.000 NA
ATOM      8  C   UNL     1       4.333   5.906  16.901  0.00  0.00    +0.000 A 
ATOM      9  N   UNL     1       4.868   4.869  17.604  0.00  0.00    +0.000 N 
ENDROOT
BRANCH   1  10
ATOM     10  S   UNL     1       7.737   8.890  17.556  0.00  0.00    +0.000 S 
BRANCH  10  11
ATOM     11  C   UNL     1       8.937   9.391  18.836  0.00  0.00    +0.000 C 
BRANCH  11  12
ATOM     12  C   UNL     1       9.273  10.862  18.620  0.00  0.00    +0.000 C 
BRANCH  12  13
ATOM     13  C   UNL     1       9.714  11.532  19.917  0.00  0.00    +0.000 C 
BRANCH  13  14
ATOM     14  C   UNL     1      11.215  11.804  19.885  0.00  0.00    +0.000 C 
BRANCH  14  15
ATOM     15  C   UNL     1      11.691  12.018  18.456  0.00  0.00    +0.000 C 
BRANCH  15  16
ATOM     16  C   UNL     1      11.956  13.495  18.195  0.00  0.00    +0.000 C 
BRANCH  16  17
ATOM     17  C   UNL     1      10.767  14.129  17.487  0.00  0.00    +0.000 C 
BRANCH  17  18
ATOM     18  C   UNL     1       9.992  15.025  18.443  0.00  0.00    +0.000 C 
BRANCH  18  20
ATOM     19  C   UNL     1       7.736  14.061  17.928  0.00  0.00    +0.000 C 
ATOM     20  C   UNL     1       8.597  15.320  17.899  0.00  0.00    +0.000 C 
ENDBRANCH  18  20
ENDBRANCH  17  18
ENDBRANCH  16  17
ENDBRANCH  15  16
ENDBRANCH  14  15
ENDBRANCH  13  14
ENDBRANCH  12  13
ENDBRANCH  11  12
ENDBRANCH  10  11
ENDBRANCH   1  10
BRANCH   9  21
ATOM     21  C   UNL     1       4.310   3.530  17.720  0.00  0.00    +0.000 C 
BRANCH  21  22
ATOM     22  C   UNL     1       4.025   3.057  19.128  0.00  0.00    +0.000 C 
ATOM     23  O   UNL     1       4.201   1.890  19.451  0.00  0.00    +0.000 OA
BRANCH  22  24
ATOM     24  O   UNL     1       3.363   3.970  19.898  0.00  0.00    +0.000 OA
BRANCH  24  25
ATOM     25  C   UNL     1       1.976   3.666  20.232  0.00  0.00    +0.000 C 
ATOM     26  C   UNL     1       1.224   2.871  19.155  0.00  0.00    +0.000 C 
ATOM     27  C   UNL     1       1.977   2.869  21.553  0.00  0.00    +0.000 C 
ATOM     28  C   UNL     1       1.261   4.996  20.498  0.00  0.00    +0.000 C 
ENDBRANCH  24  25
ENDBRANCH  22  24
ENDBRANCH  21  22
ENDBRANCH   9  21
TORSDOF 14
ENDMDL
MODEL 2
REMARK VINA RESULT:      -6.0      4.020      6.485
REMARK  Name = 
REMARK  18 active torsions:
REMARK  status: ('A' for Active; 'I' for Inactive)
REMARK    1  A    between atoms: C_1  and  C_2
REMARK    2  A    between atoms: C_2  and  C_3
REMARK    3  A    between atoms: C_3  and  C_4
REMARK    4  A    between atoms: C_4  and  C_5
REMARK    5  A    between atoms: C_5  and  C_6
REMARK    6  A    between atoms: C_6  and  C_7
REMARK    7  A    between atoms: C_7  and  C_8
REMARK    8  A    between atoms: C_8  and  C_9
REMARK    9  A    between atoms: C_9  and  C_10
REMARK   10  A    between atoms: C_10  and  S_11
REMARK   11  A    between atoms: S_11  and  C_12
REMARK   12  A    between atoms: N_20  and  C_21
REMARK   13  A    between atoms: C_21  and  C_22
REMARK   14  A    between atoms: C_22  and  O_24
REMARK   15  A    between atoms: O_24  and  C_25
REMARK   16  A    between atoms: C_25  and  C_26
REMARK   17  A    between atoms: C_25  and  C_27
REMARK   18  A    between atoms: C_25  and  C_28
REMARK                            x       y       z     vdW  Elec       q    Type
REMARK                         _______ _______ _______ _____ _____    ______ ____
ROOT
ATOM      1  C   UNL     1       2.745   4.660  18.641  0.00  0.00    +0.000 A 
ATOM      2  N   UNL     1       2.613   3.795  19.677  0.00  0.00    +0.000 NA
ATOM      3  C   UNL     1       2.216   4.284  20.872  0.00  0.00    +0.000 A 
ATOM      4  N   UNL     1       1.924   5.551  21.195  0.00  0.00    +0.000 NA
ATOM      5  C   UNL     1       2.091   6.365  20.138  0.00  0.00    +0.000 A 
ATOM      6  C   UNL     1       2.479   6.017  18.850  0.00  0.00    +0.000 A 
ATOM      7  N   UNL     1       2.495   7.141  18.045  0.00  0.00    +0.000 NA
ATOM      8  C   UNL     1       2.119   8.132  18.826  0.00  0.00    +0.000 A 
ATOM      9  N   UNL     1       1.899   7.714  20.103  0.00  0.00    +0.000 N 
ENDROOT
BRANCH   1  10
ATOM     10  S   UNL     1       3.163   4.055  17.035  0.00  0.00    +0.000 S 
BRANCH  10  11
ATOM     11  C   UNL     1       4.941   3.713  17.261  0.00  0.00    +0.000 C 
BRANCH  11  12
ATOM     12  C   UNL     1       5.700   4.377  16.118  0.00  0.00    +0.000 C 
BRANCH  12  13
ATOM     13  C   UNL     1       5.441   5.879  16.072  0.00  0.00    +0.000 C 
BRANCH  13  14
ATOM     14  C   UNL     1       6.035   6.553  17.304  0.00  0.00    +0.000 C 
BRANCH  14  15
ATOM     15  C   UNL     1       7.440   7.059  17.014  0.00  0.00    +0.000 C 
BRANCH  15  16
ATOM     16  C   UNL     1       7.975   7.863  18.192  0.00  0.00    +0.000 C 
BRANCH  16  17
ATOM     17  C   UNL     1       8.341   9.273  17.750  0.00  0.00    +0.000 C 
BRANCH  17  18
ATOM     18  C   UNL     1       9.080  10.006  18.860  0.00  0.00    +0.000 C 
BRANCH  18  20
ATOM     19  C   UNL     1       8.734  12.216  17.729  0.00  0.00    +0.000 C 
ATOM     20  C   UNL     1       9.764  11.259  18.321  0.00  0.00    +0.000 C 
ENDBRANCH  18  20
ENDBRANCH  17  18
ENDBRANCH  16  17
ENDBRANCH  15  16
ENDBRANCH  14  15
ENDBRANCH  13  14
ENDBRANCH  12  13
ENDBRANCH  11  12
ENDBRANCH  10  11
ENDBRANCH   1  10
BRANCH   9  21
ATOM     21  C   UNL     1       1.423   8.534  21.207  0.00  0.00    +0.000 C 
BRANCH  21  22
ATOM     22  C   UNL     1      -0.068   8.783  21.247  0.00  0.00    +0.000 C 
ATOM     23  O   UNL     1      -0.826   7.991  21.790  0.00  0.00    +0.000 OA
BRANCH  22  24
ATOM     24  O   UNL     1      -0.481   9.813  20.452  0.00  0.00    +0.000 OA
BRANCH  24  25
ATOM     25  C   UNL     1      -0.382  11.156  21.012  0.00  0.00    +0.000 C 
ATOM     26  C   UNL     1       0.977  11.836  20.791  0.00  0.00    +0.000 C 
ATOM     27  C   UNL     1      -1.495  12.013  20.376  0.00  0.00    +0.000 C 
ATOM     28  C   UNL     1      -0.679  11.055  22.514  0.00  0.00    +0.000 C 
ENDBRANCH  24  25
ENDBRANCH  22  24
ENDBRANCH  21  22
ENDBRANCH   9  21
TORSDOF 14
ENDMDL
MODEL 3
REMARK VINA RESULT:      -5.9      1.178      1.671
REMARK  Name = 
REMARK  18 active torsions:
REMARK  status: ('A' for Active; 'I' for Inactive)
REMARK    1  A    between atoms: C_1  and  C_2
REMARK    2  A    between atoms: C_2  and  C_3
REMARK    3  A    between atoms: C_3  and  C_4
REMARK    4  A    between atoms: C_4  and  C_5
REMARK    5  A    between atoms: C_5  and  C_6
REMARK    6  A    between atoms: C_6  and  C_7
REMARK    7  A    between atoms: C_7  and  C_8
REMARK    8  A    between atoms: C_8  and  C_9
REMARK    9  A    between atoms: C_9  and  C_10
REMARK   10  A    between atoms: C_10  and  S_11
REMARK   11  A    between atoms: S_11  and  C_12
REMARK   12  A    between atoms: N_20  and  C_21
REMARK   13  A    between atoms: C_21  and  C_22
REMARK   14  A    between atoms: C_22  and  O_24
REMARK   15  A    between atoms: O_24  and  C_25
REMARK   16  A    between atoms: C_25  and  C_26
REMARK   17  A    between atoms: C_25  and  C_27
REMARK   18  A    between atoms: C_25  and  C_28
REMARK                            x       y       z     vdW  Elec       q    Type
REMARK                         _______ _______ _______ _____ _____    ______ ____
ROOT
ATOM      1  C   UNL     1       7.584   7.402  18.083  0.00  0.00    +0.000 A 
ATOM      2  N   UNL     1       8.380   6.815  19.010  0.00  0.00    +0.000 NA
ATOM      3  C   UNL     1       8.130   5.531  19.348  0.00  0.00    +0.000 A 
ATOM      4  N   UNL     1       7.169   4.723  18.882  0.00  0.00    +0.000 NA
ATOM      5  C   UNL     1       6.400   5.361  17.983  0.00  0.00    +0.000 A 
ATOM      6  C   UNL     1       6.534   6.666  17.524  0.00  0.00    +0.000 A 
ATOM      7  N   UNL     1       5.566   6.930  16.573  0.00  0.00    +0.000 NA
ATOM      8  C   UNL     1       4.877   5.814  16.460  0.00  0.00    +0.000 A 
ATOM      9  N   UNL     1       5.325   4.854  17.316  0.00  0.00    +0.000 N 
ENDROOT
BRANCH   1  10
ATOM     10  S   UNL     1       7.933   9.044  17.533  0.00  0.00    +0.000 S 
BRANCH  10  11
ATOM     11  C   UNL     1       8.934   9.656  18.931  0.00  0.00    +0.000 C 
BRANCH  11  12
ATOM     12  C   UNL     1       9.709  10.881  18.458  0.00  0.00    +0.000 C 
BRANCH  12  13
ATOM     13  C   UNL     1      10.454  11.551  19.607  0.00  0.00    +0.000 C 
BRANCH  13  14
ATOM     14  C   UNL     1      10.519  13.058  19.384  0.00  0.00    +0.000 C 
BRANCH  14  15
ATOM     15  C   UNL     1      11.720  13.422  18.524  0.00  0.00    +0.000 C 
BRANCH  15  16
ATOM     16  C   UNL     1      11.269  14.016  17.196  0.00  0.00    +0.000 C 
BRANCH  16  17
ATOM     17  C   UNL     1      11.771  15.446  17.057  0.00  0.00    +0.000 C 
BRANCH  17  18
ATOM     18  C   UNL     1      10.605  16.407  16.877  0.00  0.00    +0.000 C 
BRANCH  18  20
ATOM     19  C   UNL     1      11.106  17.144  19.220  0.00  0.00    +0.000 C 
ATOM     20  C   UNL     1      10.005  16.790  18.227  0.00  0.00    +0.000 C 
ENDBRANCH  18  20
ENDBRANCH  17  18
ENDBRANCH  16  17
ENDBRANCH  15  16
ENDBRANCH  14  15
ENDBRANCH  13  14
ENDBRANCH  12  13
ENDBRANCH  11  12
ENDBRANCH  10  11
ENDBRANCH   1  10
BRANCH   9  21
ATOM     21  C   UNL     1       4.828   3.490  17.416  0.00  0.00    +0.000 C 
BRANCH  21  22
ATOM     22  C   UNL     1       4.194   3.117  18.737  0.00  0.00    +0.000 C 
ATOM     23  O   UNL     1       4.875   2.741  19.681  0.00  0.00    +0.000 OA
BRANCH  22  24
ATOM     24  O   UNL     1       2.832   3.025  18.694  0.00  0.00    +0.000 OA
BRANCH  24  25
ATOM     25  C   UNL     1       2.081   4.203  19.110  0.00  0.00    +0.000 C 
ATOM     26  C   UNL     1       2.910   5.249  19.869  0.00  0.00    +0.000 C 
ATOM     27  C   UNL     1       1.479   4.846  17.844  0.00  0.00    +0.000 C 
ATOM     28  C   UNL     1       0.914   3.725  19.983  0.00  0.00    +0.000 C 
ENDBRANCH  24  25
ENDBRANCH  22  24
ENDBRANCH  21  22
ENDBRANCH   9  21
TORSDOF 14
ENDMDL
MODEL 4
REMARK VINA RESULT:      -5.9      1.806      2.480
REMARK  Name = 
REMARK  18 active torsions:
REMARK  status: ('A' for Active; 'I' for Inactive)
REMARK    1  A    between atoms: C_1  and  C_2
REMARK    2  A    between atoms: C_2  and  C_3
REMARK    3  A    between atoms: C_3  and  C_4
REMARK    4  A    between atoms: C_4  and  C_5
REMARK    5  A    between atoms: C_5  and  C_6
REMARK    6  A    between atoms: C_6  and  C_7
REMARK    7  A    between atoms: C_7  and  C_8
REMARK    8  A    between atoms: C_8  and  C_9
REMARK    9  A    between atoms: C_9  and  C_10
REMARK   10  A    between atoms: C_10  and  S_11
REMARK   11  A    between atoms: S_11  and  C_12
REMARK   12  A    between atoms: N_20  and  C_21
REMARK   13  A    between atoms: C_21  and  C_22
REMARK   14  A    between atoms: C_22  and  O_24
REMARK   15  A    between atoms: O_24  and  C_25
REMARK   16  A    between atoms: C_25  and  C_26
REMARK   17  A    between atoms: C_25  and  C_27
REMARK   18  A    between atoms: C_25  and  C_28
REMARK                            x       y       z     vdW  Elec       q    Type
REMARK                         _______ _______ _______ _____ _____    ______ ____
ROOT
ATOM      1  C   UNL     1       6.902   5.642  17.675  0.00  0.00    +0.000 A 
ATOM      2  N   UNL     1       7.266   4.844  16.641  0.00  0.00    +0.000 NA
ATOM      3  C   UNL     1       6.312   4.102  16.038  0.00  0.00    +0.000 A 
ATOM      4  N   UNL     1       5.005   4.037  16.327  0.00  0.00    +0.000 NA
ATOM      5  C   UNL     1       4.705   4.831  17.370  0.00  0.00    +0.000 A 
ATOM      6  C   UNL     1       5.564   5.658  18.084  0.00  0.00    +0.000 A 
ATOM      7  N   UNL     1       4.858   6.339  19.058  0.00  0.00    +0.000 NA
ATOM      8  C   UNL     1       3.611   5.939  18.926  0.00  0.00    +0.000 A 
ATOM      9  N   UNL     1       3.480   5.005  17.943  0.00  0.00    +0.000 N 
ENDROOT
BRANCH   1  10
ATOM     10  S   UNL     1       8.093   6.706  18.429  0.00  0.00    +0.000 S 
BRANCH  10  11
ATOM     11  C   UNL     1       7.674   8.292  17.629  0.00  0.00    +0.000 C 
BRANCH  11  12
ATOM     12  C   UNL     1       8.556   9.377  18.238  0.00  0.00    +0.000 C 
BRANCH  12  13
ATOM     13  C   UNL     1       8.167  10.762  17.736  0.00  0.00    +0.000 C 
BRANCH  13  14
ATOM     14  C   UNL     1       9.185  11.797  18.203  0.00  0.00    +0.000 C 
BRANCH  14  15
ATOM     15  C   UNL     1      10.222  11.156  19.113  0.00  0.00    +0.000 C 
BRANCH  15  16
ATOM     16  C   UNL     1      11.629  11.554  18.688  0.00  0.00    +0.000 C 
BRANCH  16  17
ATOM     17  C   UNL     1      12.195  12.599  19.637  0.00  0.00    +0.000 C 
BRANCH  17  18
ATOM     18  C   UNL     1      11.902  14.002  19.125  0.00  0.00    +0.000 C 
BRANCH  18  20
ATOM     19  C   UNL     1      10.231  14.362  20.958  0.00  0.00    +0.000 C 
ATOM     20  C   UNL     1      11.471  14.918  20.267  0.00  0.00    +0.000 C 
ENDBRANCH  18  20
ENDBRANCH  17  18
ENDBRANCH  16  17
ENDBRANCH  15  16
ENDBRANCH  14  15
ENDBRANCH  13  14
ENDBRANCH  12  13
ENDBRANCH  11  12
ENDBRANCH  10  11
ENDBRANCH   1  10
BRANCH   9  21
ATOM     21  C   UNL     1       2.238   4.392  17.498  0.00  0.00    +0.000 C 
BRANCH  21  22
ATOM     22  C   UNL     1       1.832   3.128  18.224  0.00  0.00    +0.000 C 
ATOM     23  O   UNL     1       1.908   2.035  17.680  0.00  0.00    +0.000 OA
BRANCH  22  24
ATOM     24  O   UNL     1       1.186   3.349  19.406  0.00  0.00    +0.000 OA
BRANCH  24  25
ATOM     25  C   UNL     1       1.977   3.207  20.623  0.00  0.00    +0.000 C 
ATOM     26  C   UNL     1       3.370   2.598  20.407  0.00  0.00    +0.000 C 
ATOM     27  C   UNL     1       2.121   4.606  21.255  0.00  0.00    +0.000 C 
ATOM     28  C   UNL     1       1.173   2.340  21.600  0.00  0.00    +0.000 C 
ENDBRANCH  24  25
ENDBRANCH  22  24
ENDBRANCH  21  22
ENDBRANCH   9  21
TORSDOF 14
ENDMDL
MODEL 5
REMARK VINA RESULT:      -5.9      1.539      2.311
REMARK  Name = 
REMARK  18 active torsions:
REMARK  status: ('A' for Active; 'I' for Inactive)
REMARK    1  A    between atoms: C_1  and  C_2
REMARK    2  A    between atoms: C_2  and  C_3
REMARK    3  A    between atoms: C_3  and  C_4
REMARK    4  A    between atoms: C_4  and  C_5
REMARK    5  A    between atoms: C_5  and  C_6
REMARK    6  A    between atoms: C_6  and  C_7
REMARK    7  A    between atoms: C_7  and  C_8
REMARK    8  A    between atoms: C_8  and  C_9
REMARK    9  A    between atoms: C_9  and  C_10
REMARK   10  A    between atoms: C_10  and  S_11
REMARK   11  A    between atoms: S_11  and  C_12
REMARK   12  A    between atoms: N_20  and  C_21
REMARK   13  A    between atoms: C_21  and  C_22
REMARK   14  A    between atoms: C_22  and  O_24
REMARK   15  A    between atoms: O_24  and  C_25
REMARK   16  A    between atoms: C_25  and  C_26
REMARK   17  A    between atoms: C_25  and  C_27
REMARK   18  A    between atoms: C_25  and  C_28
REMARK                            x       y       z     vdW  Elec       q    Type
REMARK                         _______ _______ _______ _____ _____    ______ ____
ROOT
ATOM      1  C   UNL     1       6.598   6.977  17.215  0.00  0.00    +0.000 A 
ATOM      2  N   UNL     1       7.531   6.116  16.739  0.00  0.00    +0.000 NA
ATOM      3  C   UNL     1       7.164   4.836  16.509  0.00  0.00    +0.000 A 
ATOM      4  N   UNL     1       5.963   4.272  16.692  0.00  0.00    +0.000 NA
ATOM      5  C   UNL     1       5.085   5.164  17.182  0.00  0.00    +0.000 A 
ATOM      6  C   UNL     1       5.303   6.508  17.459  0.00  0.00    +0.000 A 
ATOM      7  N   UNL     1       4.134   7.090  17.914  0.00  0.00    +0.000 NA
ATOM      8  C   UNL     1       3.240   6.124  17.903  0.00  0.00    +0.000 A 
ATOM      9  N   UNL     1       3.778   4.939  17.501  0.00  0.00    +0.000 N 
ENDROOT
BRANCH   1  10
ATOM     10  S   UNL     1       7.002   8.682  17.434  0.00  0.00    +0.000 S 
BRANCH  10  11
ATOM     11  C   UNL     1       8.642   8.536  18.222  0.00  0.00    +0.000 C 
BRANCH  11  12
ATOM     12  C   UNL     1       8.882   9.792  19.053  0.00  0.00    +0.000 C 
BRANCH  12  13
ATOM     13  C   UNL     1       9.081  11.018  18.169  0.00  0.00    +0.000 C 
BRANCH  13  14
ATOM     14  C   UNL     1      10.568  11.257  17.928  0.00  0.00    +0.000 C 
BRANCH  14  15
ATOM     15  C   UNL     1      10.981  12.628  18.444  0.00  0.00    +0.000 C 
BRANCH  15  16
ATOM     16  C   UNL     1       9.918  13.192  19.377  0.00  0.00    +0.000 C 
BRANCH  16  17
ATOM     17  C   UNL     1      10.558  13.729  20.649  0.00  0.00    +0.000 C 
BRANCH  17  18
ATOM     18  C   UNL     1       9.609  13.582  21.829  0.00  0.00    +0.000 C 
BRANCH  18  20
ATOM     19  C   UNL     1       8.278  11.808  22.997  0.00  0.00    +0.000 C 
ATOM     20  C   UNL     1       8.696  12.373  21.644  0.00  0.00    +0.000 C 
ENDBRANCH  18  20
ENDBRANCH  17  18
ENDBRANCH  16  17
ENDBRANCH  15  16
ENDBRANCH  14  15
ENDBRANCH  13  14
ENDBRANCH  12  13
ENDBRANCH  11  12
ENDBRANCH  10  11
ENDBRANCH   1  10
BRANCH   9  21
ATOM     21  C   UNL     1       3.063   3.685  17.324  0.00  0.00    +0.000 C 
BRANCH  21  22
ATOM     22  C   UNL     1       3.204   2.683  18.448  0.00  0.00    +0.000 C 
ATOM     23  O   UNL     1       3.196   1.480  18.227  0.00  0.00    +0.000 OA
BRANCH  22  24
ATOM     24  O   UNL     1       3.112   3.230  19.695  0.00  0.00    +0.000 OA
BRANCH  24  25
ATOM     25  C   UNL     1       1.774   3.349  20.263  0.00  0.00    +0.000 C 
ATOM     26  C   UNL     1       1.330   4.791  20.546  0.00  0.00    +0.000 C 
ATOM     27  C   UNL     1       0.786   2.692  19.277  0.00  0.00    +0.000 C 
ATOM     28  C   UNL     1       1.746   2.528  21.559  0.00  0.00    +0.000 C 
ENDBRANCH  24  25
ENDBRANCH  22  24
ENDBRANCH  21  22
ENDBRANCH   9  21
TORSDOF 14
ENDMDL
MODEL 6
REMARK VINA RESULT:      -5.9      5.792      8.953
REMARK  Name = 
REMARK  18 active torsions:
REMARK  status: ('A' for Active; 'I' for Inactive)
REMARK    1  A    between atoms: C_1  and  C_2
REMARK    2  A    between atoms: C_2  and  C_3
REMARK    3  A    between atoms: C_3  and  C_4
REMARK    4  A    between atoms: C_4  and  C_5
REMARK    5  A    between atoms: C_5  and  C_6
REMARK    6  A    between atoms: C_6  and  C_7
REMARK    7  A    between atoms: C_7  and  C_8
REMARK    8  A    between atoms: C_8  and  C_9
REMARK    9  A    between atoms: C_9  and  C_10
REMARK   10  A    between atoms: C_10  and  S_11
REMARK   11  A    between atoms: S_11  and  C_12
REMARK   12  A    between atoms: N_20  and  C_21
REMARK   13  A    between atoms: C_21  and  C_22
REMARK   14  A    between atoms: C_22  and  O_24
REMARK   15  A    between atoms: O_24  and  C_25
REMARK   16  A    between atoms: C_25  and  C_26
REMARK   17  A    between atoms: C_25  and  C_27
REMARK   18  A    between atoms: C_25  and  C_28
REMARK                            x       y       z     vdW  Elec       q    Type
REMARK                         _______ _______ _______ _____ _____    ______ ____
ROOT
ATOM      1  C   UNL     1       3.365   5.173  18.881  0.00  0.00    +0.000 A 
ATOM      2  N   UNL     1       2.910   4.446  19.931  0.00  0.00    +0.000 NA
ATOM      3  C   UNL     1       2.063   5.038  20.801  0.00  0.00    +0.000 A 
ATOM      4  N   UNL     1       1.589   6.291  20.776  0.00  0.00    +0.000 NA
ATOM      5  C   UNL     1       2.086   6.969  19.727  0.00  0.00    +0.000 A 
ATOM      6  C   UNL     1       2.951   6.503  18.744  0.00  0.00    +0.000 A 
ATOM      7  N   UNL     1       3.194   7.501  17.820  0.00  0.00    +0.000 NA
ATOM      8  C   UNL     1       2.489   8.534  18.232  0.00  0.00    +0.000 A 
ATOM      9  N   UNL     1       1.833   8.268  19.395  0.00  0.00    +0.000 N 
ENDROOT
BRANCH   1  10
ATOM     10  S   UNL     1       4.392   4.414  17.661  0.00  0.00    +0.000 S 
BRANCH  10  11
ATOM     11  C   UNL     1       6.042   4.921  18.255  0.00  0.00    +0.000 C 
BRANCH  11  12
ATOM     12  C   UNL     1       6.718   5.721  17.147  0.00  0.00    +0.000 C 
BRANCH  12  13
ATOM     13  C   UNL     1       5.915   5.673  15.852  0.00  0.00    +0.000 C 
BRANCH  13  14
ATOM     14  C   UNL     1       6.733   5.006  14.751  0.00  0.00    +0.000 C 
BRANCH  14  15
ATOM     15  C   UNL     1       6.021   3.766  14.231  0.00  0.00    +0.000 C 
BRANCH  15  16
ATOM     16  C   UNL     1       6.373   3.518  12.770  0.00  0.00    +0.000 C 
BRANCH  16  17
ATOM     17  C   UNL     1       5.111   3.465  11.921  0.00  0.00    +0.000 C 
BRANCH  17  18
ATOM     18  C   UNL     1       4.985   2.112  11.235  0.00  0.00    +0.000 C 
BRANCH  18  20
ATOM     19  C   UNL     1       6.192  -0.084  11.267  0.00  0.00    +0.000 C 
ATOM     20  C   UNL     1       6.344   1.427  11.131  0.00  0.00    +0.000 C 
ENDBRANCH  18  20
ENDBRANCH  17  18
ENDBRANCH  16  17
ENDBRANCH  15  16
ENDBRANCH  14  15
ENDBRANCH  13  14
ENDBRANCH  12  13
ENDBRANCH  11  12
ENDBRANCH  10  11
ENDBRANCH   1  10
BRANCH   9  21
ATOM     21  C   UNL     1       0.926   9.163  20.097  0.00  0.00    +0.000 C 
BRANCH  21  22
ATOM     22  C   UNL     1       0.894  10.590  19.596  0.00  0.00    +0.000 C 
ATOM     23  O   UNL     1       1.332  11.508  20.276  0.00  0.00    +0.000 OA
BRANCH  22  24
ATOM     24  O   UNL     1       0.152  10.766  18.464  0.00  0.00    +0.000 OA
BRANCH  24  25
ATOM     25  C   UNL     1      -1.028  11.616  18.577  0.00  0.00    +0.000 C 
ATOM     26  C   UNL     1      -2.210  11.181  17.699  0.00  0.00    +0.000 C 
ATOM     27  C   UNL     1      -1.462  11.621  20.057  0.00  0.00    +0.000 C 
ATOM     28  C   UNL     1      -0.604  13.046  18.217  0.00  0.00    +0.000 C 
ENDBRANCH  24  25
ENDBRANCH  22  24
ENDBRANCH  21  22
ENDBRANCH   9  21
TORSDOF 14
ENDMDL
MODEL 7
REMARK VINA RESULT:      -5.8      6.734      9.742
REMARK  Name = 
REMARK  18 active torsions:
REMARK  status: ('A' for Active; 'I' for Inactive)
REMARK    1  A    between atoms: C_1  and  C_2
REMARK    2  A    between atoms: C_2  and  C_3
REMARK    3  A    between atoms: C_3  and  C_4
REMARK    4  A    between atoms: C_4  and  C_5
REMARK    5  A    between atoms: C_5  and  C_6
REMARK    6  A    between atoms: C_6  and  C_7
REMARK    7  A    between atoms: C_7  and  C_8
REMARK    8  A    between atoms: C_8  and  C_9
REMARK    9  A    between atoms: C_9  and  C_10
REMARK   10  A    between atoms: C_10  and  S_11
REMARK   11  A    between atoms: S_11  and  C_12
REMARK   12  A    between atoms: N_20  and  C_21
REMARK   13  A    between atoms: C_21  and  C_22
REMARK   14  A    between atoms: C_22  and  O_24
REMARK   15  A    between atoms: O_24  and  C_25
REMARK   16  A    between atoms: C_25  and  C_26
REMARK   17  A    between atoms: C_25  and  C_27
REMARK   18  A    between atoms: C_25  and  C_28
REMARK                            x       y       z     vdW  Elec       q    Type
REMARK                         _______ _______ _______ _____ _____    ______ ____
ROOT
ATOM      1  C   UNL     1       2.282   7.224  19.368  0.00  0.00    +0.000 A 
ATOM      2  N   UNL     1       2.525   7.559  18.077  0.00  0.00    +0.000 NA
ATOM      3  C   UNL     1       2.065   8.746  17.626  0.00  0.00    +0.000 A 
ATOM      4  N   UNL     1       1.373   9.677  18.297  0.00  0.00    +0.000 NA
ATOM      5  C   UNL     1       1.145   9.284  19.562  0.00  0.00    +0.000 A 
ATOM      6  C   UNL     1       1.559   8.109  20.176  0.00  0.00    +0.000 A 
ATOM      7  N   UNL     1       1.153   8.101  21.497  0.00  0.00    +0.000 NA
ATOM      8  C   UNL     1       0.522   9.242  21.673  0.00  0.00    +0.000 A 
ATOM      9  N   UNL     1       0.464   9.971  20.524  0.00  0.00    +0.000 N 
ENDROOT
BRANCH   1  10
ATOM     10  S   UNL     1       2.950   5.730  20.033  0.00  0.00    +0.000 S 
BRANCH  10  11
ATOM     11  C   UNL     1       2.777   4.620  18.594  0.00  0.00    +0.000 C 
BRANCH  11  12
ATOM     12  C   UNL     1       4.173   4.188  18.160  0.00  0.00    +0.000 C 
BRANCH  12  13
ATOM     13  C   UNL     1       4.254   3.994  16.650  0.00  0.00    +0.000 C 
BRANCH  13  14
ATOM     14  C   UNL     1       5.578   4.533  16.120  0.00  0.00    +0.000 C 
BRANCH  14  15
ATOM     15  C   UNL     1       6.094   3.666  14.982  0.00  0.00    +0.000 C 
BRANCH  15  16
ATOM     16  C   UNL     1       5.949   4.388  13.649  0.00  0.00    +0.000 C 
BRANCH  16  17
ATOM     17  C   UNL     1       6.507   3.534  12.519  0.00  0.00    +0.000 C 
BRANCH  17  18
ATOM     18  C   UNL     1       5.388   2.775  11.820  0.00  0.00    +0.000 C 
BRANCH  18  20
ATOM     19  C   UNL     1       3.282   3.024  10.483  0.00  0.00    +0.000 C 
ATOM     20  C   UNL     1       4.252   3.719  11.432  0.00  0.00    +0.000 C 
ENDBRANCH  18  20
ENDBRANCH  17  18
ENDBRANCH  16  17
ENDBRANCH  15  16
ENDBRANCH  14  15
ENDBRANCH  13  14
ENDBRANCH  12  13
ENDBRANCH  11  12
ENDBRANCH  10  11
ENDBRANCH   1  10
BRANCH   9  21
ATOM     21  C   UNL     1      -0.111  11.299  20.375  0.00  0.00    +0.000 C 
BRANCH  21  22
ATOM     22  C   UNL     1       0.206  12.281  21.480  0.00  0.00    +0.000 C 
ATOM     23  O   UNL     1       1.184  13.012  21.414  0.00  0.00    +0.000 OA
BRANCH  22  24
ATOM     24  O   UNL     1      -0.544  12.110  22.608  0.00  0.00    +0.000 OA
BRANCH  24  25
ATOM     25  C   UNL     1      -1.624  13.065  22.830  0.00  0.00    +0.000 C 
ATOM     26  C   UNL     1      -1.259  14.231  23.759  0.00  0.00    +0.000 C 
ATOM     27  C   UNL     1      -2.050  13.617  21.454  0.00  0.00    +0.000 C 
ATOM     28  C   UNL     1      -2.817  12.290  23.405  0.00  0.00    +0.000 C 
ENDBRANCH  24  25
ENDBRANCH  22  24
ENDBRANCH  21  22
ENDBRANCH   9  21
TORSDOF 14
ENDMDL
MODEL 8
REMARK VINA RESULT:      -5.8      1.955      2.964
REMARK  Name = 
REMARK  18 active torsions:
REMARK  status: ('A' for Active; 'I' for Inactive)
REMARK    1  A    between atoms: C_1  and  C_2
REMARK    2  A    between atoms: C_2  and  C_3
REMARK    3  A    between atoms: C_3  and  C_4
REMARK    4  A    between atoms: C_4  and  C_5
REMARK    5  A    between atoms: C_5  and  C_6
REMARK    6  A    between atoms: C_6  and  C_7
REMARK    7  A    between atoms: C_7  and  C_8
REMARK    8  A    between atoms: C_8  and  C_9
REMARK    9  A    between atoms: C_9  and  C_10
REMARK   10  A    between atoms: C_10  and  S_11
REMARK   11  A    between atoms: S_11  and  C_12
REMARK   12  A    between atoms: N_20  and  C_21
REMARK   13  A    between atoms: C_21  and  C_22
REMARK   14  A    between atoms: C_22  and  O_24
REMARK   15  A    between atoms: O_24  and  C_25
REMARK   16  A    between atoms: C_25  and  C_26
REMARK   17  A    between atoms: C_25  and  C_27
REMARK   18  A    between atoms: C_25  and  C_28
REMARK                            x       y       z     vdW  Elec       q    Type
REMARK                         _______ _______ _______ _____ _____    ______ ____
ROOT
ATOM      1  C   UNL     1       6.473   6.512  17.115  0.00  0.00    +0.000 A 
ATOM      2  N   UNL     1       7.311   5.566  16.625  0.00  0.00    +0.000 NA
ATOM      3  C   UNL     1       6.811   4.337  16.369  0.00  0.00    +0.000 A 
ATOM      4  N   UNL     1       5.555   3.901  16.539  0.00  0.00    +0.000 NA
ATOM      5  C   UNL     1       4.775   4.872  17.044  0.00  0.00    +0.000 A 
ATOM      6  C   UNL     1       5.134   6.180  17.347  0.00  0.00    +0.000 A 
ATOM      7  N   UNL     1       4.032   6.874  17.811  0.00  0.00    +0.000 NA
ATOM      8  C   UNL     1       3.039   6.009  17.778  0.00  0.00    +0.000 A 
ATOM      9  N   UNL     1       3.450   4.782  17.355  0.00  0.00    +0.000 N 
ENDROOT
BRANCH   1  10
ATOM     10  S   UNL     1       7.055   8.160  17.368  0.00  0.00    +0.000 S 
BRANCH  10  11
ATOM     11  C   UNL     1       8.344   7.866  18.627  0.00  0.00    +0.000 C 
BRANCH  11  12
ATOM     12  C   UNL     1       8.890   9.219  19.069  0.00  0.00    +0.000 C 
BRANCH  12  13
ATOM     13  C   UNL     1       8.844  10.239  17.937  0.00  0.00    +0.000 C 
BRANCH  13  14
ATOM     14  C   UNL     1       9.285  11.608  18.443  0.00  0.00    +0.000 C 
BRANCH  14  15
ATOM     15  C   UNL     1       9.805  11.511  19.870  0.00  0.00    +0.000 C 
BRANCH  15  16
ATOM     16  C   UNL     1       9.582  12.821  20.613  0.00  0.00    +0.000 C 
BRANCH  16  17
ATOM     17  C   UNL     1       9.384  12.562  22.099  0.00  0.00    +0.000 C 
BRANCH  17  18
ATOM     18  C   UNL     1       8.342  11.475  22.319  0.00  0.00    +0.000 C 
BRANCH  18  20
ATOM     19  C   UNL     1       7.435  11.684  24.646  0.00  0.00    +0.000 C 
ATOM     20  C   UNL     1       7.189  11.994  23.174  0.00  0.00    +0.000 C 
ENDBRANCH  18  20
ENDBRANCH  17  18
ENDBRANCH  16  17
ENDBRANCH  15  16
ENDBRANCH  14  15
ENDBRANCH  13  14
ENDBRANCH  12  13
ENDBRANCH  11  12
ENDBRANCH  10  11
ENDBRANCH   1  10
BRANCH   9  21
ATOM     21  C   UNL     1       2.607   3.614  17.152  0.00  0.00    +0.000 C 
BRANCH  21  22
ATOM     22  C   UNL     1       2.569   2.623  18.294  0.00  0.00    +0.000 C 
ATOM     23  O   UNL     1       3.210   1.583  18.249  0.00  0.00    +0.000 OA
BRANCH  22  24
ATOM     24  O   UNL     1       1.610   2.889  19.229  0.00  0.00    +0.000 OA
BRANCH  24  25
ATOM     25  C   UNL     1       2.075   3.345  20.534  0.00  0.00    +0.000 C 
ATOM     26  C   UNL     1       1.481   2.576  21.723  0.00  0.00    +0.000 C 
ATOM     27  C   UNL     1       3.612   3.217  20.555  0.00  0.00    +0.000 C 
ATOM     28  C   UNL     1       1.735   4.837  20.652  0.00  0.00    +0.000 C 
ENDBRANCH  24  25
ENDBRANCH  22  24
ENDBRANCH  21  22
ENDBRANCH   9  21
TORSDOF 14
ENDMDL
MODEL 9
REMARK VINA RESULT:      -5.8      5.862      8.157
REMARK  Name = 
REMARK  18 active torsions:
REMARK  status: ('A' for Active; 'I' for Inactive)
REMARK    1  A    between atoms: C_1  and  C_2
REMARK    2  A    between atoms: C_2  and  C_3
REMARK    3  A    between atoms: C_3  and  C_4
REMARK    4  A    between atoms: C_4  and  C_5
REMARK    5  A    between atoms: C_5  and  C_6
REMARK    6  A    between atoms: C_6  and  C_7
REMARK    7  A    between atoms: C_7  and  C_8
REMARK    8  A    between atoms: C_8  and  C_9
REMARK    9  A    between atoms: C_9  and  C_10
REMARK   10  A    between atoms: C_10  and  S_11
REMARK   11  A    between atoms: S_11  and  C_12
REMARK   12  A    between atoms: N_20  and  C_21
REMARK   13  A    between atoms: C_21  and  C_22
REMARK   14  A    between atoms: C_22  and  O_24
REMARK   15  A    between atoms: O_24  and  C_25
REMARK   16  A    between atoms: C_25  and  C_26
REMARK   17  A    between atoms: C_25  and  C_27
REMARK   18  A    between atoms: C_25  and  C_28
REMARK                            x       y       z     vdW  Elec       q    Type
REMARK                         _______ _______ _______ _____ _____    ______ ____
ROOT
ATOM      1  C   UNL     1       3.679   2.630  19.143  0.00  0.00    +0.000 A 
ATOM      2  N   UNL     1       2.724   2.036  18.387  0.00  0.00    +0.000 NA
ATOM      3  C   UNL     1       2.661   2.347  17.074  0.00  0.00    +0.000 A 
ATOM      4  N   UNL     1       3.436   3.195  16.384  0.00  0.00    +0.000 NA
ATOM      5  C   UNL     1       4.350   3.768  17.186  0.00  0.00    +0.000 A 
ATOM      6  C   UNL     1       4.550   3.546  18.543  0.00  0.00    +0.000 A 
ATOM      7  N   UNL     1       5.616   4.303  18.991  0.00  0.00    +0.000 NA
ATOM      8  C   UNL     1       6.048   4.954  17.931  0.00  0.00    +0.000 A 
ATOM      9  N   UNL     1       5.293   4.687  16.830  0.00  0.00    +0.000 N 
ENDROOT
BRANCH   1  10
ATOM     10  S   UNL     1       3.867   2.179  20.841  0.00  0.00    +0.000 S 
BRANCH  10  11
ATOM     11  C   UNL     1       2.684   3.328  21.622  0.00  0.00    +0.000 C 
BRANCH  11  12
ATOM     12  C   UNL     1       1.363   3.232  20.868  0.00  0.00    +0.000 C 
BRANCH  12  13
ATOM     13  C   UNL     1       1.078   4.502  20.074  0.00  0.00    +0.000 C 
BRANCH  13  14
ATOM     14  C   UNL     1       1.708   5.707  20.765  0.00  0.00    +0.000 C 
BRANCH  14  15
ATOM     15  C   UNL     1       2.664   6.425  19.825  0.00  0.00    +0.000 C 
BRANCH  15  16
ATOM     16  C   UNL     1       2.184   6.313  18.383  0.00  0.00    +0.000 C 
BRANCH  16  17
ATOM     17  C   UNL     1       2.290   7.660  17.683  0.00  0.00    +0.000 C 
BRANCH  17  18
ATOM     18  C   UNL     1       1.875   8.784  18.621  0.00  0.00    +0.000 C 
BRANCH  18  20
ATOM     19  C   UNL     1       0.046  10.433  19.092  0.00  0.00    +0.000 C 
ATOM     20  C   UNL     1       0.739   9.604  18.015  0.00  0.00    +0.000 C 
ENDBRANCH  18  20
ENDBRANCH  17  18
ENDBRANCH  16  17
ENDBRANCH  15  16
ENDBRANCH  14  15
ENDBRANCH  13  14
ENDBRANCH  12  13
ENDBRANCH  11  12
ENDBRANCH  10  11
ENDBRANCH   1  10
BRANCH   9  21
ATOM     21  C   UNL     1       5.522   5.193  15.485  0.00  0.00    +0.000 C 
BRANCH  21  22
ATOM     22  C   UNL     1       6.685   4.576  14.740  0.00  0.00    +0.000 C 
ATOM     23  O   UNL     1       7.763   5.149  14.666  0.00  0.00    +0.000 OA
BRANCH  22  24
ATOM     24  O   UNL     1       6.351   3.478  14.001  0.00  0.00    +0.000 OA
BRANCH  24  25
ATOM     25  C   UNL     1       6.324   3.645  12.552  0.00  0.00    +0.000 C 
ATOM     26  C   UNL     1       7.219   4.777  12.027  0.00  0.00    +0.000 C 
ATOM     27  C   UNL     1       6.760   2.309  11.918  0.00  0.00    +0.000 C 
ATOM     28  C   UNL     1       4.867   3.896  12.143  0.00  0.00    +0.000 C 
ENDBRANCH  24  25
ENDBRANCH  22  24
ENDBRANCH  21  22
ENDBRANCH   9  21
TORSDOF 14
ENDMDL
