MODEL 1
REMARK VINA RESULT:      -6.8      0.000      0.000
REMARK  Name = 
REMARK  7 active torsions:
REMARK  status: ('A' for Active; 'I' for Inactive)
REMARK    1  A    between atoms: C_1  and  C_2
REMARK    2  A    between atoms: C_2  and  O_3
REMARK    3  A    between atoms: O_3  and  C_4
REMARK    4  A    between atoms: C_9  and  C_10
REMARK    5  A    between atoms: C_10  and  N_11
REMARK    6  A    between atoms: C_12  and  C_14
REMARK    7  A    between atoms: N_20  and  C_21
REMARK                            x       y       z     vdW  Elec       q    Type
REMARK                         _______ _______ _______ _____ _____    ______ ____
ROOT
ATOM      1  N   UNL     1       1.707   7.640  19.887  0.00  0.00    +0.000 N 
ATOM      2  C   UNL     1       2.333   6.879  18.920  0.00  0.00    +0.000 C 
ATOM      3  O   UNL     1       2.885   7.371  17.938  0.00  0.00    +0.000 OA
ATOM      4  H   UNL     1       1.171   7.146  20.591  0.00  0.00    +0.000 HD
ENDROOT
BRANCH   2   5
ATOM      5  C   UNL     1       2.303   5.345  19.205  0.00  0.00    +0.000 C 
ATOM      6  C   UNL     1       1.837   5.060  20.647  0.00  0.00    +0.000 C 
ATOM      7  C   UNL     1       1.315   3.638  20.834  0.00  0.00    +0.000 C 
ATOM      8  C   UNL     1       2.382   2.598  21.142  0.00  0.00    +0.000 C 
ATOM      9  C   UNL     1       3.674   2.659  20.336  0.00  0.00    +0.000 C 
ATOM     10  C   UNL     1       3.564   3.235  18.920  0.00  0.00    +0.000 C 
ATOM     11  N   UNL     1       3.572   4.699  18.782  0.00  0.00    +0.000 NA
ATOM     12  C   UNL     1       4.765   5.303  19.380  0.00  0.00    +0.000 C 
ENDBRANCH   2   5
BRANCH   1  13
ATOM     13  C   UNL     1       1.610   9.084  19.819  0.00  0.00    +0.000 C 
BRANCH  13  19
ATOM     14  C   UNL     1      -0.071  10.798  20.708  0.00  0.00    +0.000 A 
ATOM     15  C   UNL     1      -0.917  11.243  21.737  0.00  0.00    +0.000 A 
ATOM     16  C   UNL     1      -0.900  10.625  22.987  0.00  0.00    +0.000 A 
ATOM     17  C   UNL     1      -0.062   9.540  23.210  0.00  0.00    +0.000 A 
ATOM     18  C   UNL     1       0.730   9.048  22.171  0.00  0.00    +0.000 A 
ATOM     19  C   UNL     1       0.733   9.661  20.905  0.00  0.00    +0.000 A 
BRANCH  14  20
ATOM     20  O   UNL     1       0.022  11.438  19.496  0.00  0.00    +0.000 OA
BRANCH  20  22
ATOM     21  C   UNL     1      -1.466  10.304  17.993  0.00  0.00    +0.000 C 
ATOM     22  C   UNL     1      -1.219  11.571  18.789  0.00  0.00    +0.000 C 
ENDBRANCH  20  22
ENDBRANCH  14  20
ENDBRANCH  13  19
ENDBRANCH   1  13
TORSDOF 5
ENDMDL
MODEL 2
REMARK VINA RESULT:      -6.7      1.579      6.993
REMARK  Name = 
REMARK  7 active torsions:
REMARK  status: ('A' for Active; 'I' for Inactive)
REMARK    1  A    between atoms: C_1  and  C_2
REMARK    2  A    between atoms: C_2  and  O_3
REMARK    3  A    between atoms: O_3  and  C_4
REMARK    4  A    between atoms: C_9  and  C_10
REMARK    5  A    between atoms: C_10  and  N_11
REMARK    6  A    between atoms: C_12  and  C_14
REMARK    7  A    between atoms: N_20  and  C_21
REMARK                            x       y       z     vdW  Elec       q    Type
REMARK                         _______ _______ _______ _____ _____    ______ ____
ROOT
ATOM      1  N   UNL     1       2.035   7.442  19.804  0.00  0.00    +0.000 N 
ATOM      2  C   UNL     1       1.669   8.717  19.418  0.00  0.00    +0.000 C 
ATOM      3  O   UNL     1       1.730   9.104  18.254  0.00  0.00    +0.000 OA
ATOM      4  H   UNL     1       2.072   7.252  20.799  0.00  0.00    +0.000 HD
ENDROOT
BRANCH   2   5
ATOM      5  C   UNL     1       1.141   9.604  20.588  0.00  0.00    +0.000 C 
ATOM      6  C   UNL     1       0.344   8.762  21.604  0.00  0.00    +0.000 C 
ATOM      7  C   UNL     1       0.234   9.428  22.973  0.00  0.00    +0.000 C 
ATOM      8  C   UNL     1      -0.921  10.407  23.120  0.00  0.00    +0.000 C 
ATOM      9  C   UNL     1      -1.175  11.370  21.965  0.00  0.00    +0.000 C 
ATOM     10  C   UNL     1       0.047  11.758  21.124  0.00  0.00    +0.000 C 
ATOM     11  N   UNL     1       0.468  10.823  20.070  0.00  0.00    +0.000 NA
ATOM     12  C   UNL     1      -0.611  10.539  19.121  0.00  0.00    +0.000 C 
ENDBRANCH   2   5
BRANCH   1  13
ATOM     13  C   UNL     1       2.560   6.456  18.883  0.00  0.00    +0.000 C 
BRANCH  13  19
ATOM     14  C   UNL     1       2.470   3.933  18.455  0.00  0.00    +0.000 A 
ATOM     15  C   UNL     1       2.183   2.637  18.913  0.00  0.00    +0.000 A 
ATOM     16  C   UNL     1       1.553   2.442  20.142  0.00  0.00    +0.000 A 
ATOM     17  C   UNL     1       1.232   3.536  20.936  0.00  0.00    +0.000 A 
ATOM     18  C   UNL     1       1.579   4.822  20.519  0.00  0.00    +0.000 A 
ATOM     19  C   UNL     1       2.208   5.041  19.280  0.00  0.00    +0.000 A 
BRANCH  14  20
ATOM     20  O   UNL     1       2.995   4.180  17.210  0.00  0.00    +0.000 OA
BRANCH  20  22
ATOM     21  C   UNL     1       5.076   4.831  16.207  0.00  0.00    +0.000 C 
ATOM     22  C   UNL     1       4.365   3.787  17.046  0.00  0.00    +0.000 C 
ENDBRANCH  20  22
ENDBRANCH  14  20
ENDBRANCH  13  19
ENDBRANCH   1  13
TORSDOF 5
ENDMDL
MODEL 3
REMARK VINA RESULT:      -6.6      1.620      7.020
REMARK  Name = 
REMARK  7 active torsions:
REMARK  status: ('A' for Active; 'I' for Inactive)
REMARK    1  A    between atoms: C_1  and  C_2
REMARK    2  A    between atoms: C_2  and  O_3
REMARK    3  A    between atoms: O_3  and  C_4
REMARK    4  A    between atoms: C_9  and  C_10
REMARK    5  A    between atoms: C_10  and  N_11
REMARK    6  A    between atoms: C_12  and  C_14
REMARK    7  A    between atoms: N_20  and  C_21
REMARK                            x       y       z     vdW  Elec       q    Type
REMARK                         _______ _______ _______ _____ _____    ______ ____
ROOT
ATOM      1  N   UNL     1       2.136   7.529  18.906  0.00  0.00    +0.000 N 
ATOM      2  C   UNL     1       1.821   8.856  18.685  0.00  0.00    +0.000 C 
ATOM      3  O   UNL     1       1.866   9.375  17.572  0.00  0.00    +0.000 OA
ATOM      4  H   UNL     1       2.194   7.221  19.869  0.00  0.00    +0.000 HD
ENDROOT
BRANCH   2   5
ATOM      5  C   UNL     1       1.374   9.621  19.969  0.00  0.00    +0.000 C 
ATOM      6  C   UNL     1       0.966   8.638  21.084  0.00  0.00    +0.000 C 
ATOM      7  C   UNL     1       1.002   9.268  22.475  0.00  0.00    +0.000 C 
ATOM      8  C   UNL     1      -0.267  10.003  22.880  0.00  0.00    +0.000 C 
ATOM      9  C   UNL     1      -0.921  10.900  21.834  0.00  0.00    +0.000 C 
ATOM     10  C   UNL     1       0.015  11.520  20.790  0.00  0.00    +0.000 C 
ATOM     11  N   UNL     1       0.392  10.687  19.639  0.00  0.00    +0.000 NA
ATOM     12  C   UNL     1      -0.778  10.199  18.904  0.00  0.00    +0.000 C 
ENDBRANCH   2   5
BRANCH   1  13
ATOM     13  C   UNL     1       2.583   6.636  17.857  0.00  0.00    +0.000 C 
BRANCH  13  19
ATOM     14  C   UNL     1       3.569   4.680  19.183  0.00  0.00    +0.000 A 
ATOM     15  C   UNL     1       3.492   3.343  19.603  0.00  0.00    +0.000 A 
ATOM     16  C   UNL     1       2.527   2.486  19.075  0.00  0.00    +0.000 A 
ATOM     17  C   UNL     1       1.611   2.965  18.147  0.00  0.00    +0.000 A 
ATOM     18  C   UNL     1       1.636   4.311  17.777  0.00  0.00    +0.000 A 
ATOM     19  C   UNL     1       2.606   5.190  18.293  0.00  0.00    +0.000 A 
BRANCH  14  20
ATOM     20  O   UNL     1       4.563   5.532  19.596  0.00  0.00    +0.000 OA
BRANCH  20  22
ATOM     21  C   UNL     1       6.276   5.983  17.977  0.00  0.00    +0.000 C 
ATOM     22  C   UNL     1       5.886   5.157  19.187  0.00  0.00    +0.000 C 
ENDBRANCH  20  22
ENDBRANCH  14  20
ENDBRANCH  13  19
ENDBRANCH   1  13
TORSDOF 5
ENDMDL
MODEL 4
REMARK VINA RESULT:      -6.6      4.693      6.994
REMARK  Name = 
REMARK  7 active torsions:
REMARK  status: ('A' for Active; 'I' for Inactive)
REMARK    1  A    between atoms: C_1  and  C_2
REMARK    2  A    between atoms: C_2  and  O_3
REMARK    3  A    between atoms: O_3  and  C_4
REMARK    4  A    between atoms: C_9  and  C_10
REMARK    5  A    between atoms: C_10  and  N_11
REMARK    6  A    between atoms: C_12  and  C_14
REMARK    7  A    between atoms: N_20  and  C_21
REMARK                            x       y       z     vdW  Elec       q    Type
REMARK                         _______ _______ _______ _____ _____    ______ ____
ROOT
ATOM      1  N   UNL     1       5.973   3.998  18.726  0.00  0.00    +0.000 N 
ATOM      2  C   UNL     1       4.801   3.648  18.086  0.00  0.00    +0.000 C 
ATOM      3  O   UNL     1       4.715   3.540  16.865  0.00  0.00    +0.000 OA
ATOM      4  H   UNL     1       5.920   4.186  19.720  0.00  0.00    +0.000 HD
ENDROOT
BRANCH   2   5
ATOM      5  C   UNL     1       3.610   3.372  19.055  0.00  0.00    +0.000 C 
ATOM      6  C   UNL     1       2.391   2.821  18.290  0.00  0.00    +0.000 C 
ATOM      7  C   UNL     1       1.406   2.079  19.191  0.00  0.00    +0.000 C 
ATOM      8  C   UNL     1       0.375   2.962  19.879  0.00  0.00    +0.000 C 
ATOM      9  C   UNL     1       0.865   4.274  20.481  0.00  0.00    +0.000 C 
ATOM     10  C   UNL     1       2.323   4.301  20.954  0.00  0.00    +0.000 C 
ATOM     11  N   UNL     1       3.360   4.539  19.940  0.00  0.00    +0.000 NA
ATOM     12  C   UNL     1       3.142   5.791  19.211  0.00  0.00    +0.000 C 
ENDBRANCH   2   5
BRANCH   1  13
ATOM     13  C   UNL     1       7.200   4.306  18.020  0.00  0.00    +0.000 C 
BRANCH  13  19
ATOM     14  C   UNL     1       6.976   6.566  16.837  0.00  0.00    +0.000 A 
ATOM     15  C   UNL     1       7.184   7.954  16.831  0.00  0.00    +0.000 A 
ATOM     16  C   UNL     1       7.941   8.563  17.831  0.00  0.00    +0.000 A 
ATOM     17  C   UNL     1       8.469   7.797  18.862  0.00  0.00    +0.000 A 
ATOM     18  C   UNL     1       8.207   6.427  18.914  0.00  0.00    +0.000 A 
ATOM     19  C   UNL     1       7.452   5.792  17.911  0.00  0.00    +0.000 A 
BRANCH  14  20
ATOM     20  O   UNL     1       6.326   5.909  15.821  0.00  0.00    +0.000 OA
BRANCH  20  22
ATOM     21  C   UNL     1       6.334   4.308  14.034  0.00  0.00    +0.000 C 
ATOM     22  C   UNL     1       7.185   5.198  14.918  0.00  0.00    +0.000 C 
ENDBRANCH  20  22
ENDBRANCH  14  20
ENDBRANCH  13  19
ENDBRANCH   1  13
TORSDOF 5
ENDMDL
MODEL 5
REMARK VINA RESULT:      -6.5      1.851      3.506
REMARK  Name = 
REMARK  7 active torsions:
REMARK  status: ('A' for Active; 'I' for Inactive)
REMARK    1  A    between atoms: C_1  and  C_2
REMARK    2  A    between atoms: C_2  and  O_3
REMARK    3  A    between atoms: O_3  and  C_4
REMARK    4  A    between atoms: C_9  and  C_10
REMARK    5  A    between atoms: C_10  and  N_11
REMARK    6  A    between atoms: C_12  and  C_14
REMARK    7  A    between atoms: N_20  and  C_21
REMARK                            x       y       z     vdW  Elec       q    Type
REMARK                         _______ _______ _______ _____ _____    ______ ____
ROOT
ATOM      1  N   UNL     1       2.449   6.592  20.286  0.00  0.00    +0.000 N 
ATOM      2  C   UNL     1       2.464   5.215  20.397  0.00  0.00    +0.000 C 
ATOM      3  O   UNL     1       1.674   4.594  21.104  0.00  0.00    +0.000 OA
ATOM      4  H   UNL     1       3.214   7.024  19.782  0.00  0.00    +0.000 HD
ENDROOT
BRANCH   2   5
ATOM      5  C   UNL     1       3.552   4.523  19.520  0.00  0.00    +0.000 C 
ATOM      6  C   UNL     1       4.609   5.539  19.044  0.00  0.00    +0.000 C 
ATOM      7  C   UNL     1       5.922   4.883  18.626  0.00  0.00    +0.000 C 
ATOM      8  C   UNL     1       5.969   4.400  17.184  0.00  0.00    +0.000 C 
ATOM      9  C   UNL     1       4.740   3.674  16.648  0.00  0.00    +0.000 C 
ATOM     10  C   UNL     1       3.902   2.907  17.677  0.00  0.00    +0.000 C 
ATOM     11  N   UNL     1       2.931   3.677  18.468  0.00  0.00    +0.000 NA
ATOM     12  C   UNL     1       1.980   4.401  17.620  0.00  0.00    +0.000 C 
ENDBRANCH   2   5
BRANCH   1  13
ATOM     13  C   UNL     1       1.527   7.435  21.018  0.00  0.00    +0.000 C 
BRANCH  13  19
ATOM     14  C   UNL     1       0.068   9.509  20.666  0.00  0.00    +0.000 A 
ATOM     15  C   UNL     1      -0.252  10.649  19.911  0.00  0.00    +0.000 A 
ATOM     16  C   UNL     1       0.355  10.878  18.677  0.00  0.00    +0.000 A 
ATOM     17  C   UNL     1       1.308   9.988  18.200  0.00  0.00    +0.000 A 
ATOM     18  C   UNL     1       1.684   8.891  18.977  0.00  0.00    +0.000 A 
ATOM     19  C   UNL     1       1.079   8.638  20.221  0.00  0.00    +0.000 A 
BRANCH  14  20
ATOM     20  O   UNL     1      -0.576   9.189  21.836  0.00  0.00    +0.000 OA
BRANCH  20  22
ATOM     21  C   UNL     1      -1.379  11.007  23.181  0.00  0.00    +0.000 C 
ATOM     22  C   UNL     1      -0.246  10.026  22.953  0.00  0.00    +0.000 C 
ENDBRANCH  20  22
ENDBRANCH  14  20
ENDBRANCH  13  19
ENDBRANCH   1  13
TORSDOF 5
ENDMDL
MODEL 6
REMARK VINA RESULT:      -6.5      1.713      7.013
REMARK  Name = 
REMARK  7 active torsions:
REMARK  status: ('A' for Active; 'I' for Inactive)
REMARK    1  A    between atoms: C_1  and  C_2
REMARK    2  A    between atoms: C_2  and  O_3
REMARK    3  A    between atoms: O_3  and  C_4
REMARK    4  A    between atoms: C_9  and  C_10
REMARK    5  A    between atoms: C_10  and  N_11
REMARK    6  A    between atoms: C_12  and  C_14
REMARK    7  A    between atoms: N_20  and  C_21
REMARK                            x       y       z     vdW  Elec       q    Type
REMARK                         _______ _______ _______ _____ _____    ______ ____
ROOT
ATOM      1  N   UNL     1       2.058   7.747  19.071  0.00  0.00    +0.000 N 
ATOM      2  C   UNL     1       1.555   9.022  18.900  0.00  0.00    +0.000 C 
ATOM      3  O   UNL     1       1.402   9.536  17.794  0.00  0.00    +0.000 OA
ATOM      4  H   UNL     1       2.267   7.455  20.018  0.00  0.00    +0.000 HD
ENDROOT
BRANCH   2   5
ATOM      5  C   UNL     1       1.171   9.734  20.234  0.00  0.00    +0.000 C 
ATOM      6  C   UNL     1       0.691   8.715  21.286  0.00  0.00    +0.000 C 
ATOM      7  C   UNL     1       0.778   9.248  22.714  0.00  0.00    +0.000 C 
ATOM      8  C   UNL     1      -0.429  10.051  23.175  0.00  0.00    +0.000 C 
ATOM      9  C   UNL     1      -1.013  11.062  22.195  0.00  0.00    +0.000 C 
ATOM     10  C   UNL     1      -0.034  11.675  21.187  0.00  0.00    +0.000 C 
ATOM     11  N   UNL     1       0.275  10.892  19.981  0.00  0.00    +0.000 NA
ATOM     12  C   UNL     1      -0.931  10.546  19.224  0.00  0.00    +0.000 C 
ENDBRANCH   2   5
BRANCH   1  13
ATOM     13  C   UNL     1       2.485   6.910  17.969  0.00  0.00    +0.000 C 
BRANCH  13  19
ATOM     14  C   UNL     1       4.251   5.536  19.214  0.00  0.00    +0.000 A 
ATOM     15  C   UNL     1       5.556   5.023  19.284  0.00  0.00    +0.000 A 
ATOM     16  C   UNL     1       6.525   5.416  18.362  0.00  0.00    +0.000 A 
ATOM     17  C   UNL     1       6.192   6.300  17.344  0.00  0.00    +0.000 A 
ATOM     18  C   UNL     1       4.880   6.760  17.225  0.00  0.00    +0.000 A 
ATOM     19  C   UNL     1       3.889   6.381  18.149  0.00  0.00    +0.000 A 
BRANCH  14  20
ATOM     20  O   UNL     1       3.293   5.259  20.157  0.00  0.00    +0.000 OA
BRANCH  20  22
ATOM     21  C   UNL     1       1.251   4.023  20.404  0.00  0.00    +0.000 C 
ATOM     22  C   UNL     1       2.728   3.943  20.073  0.00  0.00    +0.000 C 
ENDBRANCH  20  22
ENDBRANCH  14  20
ENDBRANCH  13  19
ENDBRANCH   1  13
TORSDOF 5
ENDMDL
MODEL 7
REMARK VINA RESULT:      -6.5      1.207      1.331
REMARK  Name = 
REMARK  7 active torsions:
REMARK  status: ('A' for Active; 'I' for Inactive)
REMARK    1  A    between atoms: C_1  and  C_2
REMARK    2  A    between atoms: C_2  and  O_3
REMARK    3  A    between atoms: O_3  and  C_4
REMARK    4  A    between atoms: C_9  and  C_10
REMARK    5  A    between atoms: C_10  and  N_11
REMARK    6  A    between atoms: C_12  and  C_14
REMARK    7  A    between atoms: N_20  and  C_21
REMARK                            x       y       z     vdW  Elec       q    Type
REMARK                         _______ _______ _______ _____ _____    ______ ____
ROOT
ATOM      1  N   UNL     1       2.009   7.401  18.522  0.00  0.00    +0.000 N 
ATOM      2  C   UNL     1       3.042   6.786  17.843  0.00  0.00    +0.000 C 
ATOM      3  O   UNL     1       3.953   7.413  17.306  0.00  0.00    +0.000 OA
ATOM      4  H   UNL     1       1.239   6.815  18.822  0.00  0.00    +0.000 HD
ENDROOT
BRANCH   2   5
ATOM      5  C   UNL     1       2.965   5.228  17.850  0.00  0.00    +0.000 C 
ATOM      6  C   UNL     1       1.792   4.737  18.721  0.00  0.00    +0.000 C 
ATOM      7  C   UNL     1       1.356   3.313  18.385  0.00  0.00    +0.000 C 
ATOM      8  C   UNL     1       2.135   2.218  19.098  0.00  0.00    +0.000 C 
ATOM      9  C   UNL     1       3.649   2.375  19.181  0.00  0.00    +0.000 C 
ATOM     10  C   UNL     1       4.313   3.162  18.045  0.00  0.00    +0.000 C 
ATOM     11  N   UNL     1       4.294   4.629  18.136  0.00  0.00    +0.000 NA
ATOM     12  C   UNL     1       4.900   5.113  19.379  0.00  0.00    +0.000 C 
ENDBRANCH   2   5
BRANCH   1  13
ATOM     13  C   UNL     1       1.880   8.839  18.634  0.00  0.00    +0.000 C 
BRANCH  13  19
ATOM     14  C   UNL     1       0.205  10.339  19.859  0.00  0.00    +0.000 A 
ATOM     15  C   UNL     1      -0.533  10.635  21.016  0.00  0.00    +0.000 A 
ATOM     16  C   UNL     1      -0.312   9.932  22.200  0.00  0.00    +0.000 A 
ATOM     17  C   UNL     1       0.626   8.907  22.229  0.00  0.00    +0.000 A 
ATOM     18  C   UNL     1       1.312   8.559  21.065  0.00  0.00    +0.000 A 
ATOM     19  C   UNL     1       1.109   9.261  19.863  0.00  0.00    +0.000 A 
BRANCH  14  20
ATOM     20  O   UNL     1       0.095  11.070  18.702  0.00  0.00    +0.000 OA
BRANCH  20  22
ATOM     21  C   UNL     1      -1.664  10.041  17.434  0.00  0.00    +0.000 C 
ATOM     22  C   UNL     1      -1.248  11.260  18.235  0.00  0.00    +0.000 C 
ENDBRANCH  20  22
ENDBRANCH  14  20
ENDBRANCH  13  19
ENDBRANCH   1  13
TORSDOF 5
ENDMDL
MODEL 8
REMARK VINA RESULT:      -6.4      2.298      7.204
REMARK  Name = 
REMARK  7 active torsions:
REMARK  status: ('A' for Active; 'I' for Inactive)
REMARK    1  A    between atoms: C_1  and  C_2
REMARK    2  A    between atoms: C_2  and  O_3
REMARK    3  A    between atoms: O_3  and  C_4
REMARK    4  A    between atoms: C_9  and  C_10
REMARK    5  A    between atoms: C_10  and  N_11
REMARK    6  A    between atoms: C_12  and  C_14
REMARK    7  A    between atoms: N_20  and  C_21
REMARK                            x       y       z     vdW  Elec       q    Type
REMARK                         _______ _______ _______ _____ _____    ______ ____
ROOT
ATOM      1  N   UNL     1       2.063   7.733  19.272  0.00  0.00    +0.000 N 
ATOM      2  C   UNL     1       1.826   8.741  18.358  0.00  0.00    +0.000 C 
ATOM      3  O   UNL     1       2.373   8.784  17.258  0.00  0.00    +0.000 OA
ATOM      4  H   UNL     1       1.667   7.846  20.198  0.00  0.00    +0.000 HD
ENDROOT
BRANCH   2   5
ATOM      5  C   UNL     1       0.781   9.795  18.835  0.00  0.00    +0.000 C 
ATOM      6  C   UNL     1      -0.395   9.896  17.844  0.00  0.00    +0.000 C 
ATOM      7  C   UNL     1      -1.650  10.504  18.467  0.00  0.00    +0.000 C 
ATOM      8  C   UNL     1      -1.707  12.024  18.441  0.00  0.00    +0.000 C 
ATOM      9  C   UNL     1      -0.433  12.779  18.803  0.00  0.00    +0.000 C 
ATOM     10  C   UNL     1       0.524  12.072  19.770  0.00  0.00    +0.000 C 
ATOM     11  N   UNL     1       1.442  11.073  19.204  0.00  0.00    +0.000 NA
ATOM     12  C   UNL     1       2.276  11.632  18.137  0.00  0.00    +0.000 C 
ENDBRANCH   2   5
BRANCH   1  13
ATOM     13  C   UNL     1       3.002   6.656  19.039  0.00  0.00    +0.000 C 
BRANCH  13  19
ATOM     14  C   UNL     1       2.497   4.241  18.356  0.00  0.00    +0.000 A 
ATOM     15  C   UNL     1       1.974   2.977  18.675  0.00  0.00    +0.000 A 
ATOM     16  C   UNL     1       1.275   2.777  19.864  0.00  0.00    +0.000 A 
ATOM     17  C   UNL     1       1.118   3.828  20.759  0.00  0.00    +0.000 A 
ATOM     18  C   UNL     1       1.695   5.068  20.482  0.00  0.00    +0.000 A 
ATOM     19  C   UNL     1       2.398   5.293  19.284  0.00  0.00    +0.000 A 
BRANCH  14  20
ATOM     20  O   UNL     1       3.102   4.511  17.153  0.00  0.00    +0.000 OA
BRANCH  20  22
ATOM     21  C   UNL     1       5.342   4.781  16.335  0.00  0.00    +0.000 C 
ATOM     22  C   UNL     1       4.336   3.815  16.930  0.00  0.00    +0.000 C 
ENDBRANCH  20  22
ENDBRANCH  14  20
ENDBRANCH  13  19
ENDBRANCH   1  13
TORSDOF 5
ENDMDL
MODEL 9
REMARK VINA RESULT:      -6.4      0.902      1.701
REMARK  Name = 
REMARK  7 active torsions:
REMARK  status: ('A' for Active; 'I' for Inactive)
REMARK    1  A    between atoms: C_1  and  C_2
REMARK    2  A    between atoms: C_2  and  O_3
REMARK    3  A    between atoms: O_3  and  C_4
REMARK    4  A    between atoms: C_9  and  C_10
REMARK    5  A    between atoms: C_10  and  N_11
REMARK    6  A    between atoms: C_12  and  C_14
REMARK    7  A    between atoms: N_20  and  C_21
REMARK                            x       y       z     vdW  Elec       q    Type
REMARK                         _______ _______ _______ _____ _____    ______ ____
ROOT
ATOM      1  N   UNL     1       2.055   7.659  20.157  0.00  0.00    +0.000 N 
ATOM      2  C   UNL     1       2.413   6.691  19.239  0.00  0.00    +0.000 C 
ATOM      3  O   UNL     1       2.258   6.831  18.028  0.00  0.00    +0.000 OA
ATOM      4  H   UNL     1       2.101   7.407  21.138  0.00  0.00    +0.000 HD
ENDROOT
BRANCH   2   5
ATOM      5  C   UNL     1       3.057   5.422  19.878  0.00  0.00    +0.000 C 
ATOM      6  C   UNL     1       3.750   4.556  18.808  0.00  0.00    +0.000 C 
ATOM      7  C   UNL     1       4.793   3.607  19.393  0.00  0.00    +0.000 C 
ATOM      8  C   UNL     1       4.245   2.276  19.887  0.00  0.00    +0.000 C 
ATOM      9  C   UNL     1       2.948   2.306  20.687  0.00  0.00    +0.000 C 
ATOM     10  C   UNL     1       2.675   3.583  21.490  0.00  0.00    +0.000 C 
ATOM     11  N   UNL     1       2.093   4.724  20.768  0.00  0.00    +0.000 NA
ATOM     12  C   UNL     1       0.833   4.376  20.108  0.00  0.00    +0.000 C 
ENDBRANCH   2   5
BRANCH   1  13
ATOM     13  C   UNL     1       1.434   8.913  19.784  0.00  0.00    +0.000 C 
BRANCH  13  19
ATOM     14  C   UNL     1      -0.249  10.604  20.714  0.00  0.00    +0.000 A 
ATOM     15  C   UNL     1      -1.024  11.076  21.785  0.00  0.00    +0.000 A 
ATOM     16  C   UNL     1      -0.869  10.541  23.064  0.00  0.00    +0.000 A 
ATOM     17  C   UNL     1       0.039   9.512  23.277  0.00  0.00    +0.000 A 
ATOM     18  C   UNL     1       0.761   8.990  22.204  0.00  0.00    +0.000 A 
ATOM     19  C   UNL     1       0.625   9.519  20.907  0.00  0.00    +0.000 A 
BRANCH  14  20
ATOM     20  O   UNL     1      -0.293  11.167  19.462  0.00  0.00    +0.000 OA
BRANCH  20  22
ATOM     21  C   UNL     1      -1.581  10.215  17.675  0.00  0.00    +0.000 C 
ATOM     22  C   UNL     1      -1.590  11.174  18.850  0.00  0.00    +0.000 C 
ENDBRANCH  20  22
ENDBRANCH  14  20
ENDBRANCH  13  19
ENDBRANCH   1  13
TORSDOF 5
ENDMDL
