MODEL 1
REMARK VINA RESULT:      -7.3      0.000      0.000
REMARK  Name = 
REMARK  8 active torsions:
REMARK  status: ('A' for Active; 'I' for Inactive)
REMARK    1  A    between atoms: C_1  and  C_2
REMARK    2  A    between atoms: C_2  and  C_3
REMARK    3  A    between atoms: C_3  and  C_4
REMARK    4  A    between atoms: C_3  and  N_7
REMARK    5  A    between atoms: C_4  and  O_5
REMARK    6  A    between atoms: O_5  and  C_6
REMARK    7  A    between atoms: C_12  and  C_13
REMARK    8  A    between atoms: C_23  and  C_24
REMARK                            x       y       z     vdW  Elec       q    Type
REMARK                         _______ _______ _______ _____ _____    ______ ____
ROOT
ATOM      1  N   UNL     1       4.338   5.043  17.684  0.00  0.00    +0.000 N 
ATOM      2  C   UNL     1       4.918   6.348  17.211  0.00  0.00    +0.000 C 
ATOM      3  C   UNL     1       3.877   7.485  17.066  0.00  0.00    +0.000 C 
ATOM      4  N   UNL     1       3.085   7.540  18.270  0.00  0.00    +0.000 N 
ATOM      5  N   UNL     1       2.438   8.617  18.721  0.00  0.00    +0.000 NA
ATOM      6  C   UNL     1       1.757   8.147  19.796  0.00  0.00    +0.000 A 
ATOM      7  C   UNL     1       2.080   6.765  20.031  0.00  0.00    +0.000 A 
ATOM      8  N   UNL     1       1.714   5.866  20.979  0.00  0.00    +0.000 NA
ATOM      9  C   UNL     1       2.247   4.633  20.801  0.00  0.00    +0.000 A 
ATOM     10  C   UNL     1       1.963   3.612  21.871  0.00  0.00    +0.000 C 
ATOM     11  C   UNL     1       3.076   4.256  19.725  0.00  0.00    +0.000 A 
ATOM     12  C   UNL     1       3.489   5.180  18.768  0.00  0.00    +0.000 A 
ATOM     13  C   UNL     1       2.928   6.421  19.013  0.00  0.00    +0.000 A 
ENDROOT
BRANCH   6  14
ATOM     14  C   UNL     1       0.870   9.005  20.589  0.00  0.00    +0.000 A 
ATOM     15  C   UNL     1       0.926   8.910  21.996  0.00  0.00    +0.000 A 
ATOM     16  C   UNL     1       0.103   9.689  22.813  0.00  0.00    +0.000 A 
ATOM     17  C   UNL     1      -0.779  10.592  22.234  0.00  0.00    +0.000 A 
ATOM     18 CL   UNL     1      -1.794  11.556  23.233  0.00  0.00    +0.000 Cl
ATOM     19  C   UNL     1      -0.863  10.702  20.849  0.00  0.00    +0.000 A 
ATOM     20  C   UNL     1      -0.053   9.909  20.026  0.00  0.00    +0.000 A 
ATOM     21 CL   UNL     1      -0.314  10.093  18.322  0.00  0.00    +0.000 Cl
ENDBRANCH   6  14
BRANCH   1  22
ATOM     22  C   UNL     1       4.630   3.749  16.989  0.00  0.00    +0.000 C 
BRANCH  22  24
ATOM     23  C   UNL     1       3.639   1.560  17.979  0.00  0.00    +0.000 C 
ATOM     24  C   UNL     1       3.437   2.762  17.067  0.00  0.00    +0.000 C 
ENDBRANCH  22  24
BRANCH  22  25
ATOM     25  C   UNL     1       5.085   3.907  15.515  0.00  0.00    +0.000 C 
BRANCH  25  26
ATOM     26  O   UNL     1       6.496   3.768  15.364  0.00  0.00    +0.000 OA
ATOM     27  C   UNL     1       7.034   4.850  14.613  0.00  0.00    +0.000 C 
ENDBRANCH  25  26
ENDBRANCH  22  25
ENDBRANCH   1  22
TORSDOF 5
ENDMDL
MODEL 2
REMARK VINA RESULT:      -7.2      0.985      1.508
REMARK  Name = 
REMARK  8 active torsions:
REMARK  status: ('A' for Active; 'I' for Inactive)
REMARK    1  A    between atoms: C_1  and  C_2
REMARK    2  A    between atoms: C_2  and  C_3
REMARK    3  A    between atoms: C_3  and  C_4
REMARK    4  A    between atoms: C_3  and  N_7
REMARK    5  A    between atoms: C_4  and  O_5
REMARK    6  A    between atoms: O_5  and  C_6
REMARK    7  A    between atoms: C_12  and  C_13
REMARK    8  A    between atoms: C_23  and  C_24
REMARK                            x       y       z     vdW  Elec       q    Type
REMARK                         _______ _______ _______ _____ _____    ______ ____
ROOT
ATOM      1  N   UNL     1       4.312   5.496  17.351  0.00  0.00    +0.000 N 
ATOM      2  C   UNL     1       4.850   6.844  16.956  0.00  0.00    +0.000 C 
ATOM      3  C   UNL     1       3.775   7.957  16.895  0.00  0.00    +0.000 C 
ATOM      4  N   UNL     1       2.997   7.914  18.108  0.00  0.00    +0.000 N 
ATOM      5  N   UNL     1       2.326   8.942  18.634  0.00  0.00    +0.000 NA
ATOM      6  C   UNL     1       1.673   8.385  19.684  0.00  0.00    +0.000 A 
ATOM      7  C   UNL     1       2.037   7.001  19.827  0.00  0.00    +0.000 A 
ATOM      8  N   UNL     1       1.708   6.034  20.720  0.00  0.00    +0.000 NA
ATOM      9  C   UNL     1       2.273   4.831  20.459  0.00  0.00    +0.000 A 
ATOM     10  C   UNL     1       2.031   3.736  21.465  0.00  0.00    +0.000 C 
ATOM     11  C   UNL     1       3.098   4.546  19.352  0.00  0.00    +0.000 A 
ATOM     12  C   UNL     1       3.473   5.540  18.451  0.00  0.00    +0.000 A 
ATOM     13  C   UNL     1       2.881   6.747  18.780  0.00  0.00    +0.000 A 
ENDROOT
BRANCH   6  14
ATOM     14  C   UNL     1       0.771   9.166  20.539  0.00  0.00    +0.000 A 
ATOM     15  C   UNL     1       0.883   9.023  21.938  0.00  0.00    +0.000 A 
ATOM     16  C   UNL     1       0.052   9.726  22.813  0.00  0.00    +0.000 A 
ATOM     17  C   UNL     1      -0.896  10.602  22.299  0.00  0.00    +0.000 A 
ATOM     18 CL   UNL     1      -1.922  11.474  23.369  0.00  0.00    +0.000 Cl
ATOM     19  C   UNL     1      -1.036  10.759  20.923  0.00  0.00    +0.000 A 
ATOM     20  C   UNL     1      -0.216  10.040  20.043  0.00  0.00    +0.000 A 
ATOM     21 CL   UNL     1      -0.547  10.273  18.358  0.00  0.00    +0.000 Cl
ENDBRANCH   6  14
BRANCH   1  22
ATOM     22  C   UNL     1       4.631   4.257  16.573  0.00  0.00    +0.000 C 
BRANCH  22  24
ATOM     23  C   UNL     1       6.214   4.403  14.516  0.00  0.00    +0.000 C 
ATOM     24  C   UNL     1       4.799   4.546  15.058  0.00  0.00    +0.000 C 
ENDBRANCH  22  24
BRANCH  22  25
ATOM     25  C   UNL     1       5.862   3.475  17.098  0.00  0.00    +0.000 C 
BRANCH  25  26
ATOM     26  O   UNL     1       6.488   4.124  18.203  0.00  0.00    +0.000 OA
ATOM     27  C   UNL     1       7.763   4.637  17.835  0.00  0.00    +0.000 C 
ENDBRANCH  25  26
ENDBRANCH  22  25
ENDBRANCH   1  22
TORSDOF 5
ENDMDL
MODEL 3
REMARK VINA RESULT:      -7.2      3.134      4.762
REMARK  Name = 
REMARK  8 active torsions:
REMARK  status: ('A' for Active; 'I' for Inactive)
REMARK    1  A    between atoms: C_1  and  C_2
REMARK    2  A    between atoms: C_2  and  C_3
REMARK    3  A    between atoms: C_3  and  C_4
REMARK    4  A    between atoms: C_3  and  N_7
REMARK    5  A    between atoms: C_4  and  O_5
REMARK    6  A    between atoms: O_5  and  C_6
REMARK    7  A    between atoms: C_12  and  C_13
REMARK    8  A    between atoms: C_23  and  C_24
REMARK                            x       y       z     vdW  Elec       q    Type
REMARK                         _______ _______ _______ _____ _____    ______ ____
ROOT
ATOM      1  N   UNL     1       2.204   6.700  19.508  0.00  0.00    +0.000 N 
ATOM      2  C   UNL     1       3.214   7.052  18.450  0.00  0.00    +0.000 C 
ATOM      3  C   UNL     1       2.738   8.147  17.464  0.00  0.00    +0.000 C 
ATOM      4  N   UNL     1       2.202   9.249  18.223  0.00  0.00    +0.000 N 
ATOM      5  N   UNL     1       2.130  10.515  17.804  0.00  0.00    +0.000 NA
ATOM      6  C   UNL     1       1.456  11.138  18.802  0.00  0.00    +0.000 A 
ATOM      7  C   UNL     1       1.194  10.224  19.881  0.00  0.00    +0.000 A 
ATOM      8  N   UNL     1       0.607  10.353  21.097  0.00  0.00    +0.000 NA
ATOM      9  C   UNL     1       0.546   9.198  21.802  0.00  0.00    +0.000 A 
ATOM     10  C   UNL     1      -0.005   9.288  23.201  0.00  0.00    +0.000 C 
ATOM     11  C   UNL     1       0.996   7.943  21.344  0.00  0.00    +0.000 A 
ATOM     12  C   UNL     1       1.635   7.806  20.115  0.00  0.00    +0.000 A 
ATOM     13  C   UNL     1       1.683   9.019  19.451  0.00  0.00    +0.000 A 
ENDROOT
BRANCH   6  14
ATOM     14  C   UNL     1       1.119  12.565  18.738  0.00  0.00    +0.000 A 
ATOM     15  C   UNL     1       2.173  13.503  18.725  0.00  0.00    +0.000 A 
ATOM     16  C   UNL     1       1.926  14.877  18.676  0.00  0.00    +0.000 A 
ATOM     17  C   UNL     1       0.617  15.335  18.619  0.00  0.00    +0.000 A 
ATOM     18 CL   UNL     1       0.305  17.025  18.556  0.00  0.00    +0.000 Cl
ATOM     19  C   UNL     1      -0.444  14.435  18.639  0.00  0.00    +0.000 A 
ATOM     20  C   UNL     1      -0.201  13.057  18.707  0.00  0.00    +0.000 A 
ATOM     21 CL   UNL     1      -1.612  12.054  18.801  0.00  0.00    +0.000 Cl
ENDBRANCH   6  14
BRANCH   1  22
ATOM     22  C   UNL     1       1.834   5.280  19.808  0.00  0.00    +0.000 C 
BRANCH  22  24
ATOM     23  C   UNL     1       1.313   4.070  17.567  0.00  0.00    +0.000 C 
ATOM     24  C   UNL     1       2.306   4.307  18.696  0.00  0.00    +0.000 C 
ENDBRANCH  22  24
BRANCH  22  25
ATOM     25  C   UNL     1       2.321   4.774  21.190  0.00  0.00    +0.000 C 
BRANCH  25  26
ATOM     26  O   UNL     1       2.609   3.378  21.187  0.00  0.00    +0.000 OA
ATOM     27  C   UNL     1       1.512   2.632  21.701  0.00  0.00    +0.000 C 
ENDBRANCH  25  26
ENDBRANCH  22  25
ENDBRANCH   1  22
TORSDOF 5
ENDMDL
MODEL 4
REMARK VINA RESULT:      -6.9      4.761      9.477
REMARK  Name = 
REMARK  8 active torsions:
REMARK  status: ('A' for Active; 'I' for Inactive)
REMARK    1  A    between atoms: C_1  and  C_2
REMARK    2  A    between atoms: C_2  and  C_3
REMARK    3  A    between atoms: C_3  and  C_4
REMARK    4  A    between atoms: C_3  and  N_7
REMARK    5  A    between atoms: C_4  and  O_5
REMARK    6  A    between atoms: O_5  and  C_6
REMARK    7  A    between atoms: C_12  and  C_13
REMARK    8  A    between atoms: C_23  and  C_24
REMARK                            x       y       z     vdW  Elec       q    Type
REMARK                         _______ _______ _______ _____ _____    ______ ____
ROOT
ATOM      1  N   UNL     1      -2.594  12.827  20.484  0.00  0.00    +0.000 N 
ATOM      2  C   UNL     1      -1.443  13.281  21.340  0.00  0.00    +0.000 C 
ATOM      3  C   UNL     1      -0.556  12.127  21.866  0.00  0.00    +0.000 C 
ATOM      4  N   UNL     1      -0.225  11.260  20.762  0.00  0.00    +0.000 N 
ATOM      5  N   UNL     1       0.847  10.466  20.697  0.00  0.00    +0.000 NA
ATOM      6  C   UNL     1       0.657   9.778  19.543  0.00  0.00    +0.000 A 
ATOM      7  C   UNL     1      -0.525  10.243  18.868  0.00  0.00    +0.000 A 
ATOM      8  N   UNL     1      -1.116   9.924  17.689  0.00  0.00    +0.000 NA
ATOM      9  C   UNL     1      -2.262  10.606  17.448  0.00  0.00    +0.000 A 
ATOM     10  C   UNL     1      -2.919  10.375  16.113  0.00  0.00    +0.000 C 
ATOM     11  C   UNL     1      -2.850  11.539  18.327  0.00  0.00    +0.000 A 
ATOM     12  C   UNL     1      -2.232  11.901  19.521  0.00  0.00    +0.000 A 
ATOM     13  C   UNL     1      -1.061  11.187  19.702  0.00  0.00    +0.000 A 
ENDROOT
BRANCH   6  14
ATOM     14  C   UNL     1       1.600   8.749  19.089  0.00  0.00    +0.000 A 
ATOM     15  C   UNL     1       2.237   8.927  17.843  0.00  0.00    +0.000 A 
ATOM     16  C   UNL     1       3.138   7.983  17.343  0.00  0.00    +0.000 A 
ATOM     17  C   UNL     1       3.431   6.852  18.094  0.00  0.00    +0.000 A 
ATOM     18 CL   UNL     1       4.541   5.687  17.487  0.00  0.00    +0.000 Cl
ATOM     19  C   UNL     1       2.812   6.646  19.323  0.00  0.00    +0.000 A 
ATOM     20  C   UNL     1       1.894   7.581  19.819  0.00  0.00    +0.000 A 
ATOM     21 CL   UNL     1       1.142   7.162  21.324  0.00  0.00    +0.000 Cl
ENDBRANCH   6  14
BRANCH   1  22
ATOM     22  C   UNL     1      -3.993  13.309  20.718  0.00  0.00    +0.000 C 
BRANCH  22  24
ATOM     23  C   UNL     1      -6.181  12.967  19.358  0.00  0.00    +0.000 C 
ATOM     24  C   UNL     1      -5.051  12.327  20.153  0.00  0.00    +0.000 C 
ENDBRANCH  22  24
BRANCH  22  25
ATOM     25  C   UNL     1      -4.314  13.633  22.200  0.00  0.00    +0.000 C 
BRANCH  25  26
ATOM     26  O   UNL     1      -4.709  12.477  22.936  0.00  0.00    +0.000 OA
ATOM     27  C   UNL     1      -5.675  12.811  23.925  0.00  0.00    +0.000 C 
ENDBRANCH  25  26
ENDBRANCH  22  25
ENDBRANCH   1  22
TORSDOF 5
ENDMDL
MODEL 5
REMARK VINA RESULT:      -6.9      3.269      4.774
REMARK  Name = 
REMARK  8 active torsions:
REMARK  status: ('A' for Active; 'I' for Inactive)
REMARK    1  A    between atoms: C_1  and  C_2
REMARK    2  A    between atoms: C_2  and  C_3
REMARK    3  A    between atoms: C_3  and  C_4
REMARK    4  A    between atoms: C_3  and  N_7
REMARK    5  A    between atoms: C_4  and  O_5
REMARK    6  A    between atoms: O_5  and  C_6
REMARK    7  A    between atoms: C_12  and  C_13
REMARK    8  A    between atoms: C_23  and  C_24
REMARK                            x       y       z     vdW  Elec       q    Type
REMARK                         _______ _______ _______ _____ _____    ______ ____
ROOT
ATOM      1  N   UNL     1       2.207   6.773  19.350  0.00  0.00    +0.000 N 
ATOM      2  C   UNL     1       3.185   7.174  18.278  0.00  0.00    +0.000 C 
ATOM      3  C   UNL     1       2.668   8.291  17.340  0.00  0.00    +0.000 C 
ATOM      4  N   UNL     1       2.135   9.360  18.147  0.00  0.00    +0.000 N 
ATOM      5  N   UNL     1       2.034  10.638  17.770  0.00  0.00    +0.000 NA
ATOM      6  C   UNL     1       1.376  11.219  18.804  0.00  0.00    +0.000 A 
ATOM      7  C   UNL     1       1.156  10.267  19.859  0.00  0.00    +0.000 A 
ATOM      8  N   UNL     1       0.598  10.349  21.093  0.00  0.00    +0.000 NA
ATOM      9  C   UNL     1       0.571   9.172  21.763  0.00  0.00    +0.000 A 
ATOM     10  C   UNL     1       0.055   9.209  23.178  0.00  0.00    +0.000 C 
ATOM     11  C   UNL     1       1.029   7.939  21.254  0.00  0.00    +0.000 A 
ATOM     12  C   UNL     1       1.638   7.850  20.005  0.00  0.00    +0.000 A 
ATOM     13  C   UNL     1       1.651   9.085  19.379  0.00  0.00    +0.000 A 
ENDROOT
BRANCH   6  14
ATOM     14  C   UNL     1       1.017  12.641  18.794  0.00  0.00    +0.000 A 
ATOM     15  C   UNL     1      -0.342  12.991  18.944  0.00  0.00    +0.000 A 
ATOM     16  C   UNL     1      -0.758  14.325  18.933  0.00  0.00    +0.000 A 
ATOM     17  C   UNL     1       0.185  15.334  18.790  0.00  0.00    +0.000 A 
ATOM     18 CL   UNL     1      -0.318  16.978  18.778  0.00  0.00    +0.000 Cl
ATOM     19  C   UNL     1       1.532  15.020  18.632  0.00  0.00    +0.000 A 
ATOM     20  C   UNL     1       1.950  13.683  18.623  0.00  0.00    +0.000 A 
ATOM     21 CL   UNL     1       3.642  13.433  18.341  0.00  0.00    +0.000 Cl
ENDBRANCH   6  14
BRANCH   1  22
ATOM     22  C   UNL     1       1.867   5.339  19.613  0.00  0.00    +0.000 C 
BRANCH  22  24
ATOM     23  C   UNL     1       2.661   3.448  18.017  0.00  0.00    +0.000 C 
ATOM     24  C   UNL     1       1.642   4.541  18.302  0.00  0.00    +0.000 C 
ENDBRANCH  22  24
BRANCH  22  25
ATOM     25  C   UNL     1       2.890   4.596  20.511  0.00  0.00    +0.000 C 
BRANCH  25  26
ATOM     26  O   UNL     1       2.306   4.121  21.722  0.00  0.00    +0.000 OA
ATOM     27  C   UNL     1       1.913   2.759  21.595  0.00  0.00    +0.000 C 
ENDBRANCH  25  26
ENDBRANCH  22  25
ENDBRANCH   1  22
TORSDOF 5
ENDMDL
MODEL 6
REMARK VINA RESULT:      -6.9      5.179      9.730
REMARK  Name = 
REMARK  8 active torsions:
REMARK  status: ('A' for Active; 'I' for Inactive)
REMARK    1  A    between atoms: C_1  and  C_2
REMARK    2  A    between atoms: C_2  and  C_3
REMARK    3  A    between atoms: C_3  and  C_4
REMARK    4  A    between atoms: C_3  and  N_7
REMARK    5  A    between atoms: C_4  and  O_5
REMARK    6  A    between atoms: O_5  and  C_6
REMARK    7  A    between atoms: C_12  and  C_13
REMARK    8  A    between atoms: C_23  and  C_24
REMARK                            x       y       z     vdW  Elec       q    Type
REMARK                         _______ _______ _______ _____ _____    ______ ____
ROOT
ATOM      1  N   UNL     1      -3.006  13.062  20.183  0.00  0.00    +0.000 N 
ATOM      2  C   UNL     1      -1.868  13.629  20.988  0.00  0.00    +0.000 C 
ATOM      3  C   UNL     1      -0.942  12.556  21.611  0.00  0.00    +0.000 C 
ATOM      4  N   UNL     1      -0.587  11.604  20.589  0.00  0.00    +0.000 N 
ATOM      5  N   UNL     1       0.510  10.842  20.589  0.00  0.00    +0.000 NA
ATOM      6  C   UNL     1       0.340  10.047  19.504  0.00  0.00    +0.000 A 
ATOM      7  C   UNL     1      -0.858  10.410  18.796  0.00  0.00    +0.000 A 
ATOM      8  N   UNL     1      -1.441   9.967  17.654  0.00  0.00    +0.000 NA
ATOM      9  C   UNL     1      -2.610  10.588  17.359  0.00  0.00    +0.000 A 
ATOM     10  C   UNL     1      -3.262  10.215  16.054  0.00  0.00    +0.000 C 
ATOM     11  C   UNL     1      -3.225  11.577  18.153  0.00  0.00    +0.000 A 
ATOM     12  C   UNL     1      -2.617  12.065  19.306  0.00  0.00    +0.000 A 
ATOM     13  C   UNL     1      -1.422  11.408  19.544  0.00  0.00    +0.000 A 
ENDROOT
BRANCH   6  14
ATOM     14  C   UNL     1       1.315   9.012  19.139  0.00  0.00    +0.000 A 
ATOM     15  C   UNL     1       1.957   9.107  17.887  0.00  0.00    +0.000 A 
ATOM     16  C   UNL     1       2.888   8.152  17.470  0.00  0.00    +0.000 A 
ATOM     17  C   UNL     1       3.206   7.094  18.311  0.00  0.00    +0.000 A 
ATOM     18 CL   UNL     1       4.352   5.916  17.806  0.00  0.00    +0.000 Cl
ATOM     19  C   UNL     1       2.583   6.969  19.549  0.00  0.00    +0.000 A 
ATOM     20  C   UNL     1       1.635   7.914  19.962  0.00  0.00    +0.000 A 
ATOM     21 CL   UNL     1       0.882   7.596  21.491  0.00  0.00    +0.000 Cl
ENDBRANCH   6  14
BRANCH   1  22
ATOM     22  C   UNL     1      -4.419  13.518  20.381  0.00  0.00    +0.000 C 
BRANCH  22  24
ATOM     23  C   UNL     1      -6.593  12.112  20.604  0.00  0.00    +0.000 C 
ATOM     24  C   UNL     1      -5.251  12.503  21.206  0.00  0.00    +0.000 C 
ENDBRANCH  22  24
BRANCH  22  25
ATOM     25  C   UNL     1      -4.550  14.933  21.002  0.00  0.00    +0.000 C 
BRANCH  25  26
ATOM     26  O   UNL     1      -5.193  15.854  20.124  0.00  0.00    +0.000 OA
ATOM     27  C   UNL     1      -4.958  17.196  20.537  0.00  0.00    +0.000 C 
ENDBRANCH  25  26
ENDBRANCH  22  25
ENDBRANCH   1  22
TORSDOF 5
ENDMDL
MODEL 7
REMARK VINA RESULT:      -6.8      4.260      9.124
REMARK  Name = 
REMARK  8 active torsions:
REMARK  status: ('A' for Active; 'I' for Inactive)
REMARK    1  A    between atoms: C_1  and  C_2
REMARK    2  A    between atoms: C_2  and  C_3
REMARK    3  A    between atoms: C_3  and  C_4
REMARK    4  A    between atoms: C_3  and  N_7
REMARK    5  A    between atoms: C_4  and  O_5
REMARK    6  A    between atoms: O_5  and  C_6
REMARK    7  A    between atoms: C_12  and  C_13
REMARK    8  A    between atoms: C_23  and  C_24
REMARK                            x       y       z     vdW  Elec       q    Type
REMARK                         _______ _______ _______ _____ _____    ______ ____
ROOT
ATOM      1  N   UNL     1      -0.896  11.580  22.115  0.00  0.00    +0.000 N 
ATOM      2  C   UNL     1      -0.670  10.547  23.186  0.00  0.00    +0.000 C 
ATOM      3  C   UNL     1      -0.623   9.093  22.658  0.00  0.00    +0.000 C 
ATOM      4  N   UNL     1       0.268   9.041  21.526  0.00  0.00    +0.000 N 
ATOM      5  N   UNL     1       0.920   7.955  21.104  0.00  0.00    +0.000 NA
ATOM      6  C   UNL     1       1.523   8.375  19.964  0.00  0.00    +0.000 A 
ATOM      7  C   UNL     1       1.283   9.777  19.754  0.00  0.00    +0.000 A 
ATOM      8  N   UNL     1       1.688  10.665  18.812  0.00  0.00    +0.000 NA
ATOM      9  C   UNL     1       1.191  11.914  18.986  0.00  0.00    +0.000 A 
ATOM     10  C   UNL     1       1.677  12.975  18.034  0.00  0.00    +0.000 C 
ATOM     11  C   UNL     1       0.298  12.296  20.008  0.00  0.00    +0.000 A 
ATOM     12  C   UNL     1      -0.094  11.402  21.001  0.00  0.00    +0.000 A 
ATOM     13  C   UNL     1       0.459  10.153  20.781  0.00  0.00    +0.000 A 
ENDROOT
BRANCH   6  14
ATOM     14  C   UNL     1       2.334   7.473  19.138  0.00  0.00    +0.000 A 
ATOM     15  C   UNL     1       2.980   8.004  18.001  0.00  0.00    +0.000 A 
ATOM     16  C   UNL     1       3.759   7.202  17.163  0.00  0.00    +0.000 A 
ATOM     17  C   UNL     1       3.920   5.855  17.462  0.00  0.00    +0.000 A 
ATOM     18 CL   UNL     1       4.879   4.862  16.437  0.00  0.00    +0.000 Cl
ATOM     19  C   UNL     1       3.289   5.301  18.571  0.00  0.00    +0.000 A 
ATOM     20  C   UNL     1       2.492   6.098  19.403  0.00  0.00    +0.000 A 
ATOM     21 CL   UNL     1       1.705   5.265  20.704  0.00  0.00    +0.000 Cl
ENDBRANCH   6  14
BRANCH   1  22
ATOM     22  C   UNL     1      -1.937  12.648  22.253  0.00  0.00    +0.000 C 
BRANCH  22  24
ATOM     23  C   UNL     1      -4.222  13.223  23.348  0.00  0.00    +0.000 C 
ATOM     24  C   UNL     1      -3.069  12.237  23.229  0.00  0.00    +0.000 C 
ENDBRANCH  22  24
BRANCH  22  25
ATOM     25  C   UNL     1      -1.375  14.036  22.654  0.00  0.00    +0.000 C 
BRANCH  25  26
ATOM     26  O   UNL     1      -0.823  14.040  23.968  0.00  0.00    +0.000 OA
ATOM     27  C   UNL     1      -1.274  15.170  24.705  0.00  0.00    +0.000 C 
ENDBRANCH  25  26
ENDBRANCH  22  25
ENDBRANCH   1  22
TORSDOF 5
ENDMDL
MODEL 8
REMARK VINA RESULT:      -6.8      1.018      1.992
REMARK  Name = 
REMARK  8 active torsions:
REMARK  status: ('A' for Active; 'I' for Inactive)
REMARK    1  A    between atoms: C_1  and  C_2
REMARK    2  A    between atoms: C_2  and  C_3
REMARK    3  A    between atoms: C_3  and  C_4
REMARK    4  A    between atoms: C_3  and  N_7
REMARK    5  A    between atoms: C_4  and  O_5
REMARK    6  A    between atoms: O_5  and  C_6
REMARK    7  A    between atoms: C_12  and  C_13
REMARK    8  A    between atoms: C_23  and  C_24
REMARK                            x       y       z     vdW  Elec       q    Type
REMARK                         _______ _______ _______ _____ _____    ______ ____
ROOT
ATOM      1  N   UNL     1       4.148   5.332  17.426  0.00  0.00    +0.000 N 
ATOM      2  C   UNL     1       4.686   6.657  16.960  0.00  0.00    +0.000 C 
ATOM      3  C   UNL     1       3.624   7.782  16.898  0.00  0.00    +0.000 C 
ATOM      4  N   UNL     1       2.893   7.794  18.140  0.00  0.00    +0.000 N 
ATOM      5  N   UNL     1       2.256   8.850  18.652  0.00  0.00    +0.000 NA
ATOM      6  C   UNL     1       1.636   8.342  19.746  0.00  0.00    +0.000 A 
ATOM      7  C   UNL     1       1.988   6.960  19.928  0.00  0.00    +0.000 A 
ATOM      8  N   UNL     1       1.682   6.031  20.869  0.00  0.00    +0.000 NA
ATOM      9  C   UNL     1       2.222   4.811  20.632  0.00  0.00    +0.000 A 
ATOM     10  C   UNL     1       2.005   3.759  21.687  0.00  0.00    +0.000 C 
ATOM     11  C   UNL     1       3.001   4.474  19.506  0.00  0.00    +0.000 A 
ATOM     12  C   UNL     1       3.353   5.428  18.555  0.00  0.00    +0.000 A 
ATOM     13  C   UNL     1       2.788   6.654  18.860  0.00  0.00    +0.000 A 
ENDROOT
BRANCH   6  14
ATOM     14  C   UNL     1       0.778   9.167  20.605  0.00  0.00    +0.000 A 
ATOM     15  C   UNL     1       0.923   9.054  22.004  0.00  0.00    +0.000 A 
ATOM     16  C   UNL     1       0.133   9.800  22.882  0.00  0.00    +0.000 A 
ATOM     17  C   UNL     1      -0.805  10.688  22.372  0.00  0.00    +0.000 A 
ATOM     18 CL   UNL     1      -1.779  11.612  23.446  0.00  0.00    +0.000 Cl
ATOM     19  C   UNL     1      -0.977  10.815  20.996  0.00  0.00    +0.000 A 
ATOM     20  C   UNL     1      -0.199  10.054  20.113  0.00  0.00    +0.000 A 
ATOM     21 CL   UNL     1      -0.569  10.255  18.432  0.00  0.00    +0.000 Cl
ENDBRANCH   6  14
BRANCH   1  22
ATOM     22  C   UNL     1       4.421   4.061  16.683  0.00  0.00    +0.000 C 
BRANCH  22  24
ATOM     23  C   UNL     1       6.230   4.053  14.817  0.00  0.00    +0.000 C 
ATOM     24  C   UNL     1       5.917   3.918  16.300  0.00  0.00    +0.000 C 
ENDBRANCH  22  24
BRANCH  22  25
ATOM     25  C   UNL     1       3.942   2.780  17.415  0.00  0.00    +0.000 C 
BRANCH  25  26
ATOM     26  O   UNL     1       2.589   2.451  17.104  0.00  0.00    +0.000 OA
ATOM     27  C   UNL     1       1.947   1.843  18.219  0.00  0.00    +0.000 C 
ENDBRANCH  25  26
ENDBRANCH  22  25
ENDBRANCH   1  22
TORSDOF 5
ENDMDL
MODEL 9
REMARK VINA RESULT:      -6.8      5.222      9.969
REMARK  Name = 
REMARK  8 active torsions:
REMARK  status: ('A' for Active; 'I' for Inactive)
REMARK    1  A    between atoms: C_1  and  C_2
REMARK    2  A    between atoms: C_2  and  C_3
REMARK    3  A    between atoms: C_3  and  C_4
REMARK    4  A    between atoms: C_3  and  N_7
REMARK    5  A    between atoms: C_4  and  O_5
REMARK    6  A    between atoms: O_5  and  C_6
REMARK    7  A    between atoms: C_12  and  C_13
REMARK    8  A    between atoms: C_23  and  C_24
REMARK                            x       y       z     vdW  Elec       q    Type
REMARK                         _______ _______ _______ _____ _____    ______ ____
ROOT
ATOM      1  N   UNL     1      -2.743  13.744  21.313  0.00  0.00    +0.000 N 
ATOM      2  C   UNL     1      -1.447  14.258  21.881  0.00  0.00    +0.000 C 
ATOM      3  C   UNL     1      -0.469  13.144  22.327  0.00  0.00    +0.000 C 
ATOM      4  N   UNL     1      -0.358  12.176  21.264  0.00  0.00    +0.000 N 
ATOM      5  N   UNL     1       0.684  11.365  21.062  0.00  0.00    +0.000 NA
ATOM      6  C   UNL     1       0.274  10.578  20.036  0.00  0.00    +0.000 A 
ATOM      7  C   UNL     1      -1.020  10.996  19.566  0.00  0.00    +0.000 A 
ATOM      8  N   UNL     1      -1.829  10.580  18.561  0.00  0.00    +0.000 NA
ATOM      9  C   UNL     1      -3.003  11.254  18.488  0.00  0.00    +0.000 A 
ATOM     10  C   UNL     1      -3.909  10.911  17.334  0.00  0.00    +0.000 C 
ATOM     11  C   UNL     1      -3.411  12.270  19.376  0.00  0.00    +0.000 A 
ATOM     12  C   UNL     1      -2.573  12.731  20.387  0.00  0.00    +0.000 A 
ATOM     13  C   UNL     1      -1.385  12.019  20.399  0.00  0.00    +0.000 A 
ENDROOT
BRANCH   6  14
ATOM     14  C   UNL     1       1.114   9.500  19.502  0.00  0.00    +0.000 A 
ATOM     15  C   UNL     1       1.599   9.619  18.183  0.00  0.00    +0.000 A 
ATOM     16  C   UNL     1       2.395   8.626  17.606  0.00  0.00    +0.000 A 
ATOM     17  C   UNL     1       2.734   7.503  18.350  0.00  0.00    +0.000 A 
ATOM     18 CL   UNL     1       3.715   6.278  17.648  0.00  0.00    +0.000 Cl
ATOM     19  C   UNL     1       2.264   7.354  19.651  0.00  0.00    +0.000 A 
ATOM     20  C   UNL     1       1.450   8.339  20.226  0.00  0.00    +0.000 A 
ATOM     21 CL   UNL     1       0.873   7.990  21.823  0.00  0.00    +0.000 Cl
ENDBRANCH   6  14
BRANCH   1  22
ATOM     22  C   UNL     1      -4.070  14.265  21.772  0.00  0.00    +0.000 C 
BRANCH  22  24
ATOM     23  C   UNL     1      -4.117  12.691  23.840  0.00  0.00    +0.000 C 
ATOM     24  C   UNL     1      -4.847  13.221  22.614  0.00  0.00    +0.000 C 
ENDBRANCH  22  24
BRANCH  22  25
ATOM     25  C   UNL     1      -3.994  15.609  22.541  0.00  0.00    +0.000 C 
BRANCH  25  26
ATOM     26  O   UNL     1      -3.974  16.735  21.666  0.00  0.00    +0.000 OA
ATOM     27  C   UNL     1      -3.010  17.691  22.092  0.00  0.00    +0.000 C 
ENDBRANCH  25  26
ENDBRANCH  22  25
ENDBRANCH   1  22
TORSDOF 5
ENDMDL
