MODEL 1
REMARK VINA RESULT:      -8.2      0.000      0.000
REMARK  Name = 
REMARK  2 active torsions:
REMARK  status: ('A' for Active; 'I' for Inactive)
REMARK    1  A    between atoms: N_10  and  C_11
REMARK    2  A    between atoms: C_11  and  C_12
REMARK                            x       y       z     vdW  Elec       q    Type
REMARK                         _______ _______ _______ _____ _____    ______ ____
ROOT
ATOM      1  O   UNL     1       8.352   4.007  17.055  0.00  0.00    +0.000 OA
ATOM      2  C   UNL     1       7.285   4.435  17.459  0.00  0.00    +0.000 C 
ATOM      3  C   UNL     1       6.008   4.464  16.674  0.00  0.00    +0.000 C 
ATOM      4  C   UNL     1       4.947   4.962  17.686  0.00  0.00    +0.000 C 
ATOM      5  C   UNL     1       5.783   5.314  18.905  0.00  0.00    +0.000 C 
ATOM      6  O   UNL     1       5.380   5.828  19.935  0.00  0.00    +0.000 OA
ATOM      7  N   UNL     1       7.071   4.946  18.692  0.00  0.00    +0.000 N 
ATOM      8  C   UNL     1       4.312   6.257  17.186  0.00  0.00    +0.000 C 
ATOM      9  O   UNL     1       4.927   7.024  16.440  0.00  0.00    +0.000 OA
ATOM     10  N   UNL     1       3.038   6.546  17.644  0.00  0.00    +0.000 N 
ATOM     11  C   UNL     1       2.082   5.539  17.699  0.00  0.00    +0.000 C 
ATOM     12  O   UNL     1       0.894   5.711  17.435  0.00  0.00    +0.000 OA
ATOM     13  C   UNL     1       2.566   4.170  18.018  0.00  0.00    +0.000 A 
ATOM     14  C   UNL     1       1.630   3.169  18.326  0.00  0.00    +0.000 A 
ATOM     15  C   UNL     1       2.055   1.890  18.686  0.00  0.00    +0.000 A 
ATOM     16  C   UNL     1       3.414   1.601  18.736  0.00  0.00    +0.000 A 
ATOM     17  C   UNL     1       4.347   2.586  18.414  0.00  0.00    +0.000 A 
ATOM     18  C   UNL     1       3.936   3.883  18.038  0.00  0.00    +0.000 A 
ATOM     19  H   UNL     1       7.800   5.060  19.380  0.00  0.00    +0.000 HD
ENDROOT
BRANCH  10  20
ATOM     20  C   UNL     1       2.573   7.915  17.417  0.00  0.00    +0.000 C 
BRANCH  20  21
ATOM     21  C   UNL     1       1.928   8.506  18.641  0.00  0.00    +0.000 A 
ATOM     22  N   UNL     1       2.027   8.015  19.861  0.00  0.00    +0.000 NA
ATOM     23  C   UNL     1       1.230   8.745  20.728  0.00  0.00    +0.000 A 
ATOM     24  C   UNL     1       1.004   8.450  22.087  0.00  0.00    +0.000 A 
ATOM     25  C   UNL     1       0.113   9.231  22.830  0.00  0.00    +0.000 A 
ATOM     26  C   UNL     1      -0.510  10.332  22.251  0.00  0.00    +0.000 A 
ATOM     27  C   UNL     1      -0.263  10.677  20.918  0.00  0.00    +0.000 A 
ATOM     28  C   UNL     1       0.591   9.851  20.167  0.00  0.00    +0.000 A 
ATOM     29  S   UNL     1       1.017   9.958  18.504  0.00  0.00    +0.000 S 
ENDBRANCH  20  21
ENDBRANCH  10  20
TORSDOF 2
ENDMDL
MODEL 2
REMARK VINA RESULT:      -8.0      0.773      1.184
REMARK  Name = 
REMARK  2 active torsions:
REMARK  status: ('A' for Active; 'I' for Inactive)
REMARK    1  A    between atoms: N_10  and  C_11
REMARK    2  A    between atoms: C_11  and  C_12
REMARK                            x       y       z     vdW  Elec       q    Type
REMARK                         _______ _______ _______ _____ _____    ______ ____
ROOT
ATOM      1  O   UNL     1       8.332   4.067  16.955  0.00  0.00    +0.000 OA
ATOM      2  C   UNL     1       7.276   4.486  17.397  0.00  0.00    +0.000 C 
ATOM      3  C   UNL     1       6.003   4.625  16.616  0.00  0.00    +0.000 C 
ATOM      4  C   UNL     1       4.953   5.056  17.670  0.00  0.00    +0.000 C 
ATOM      5  C   UNL     1       5.795   5.269  18.917  0.00  0.00    +0.000 C 
ATOM      6  O   UNL     1       5.403   5.697  19.990  0.00  0.00    +0.000 OA
ATOM      7  N   UNL     1       7.073   4.886  18.672  0.00  0.00    +0.000 N 
ATOM      8  C   UNL     1       4.357   6.410  17.292  0.00  0.00    +0.000 C 
ATOM      9  O   UNL     1       4.996   7.224  16.621  0.00  0.00    +0.000 OA
ATOM     10  N   UNL     1       3.090   6.692  17.774  0.00  0.00    +0.000 N 
ATOM     11  C   UNL     1       2.106   5.712  17.734  0.00  0.00    +0.000 C 
ATOM     12  O   UNL     1       0.924   5.941  17.487  0.00  0.00    +0.000 OA
ATOM     13  C   UNL     1       2.550   4.305  17.926  0.00  0.00    +0.000 A 
ATOM     14  C   UNL     1       1.584   3.308  18.139  0.00  0.00    +0.000 A 
ATOM     15  C   UNL     1       1.972   1.989  18.378  0.00  0.00    +0.000 A 
ATOM     16  C   UNL     1       3.321   1.658  18.402  0.00  0.00    +0.000 A 
ATOM     17  C   UNL     1       4.284   2.641  18.173  0.00  0.00    +0.000 A 
ATOM     18  C   UNL     1       3.911   3.979  17.919  0.00  0.00    +0.000 A 
ATOM     19  H   UNL     1       7.802   4.915  19.368  0.00  0.00    +0.000 HD
ENDROOT
BRANCH  10  20
ATOM     20  C   UNL     1       2.665   8.088  17.675  0.00  0.00    +0.000 C 
BRANCH  20  21
ATOM     21  C   UNL     1       1.863   8.524  18.871  0.00  0.00    +0.000 A 
ATOM     22  N   UNL     1       1.002   9.522  18.882  0.00  0.00    +0.000 NA
ATOM     23  C   UNL     1       0.519   9.712  20.167  0.00  0.00    +0.000 A 
ATOM     24  C   UNL     1      -0.339  10.750  20.581  0.00  0.00    +0.000 A 
ATOM     25  C   UNL     1      -0.689  10.868  21.929  0.00  0.00    +0.000 A 
ATOM     26  C   UNL     1      -0.241   9.933  22.858  0.00  0.00    +0.000 A 
ATOM     27  C   UNL     1       0.569   8.864  22.464  0.00  0.00    +0.000 A 
ATOM     28  C   UNL     1       0.959   8.789  21.116  0.00  0.00    +0.000 A 
ATOM     29  S   UNL     1       2.008   7.660  20.351  0.00  0.00    +0.000 S 
ENDBRANCH  20  21
ENDBRANCH  10  20
TORSDOF 2
ENDMDL
MODEL 3
REMARK VINA RESULT:      -7.3      2.871      7.555
REMARK  Name = 
REMARK  2 active torsions:
REMARK  status: ('A' for Active; 'I' for Inactive)
REMARK    1  A    between atoms: N_10  and  C_11
REMARK    2  A    between atoms: C_11  and  C_12
REMARK                            x       y       z     vdW  Elec       q    Type
REMARK                         _______ _______ _______ _____ _____    ______ ____
ROOT
ATOM      1  O   UNL     1      -0.322  14.276  18.418  0.00  0.00    +0.000 OA
ATOM      2  C   UNL     1      -0.158  13.070  18.482  0.00  0.00    +0.000 C 
ATOM      3  C   UNL     1       0.982  12.385  19.175  0.00  0.00    +0.000 C 
ATOM      4  C   UNL     1       0.635  10.878  19.084  0.00  0.00    +0.000 C 
ATOM      5  C   UNL     1      -0.600  10.869  18.199  0.00  0.00    +0.000 C 
ATOM      6  O   UNL     1      -1.184   9.883  17.782  0.00  0.00    +0.000 OA
ATOM      7  N   UNL     1      -0.987  12.145  17.948  0.00  0.00    +0.000 N 
ATOM      8  C   UNL     1       1.735  10.132  18.330  0.00  0.00    +0.000 C 
ATOM      9  O   UNL     1       2.434  10.704  17.490  0.00  0.00    +0.000 OA
ATOM     10  N   UNL     1       1.876   8.783  18.605  0.00  0.00    +0.000 N 
ATOM     11  C   UNL     1       1.817   8.339  19.921  0.00  0.00    +0.000 C 
ATOM     12  O   UNL     1       2.519   7.435  20.368  0.00  0.00    +0.000 OA
ATOM     13  C   UNL     1       0.903   9.072  20.836  0.00  0.00    +0.000 A 
ATOM     14  C   UNL     1       0.618   8.525  22.098  0.00  0.00    +0.000 A 
ATOM     15  C   UNL     1      -0.280   9.159  22.957  0.00  0.00    +0.000 A 
ATOM     16  C   UNL     1      -0.895  10.342  22.565  0.00  0.00    +0.000 A 
ATOM     17  C   UNL     1      -0.602  10.899  21.320  0.00  0.00    +0.000 A 
ATOM     18  C   UNL     1       0.312  10.278  20.442  0.00  0.00    +0.000 A 
ATOM     19  H   UNL     1      -1.802  12.378  17.402  0.00  0.00    +0.000 HD
ENDROOT
BRANCH  10  20
ATOM     20  C   UNL     1       2.702   8.024  17.667  0.00  0.00    +0.000 C 
BRANCH  20  21
ATOM     21  C   UNL     1       2.685   6.548  17.960  0.00  0.00    +0.000 A 
ATOM     22  N   UNL     1       1.615   5.780  17.914  0.00  0.00    +0.000 NA
ATOM     23  C   UNL     1       1.936   4.500  18.339  0.00  0.00    +0.000 A 
ATOM     24  C   UNL     1       1.028   3.439  18.520  0.00  0.00    +0.000 A 
ATOM     25  C   UNL     1       1.478   2.216  19.028  0.00  0.00    +0.000 A 
ATOM     26  C   UNL     1       2.828   2.022  19.304  0.00  0.00    +0.000 A 
ATOM     27  C   UNL     1       3.759   3.043  19.084  0.00  0.00    +0.000 A 
ATOM     28  C   UNL     1       3.285   4.284  18.626  0.00  0.00    +0.000 A 
ATOM     29  S   UNL     1       4.155   5.742  18.348  0.00  0.00    +0.000 S 
ENDBRANCH  20  21
ENDBRANCH  10  20
TORSDOF 2
ENDMDL
MODEL 4
REMARK VINA RESULT:      -7.3      3.624      8.674
REMARK  Name = 
REMARK  2 active torsions:
REMARK  status: ('A' for Active; 'I' for Inactive)
REMARK    1  A    between atoms: N_10  and  C_11
REMARK    2  A    between atoms: C_11  and  C_12
REMARK                            x       y       z     vdW  Elec       q    Type
REMARK                         _______ _______ _______ _____ _____    ______ ____
ROOT
ATOM      1  O   UNL     1      -2.832  12.231  23.083  0.00  0.00    +0.000 OA
ATOM      2  C   UNL     1      -1.867  11.881  22.427  0.00  0.00    +0.000 C 
ATOM      3  C   UNL     1      -1.540  12.354  21.042  0.00  0.00    +0.000 C 
ATOM      4  C   UNL     1      -0.158  11.724  20.737  0.00  0.00    +0.000 C 
ATOM      5  C   UNL     1       0.073  10.823  21.939  0.00  0.00    +0.000 C 
ATOM      6  O   UNL     1       1.009  10.057  22.099  0.00  0.00    +0.000 OA
ATOM      7  N   UNL     1      -0.919  11.012  22.845  0.00  0.00    +0.000 N 
ATOM      8  C   UNL     1      -0.254  10.821  19.510  0.00  0.00    +0.000 C 
ATOM      9  O   UNL     1      -1.315  10.273  19.201  0.00  0.00    +0.000 OA
ATOM     10  N   UNL     1       0.912  10.615  18.793  0.00  0.00    +0.000 N 
ATOM     11  C   UNL     1       1.756  11.688  18.529  0.00  0.00    +0.000 C 
ATOM     12  O   UNL     1       2.369  11.830  17.474  0.00  0.00    +0.000 OA
ATOM     13  C   UNL     1       1.838  12.749  19.568  0.00  0.00    +0.000 A 
ATOM     14  C   UNL     1       2.845  13.722  19.470  0.00  0.00    +0.000 A 
ATOM     15  C   UNL     1       2.985  14.697  20.459  0.00  0.00    +0.000 A 
ATOM     16  C   UNL     1       2.119  14.708  21.546  0.00  0.00    +0.000 A 
ATOM     17  C   UNL     1       1.105  13.754  21.639  0.00  0.00    +0.000 A 
ATOM     18  C   UNL     1       0.942  12.767  20.643  0.00  0.00    +0.000 A 
ATOM     19  H   UNL     1      -0.954  10.537  23.734  0.00  0.00    +0.000 HD
ENDROOT
BRANCH  10  20
ATOM     20  C   UNL     1       0.882   9.519  17.825  0.00  0.00    +0.000 C 
BRANCH  20  21
ATOM     21  C   UNL     1       1.928   8.477  18.114  0.00  0.00    +0.000 A 
ATOM     22  N   UNL     1       2.969   8.216  17.347  0.00  0.00    +0.000 NA
ATOM     23  C   UNL     1       3.669   7.135  17.857  0.00  0.00    +0.000 A 
ATOM     24  C   UNL     1       4.776   6.508  17.250  0.00  0.00    +0.000 A 
ATOM     25  C   UNL     1       5.343   5.374  17.839  0.00  0.00    +0.000 A 
ATOM     26  C   UNL     1       4.857   4.891  19.050  0.00  0.00    +0.000 A 
ATOM     27  C   UNL     1       3.793   5.526  19.700  0.00  0.00    +0.000 A 
ATOM     28  C   UNL     1       3.196   6.631  19.069  0.00  0.00    +0.000 A 
ATOM     29  S   UNL     1       1.833   7.557  19.564  0.00  0.00    +0.000 S 
ENDBRANCH  20  21
ENDBRANCH  10  20
TORSDOF 2
ENDMDL
MODEL 5
REMARK VINA RESULT:      -7.1      5.690      9.658
REMARK  Name = 
REMARK  2 active torsions:
REMARK  status: ('A' for Active; 'I' for Inactive)
REMARK    1  A    between atoms: N_10  and  C_11
REMARK    2  A    between atoms: C_11  and  C_12
REMARK                            x       y       z     vdW  Elec       q    Type
REMARK                         _______ _______ _______ _____ _____    ______ ____
ROOT
ATOM      1  O   UNL     1       5.997  16.224  20.156  0.00  0.00    +0.000 OA
ATOM      2  C   UNL     1       4.927  15.698  19.903  0.00  0.00    +0.000 C 
ATOM      3  C   UNL     1       3.630  15.992  20.597  0.00  0.00    +0.000 C 
ATOM      4  C   UNL     1       2.578  15.174  19.805  0.00  0.00    +0.000 C 
ATOM      5  C   UNL     1       3.433  14.374  18.837  0.00  0.00    +0.000 C 
ATOM      6  O   UNL     1       3.039  13.520  18.060  0.00  0.00    +0.000 OA
ATOM      7  N   UNL     1       4.727  14.767  18.944  0.00  0.00    +0.000 N 
ATOM      8  C   UNL     1       1.888  14.175  20.730  0.00  0.00    +0.000 C 
ATOM      9  O   UNL     1       2.459  13.730  21.730  0.00  0.00    +0.000 OA
ATOM     10  N   UNL     1       0.618  13.763  20.368  0.00  0.00    +0.000 N 
ATOM     11  C   UNL     1      -0.303  14.696  19.907  0.00  0.00    +0.000 C 
ATOM     12  O   UNL     1      -1.502  14.661  20.173  0.00  0.00    +0.000 OA
ATOM     13  C   UNL     1       0.234  15.835  19.117  0.00  0.00    +0.000 A 
ATOM     14  C   UNL     1      -0.660  16.667  18.424  0.00  0.00    +0.000 A 
ATOM     15  C   UNL     1      -0.183  17.709  17.627  0.00  0.00    +0.000 A 
ATOM     16  C   UNL     1       1.185  17.929  17.522  0.00  0.00    +0.000 A 
ATOM     17  C   UNL     1       2.077  17.117  18.222  0.00  0.00    +0.000 A 
ATOM     18  C   UNL     1       1.613  16.065  19.040  0.00  0.00    +0.000 A 
ATOM     19  H   UNL     1       5.469  14.388  18.375  0.00  0.00    +0.000 HD
ENDROOT
BRANCH  10  20
ATOM     20  C   UNL     1       0.102  12.589  21.073  0.00  0.00    +0.000 C 
BRANCH  20  21
ATOM     21  C   UNL     1       0.542  11.302  20.431  0.00  0.00    +0.000 A 
ATOM     22  N   UNL     1       0.774  10.175  21.074  0.00  0.00    +0.000 NA
ATOM     23  C   UNL     1       1.259   9.222  20.194  0.00  0.00    +0.000 A 
ATOM     24  C   UNL     1       1.713   7.933  20.540  0.00  0.00    +0.000 A 
ATOM     25  C   UNL     1       2.249   7.097  19.556  0.00  0.00    +0.000 A 
ATOM     26  C   UNL     1       2.288   7.506  18.227  0.00  0.00    +0.000 A 
ATOM     27  C   UNL     1       1.797   8.760  17.849  0.00  0.00    +0.000 A 
ATOM     28  C   UNL     1       1.311   9.612  18.855  0.00  0.00    +0.000 A 
ATOM     29  S   UNL     1       0.730  11.226  18.722  0.00  0.00    +0.000 S 
ENDBRANCH  20  21
ENDBRANCH  10  20
TORSDOF 2
ENDMDL
MODEL 6
REMARK VINA RESULT:      -7.1      5.842      9.278
REMARK  Name = 
REMARK  2 active torsions:
REMARK  status: ('A' for Active; 'I' for Inactive)
REMARK    1  A    between atoms: N_10  and  C_11
REMARK    2  A    between atoms: C_11  and  C_12
REMARK                            x       y       z     vdW  Elec       q    Type
REMARK                         _______ _______ _______ _____ _____    ______ ____
ROOT
ATOM      1  O   UNL     1       1.310   9.088  17.508  0.00  0.00    +0.000 OA
ATOM      2  C   UNL     1       0.692   9.873  18.205  0.00  0.00    +0.000 C 
ATOM      3  C   UNL     1       1.184  10.468  19.491  0.00  0.00    +0.000 C 
ATOM      4  C   UNL     1       0.089  11.491  19.884  0.00  0.00    +0.000 C 
ATOM      5  C   UNL     1      -0.992  11.244  18.844  0.00  0.00    +0.000 C 
ATOM      6  O   UNL     1      -2.091  11.770  18.805  0.00  0.00    +0.000 OA
ATOM      7  N   UNL     1      -0.543  10.349  17.928  0.00  0.00    +0.000 N 
ATOM      8  C   UNL     1      -0.503  11.129  21.244  0.00  0.00    +0.000 C 
ATOM      9  O   UNL     1      -0.509   9.963  21.647  0.00  0.00    +0.000 OA
ATOM     10  N   UNL     1      -1.066  12.160  21.975  0.00  0.00    +0.000 N 
ATOM     11  C   UNL     1      -0.414  13.385  22.051  0.00  0.00    +0.000 C 
ATOM     12  O   UNL     1      -0.386  14.081  23.064  0.00  0.00    +0.000 OA
ATOM     13  C   UNL     1       0.352  13.814  20.852  0.00  0.00    +0.000 A 
ATOM     14  C   UNL     1       0.823  15.136  20.779  0.00  0.00    +0.000 A 
ATOM     15  C   UNL     1       1.496  15.585  19.642  0.00  0.00    +0.000 A 
ATOM     16  C   UNL     1       1.706  14.719  18.576  0.00  0.00    +0.000 A 
ATOM     17  C   UNL     1       1.256  13.401  18.649  0.00  0.00    +0.000 A 
ATOM     18  C   UNL     1       0.583  12.925  19.795  0.00  0.00    +0.000 A 
ATOM     19  H   UNL     1      -1.085  10.056  17.130  0.00  0.00    +0.000 HD
ENDROOT
BRANCH  10  20
ATOM     20  C   UNL     1      -1.897  11.759  23.110  0.00  0.00    +0.000 C 
BRANCH  20  21
ATOM     21  C   UNL     1      -3.307  12.270  22.991  0.00  0.00    +0.000 A 
ATOM     22  N   UNL     1      -4.202  12.256  23.959  0.00  0.00    +0.000 NA
ATOM     23  C   UNL     1      -5.421  12.706  23.480  0.00  0.00    +0.000 A 
ATOM     24  C   UNL     1      -6.632  12.732  24.199  0.00  0.00    +0.000 A 
ATOM     25  C   UNL     1      -7.809  13.143  23.566  0.00  0.00    +0.000 A 
ATOM     26  C   UNL     1      -7.784  13.579  22.245  0.00  0.00    +0.000 A 
ATOM     27  C   UNL     1      -6.585  13.613  21.524  0.00  0.00    +0.000 A 
ATOM     28  C   UNL     1      -5.420  13.145  22.155  0.00  0.00    +0.000 A 
ATOM     29  S   UNL     1      -3.832  12.978  21.514  0.00  0.00    +0.000 S 
ENDBRANCH  20  21
ENDBRANCH  10  20
TORSDOF 2
ENDMDL
MODEL 7
REMARK VINA RESULT:      -7.1      6.052      9.477
REMARK  Name = 
REMARK  2 active torsions:
REMARK  status: ('A' for Active; 'I' for Inactive)
REMARK    1  A    between atoms: N_10  and  C_11
REMARK    2  A    between atoms: C_11  and  C_12
REMARK                            x       y       z     vdW  Elec       q    Type
REMARK                         _______ _______ _______ _____ _____    ______ ____
ROOT
ATOM      1  O   UNL     1       1.243   9.238  17.652  0.00  0.00    +0.000 OA
ATOM      2  C   UNL     1       0.617  10.010  18.356  0.00  0.00    +0.000 C 
ATOM      3  C   UNL     1       1.107  10.604  19.643  0.00  0.00    +0.000 C 
ATOM      4  C   UNL     1      -0.000  11.610  20.046  0.00  0.00    +0.000 C 
ATOM      5  C   UNL     1      -1.082  11.354  19.010  0.00  0.00    +0.000 C 
ATOM      6  O   UNL     1      -2.189  11.866  18.978  0.00  0.00    +0.000 OA
ATOM      7  N   UNL     1      -0.625  10.472  18.087  0.00  0.00    +0.000 N 
ATOM      8  C   UNL     1      -0.581  11.232  21.407  0.00  0.00    +0.000 C 
ATOM      9  O   UNL     1      -0.570  10.064  21.803  0.00  0.00    +0.000 OA
ATOM     10  N   UNL     1      -1.155  12.252  22.146  0.00  0.00    +0.000 N 
ATOM     11  C   UNL     1      -0.519  13.485  22.227  0.00  0.00    +0.000 C 
ATOM     12  O   UNL     1      -0.497  14.175  23.244  0.00  0.00    +0.000 OA
ATOM     13  C   UNL     1       0.236  13.931  21.027  0.00  0.00    +0.000 A 
ATOM     14  C   UNL     1       0.689  15.259  20.960  0.00  0.00    +0.000 A 
ATOM     15  C   UNL     1       1.351  15.724  19.823  0.00  0.00    +0.000 A 
ATOM     16  C   UNL     1       1.568  14.867  18.751  0.00  0.00    +0.000 A 
ATOM     17  C   UNL     1       1.136  13.543  18.819  0.00  0.00    +0.000 A 
ATOM     18  C   UNL     1       0.474  13.051  19.964  0.00  0.00    +0.000 A 
ATOM     19  H   UNL     1      -1.167  10.176  17.289  0.00  0.00    +0.000 HD
ENDROOT
BRANCH  10  20
ATOM     20  C   UNL     1      -1.976  11.833  23.282  0.00  0.00    +0.000 C 
BRANCH  20  21
ATOM     21  C   UNL     1      -3.404  12.285  23.149  0.00  0.00    +0.000 A 
ATOM     22  N   UNL     1      -4.060  12.397  22.011  0.00  0.00    +0.000 NA
ATOM     23  C   UNL     1      -5.316  12.934  22.242  0.00  0.00    +0.000 A 
ATOM     24  C   UNL     1      -6.255  13.293  21.255  0.00  0.00    +0.000 A 
ATOM     25  C   UNL     1      -7.460  13.897  21.627  0.00  0.00    +0.000 A 
ATOM     26  C   UNL     1      -7.763  14.098  22.970  0.00  0.00    +0.000 A 
ATOM     27  C   UNL     1      -6.870  13.704  23.973  0.00  0.00    +0.000 A 
ATOM     28  C   UNL     1      -5.639  13.148  23.583  0.00  0.00    +0.000 A 
ATOM     29  S   UNL     1      -4.314  12.654  24.562  0.00  0.00    +0.000 S 
ENDBRANCH  20  21
ENDBRANCH  10  20
TORSDOF 2
ENDMDL
MODEL 8
REMARK VINA RESULT:      -7.0      6.453     10.243
REMARK  Name = 
REMARK  2 active torsions:
REMARK  status: ('A' for Active; 'I' for Inactive)
REMARK    1  A    between atoms: N_10  and  C_11
REMARK    2  A    between atoms: C_11  and  C_12
REMARK                            x       y       z     vdW  Elec       q    Type
REMARK                         _______ _______ _______ _____ _____    ______ ____
ROOT
ATOM      1  O   UNL     1       6.056  16.713  18.815  0.00  0.00    +0.000 OA
ATOM      2  C   UNL     1       4.915  16.287  18.822  0.00  0.00    +0.000 C 
ATOM      3  C   UNL     1       3.764  16.899  19.564  0.00  0.00    +0.000 C 
ATOM      4  C   UNL     1       2.536  16.064  19.123  0.00  0.00    +0.000 C 
ATOM      5  C   UNL     1       3.163  14.958  18.291  0.00  0.00    +0.000 C 
ATOM      6  O   UNL     1       2.581  14.006  17.797  0.00  0.00    +0.000 OA
ATOM      7  N   UNL     1       4.491  15.193  18.150  0.00  0.00    +0.000 N 
ATOM      8  C   UNL     1       1.888  15.403  20.337  0.00  0.00    +0.000 C 
ATOM      9  O   UNL     1       2.547  15.132  21.344  0.00  0.00    +0.000 OA
ATOM     10  N   UNL     1       0.545  15.087  20.234  0.00  0.00    +0.000 N 
ATOM     11  C   UNL     1      -0.335  16.000  19.664  0.00  0.00    +0.000 C 
ATOM     12  O   UNL     1      -1.482  16.183  20.065  0.00  0.00    +0.000 OA
ATOM     13  C   UNL     1       0.195  16.846  18.563  0.00  0.00    +0.000 A 
ATOM     14  C   UNL     1      -0.701  17.604  17.792  0.00  0.00    +0.000 A 
ATOM     15  C   UNL     1      -0.241  18.363  16.715  0.00  0.00    +0.000 A 
ATOM     16  C   UNL     1       1.113  18.373  16.405  0.00  0.00    +0.000 A 
ATOM     17  C   UNL     1       2.010  17.637  17.178  0.00  0.00    +0.000 A 
ATOM     18  C   UNL     1       1.566  16.871  18.277  0.00  0.00    +0.000 A 
ATOM     19  H   UNL     1       5.104  14.600  17.612  0.00  0.00    +0.000 HD
ENDROOT
BRANCH  10  20
ATOM     20  C   UNL     1       0.020  14.185  21.259  0.00  0.00    +0.000 C 
BRANCH  20  21
ATOM     21  C   UNL     1       0.275  12.739  20.929  0.00  0.00    +0.000 A 
ATOM     22  N   UNL     1       0.455  11.780  21.815  0.00  0.00    +0.000 NA
ATOM     23  C   UNL     1       0.766  10.595  21.169  0.00  0.00    +0.000 A 
ATOM     24  C   UNL     1       1.123   9.383  21.794  0.00  0.00    +0.000 A 
ATOM     25  C   UNL     1       1.487   8.280  21.016  0.00  0.00    +0.000 A 
ATOM     26  C   UNL     1       1.446   8.352  19.627  0.00  0.00    +0.000 A 
ATOM     27  C   UNL     1       1.044   9.527  18.982  0.00  0.00    +0.000 A 
ATOM     28  C   UNL     1       0.735  10.645  19.775  0.00  0.00    +0.000 A 
ATOM     29  S   UNL     1       0.301  12.236  19.284  0.00  0.00    +0.000 S 
ENDBRANCH  20  21
ENDBRANCH  10  20
TORSDOF 2
ENDMDL
MODEL 9
REMARK VINA RESULT:      -7.0      6.504      9.158
REMARK  Name = 
REMARK  2 active torsions:
REMARK  status: ('A' for Active; 'I' for Inactive)
REMARK    1  A    between atoms: N_10  and  C_11
REMARK    2  A    between atoms: C_11  and  C_12
REMARK                            x       y       z     vdW  Elec       q    Type
REMARK                         _______ _______ _______ _____ _____    ______ ____
ROOT
ATOM      1  O   UNL     1      -2.710  10.907  15.793  0.00  0.00    +0.000 OA
ATOM      2  C   UNL     1      -2.331  11.329  16.872  0.00  0.00    +0.000 C 
ATOM      3  C   UNL     1      -2.702  10.755  18.207  0.00  0.00    +0.000 C 
ATOM      4  C   UNL     1      -1.849  11.560  19.220  0.00  0.00    +0.000 C 
ATOM      5  C   UNL     1      -1.200  12.621  18.346  0.00  0.00    +0.000 C 
ATOM      6  O   UNL     1      -0.497  13.541  18.728  0.00  0.00    +0.000 OA
ATOM      7  N   UNL     1      -1.501  12.382  17.045  0.00  0.00    +0.000 N 
ATOM      8  C   UNL     1      -2.757  12.285  20.210  0.00  0.00    +0.000 C 
ATOM      9  O   UNL     1      -3.905  12.615  19.900  0.00  0.00    +0.000 OA
ATOM     10  N   UNL     1      -2.216  12.590  21.446  0.00  0.00    +0.000 N 
ATOM     11  C   UNL     1      -1.447  11.644  22.113  0.00  0.00    +0.000 C 
ATOM     12  O   UNL     1      -1.472  11.479  23.331  0.00  0.00    +0.000 OA
ATOM     13  C   UNL     1      -0.618  10.740  21.273  0.00  0.00    +0.000 A 
ATOM     14  C   UNL     1       0.355   9.936  21.890  0.00  0.00    +0.000 A 
ATOM     15  C   UNL     1       1.187   9.120  21.123  0.00  0.00    +0.000 A 
ATOM     16  C   UNL     1       1.051   9.098  19.741  0.00  0.00    +0.000 A 
ATOM     17  C   UNL     1       0.075   9.879  19.124  0.00  0.00    +0.000 A 
ATOM     18  C   UNL     1      -0.784  10.704  19.883  0.00  0.00    +0.000 A 
ATOM     19  H   UNL     1      -1.154  12.946  16.285  0.00  0.00    +0.000 HD
ENDROOT
BRANCH  10  20
ATOM     20  C   UNL     1      -2.972  13.546  22.256  0.00  0.00    +0.000 C 
BRANCH  20  21
ATOM     21  C   UNL     1      -2.074  14.415  23.095  0.00  0.00    +0.000 A 
ATOM     22  N   UNL     1      -2.115  14.497  24.410  0.00  0.00    +0.000 NA
ATOM     23  C   UNL     1      -1.223  15.463  24.848  0.00  0.00    +0.000 A 
ATOM     24  C   UNL     1      -1.066  15.898  26.179  0.00  0.00    +0.000 A 
ATOM     25  C   UNL     1      -0.177  16.938  26.471  0.00  0.00    +0.000 A 
ATOM     26  C   UNL     1       0.595  17.509  25.464  0.00  0.00    +0.000 A 
ATOM     27  C   UNL     1       0.496  17.059  24.144  0.00  0.00    +0.000 A 
ATOM     28  C   UNL     1      -0.440  16.052  23.854  0.00  0.00    +0.000 A 
ATOM     29  S   UNL     1      -0.854  15.359  22.335  0.00  0.00    +0.000 S 
ENDBRANCH  20  21
ENDBRANCH  10  20
TORSDOF 2
ENDMDL
