MODEL 1
REMARK VINA RESULT:      -6.7      0.000      0.000
REMARK  Name = 
REMARK  6 active torsions:
REMARK  status: ('A' for Active; 'I' for Inactive)
REMARK    1  A    between atoms: C_1  and  O_2
REMARK    2  A    between atoms: O_2  and  C_3
REMARK    3  A    between atoms: C_7  and  O_8
REMARK    4  A    between atoms: C_10  and  C_11
REMARK    5  A    between atoms: C_14  and  O_15
REMARK    6  A    between atoms: O_15  and  C_16
REMARK                            x       y       z     vdW  Elec       q    Type
REMARK                         _______ _______ _______ _____ _____    ______ ____
ROOT
ATOM      1  C   UNL     1       6.235   5.232  16.082  0.00  0.00    +0.000 A 
ATOM      2  C   UNL     1       5.438   4.094  16.247  0.00  0.00    +0.000 A 
ATOM      3  C   UNL     1       4.337   4.098  17.116  0.00  0.00    +0.000 A 
ATOM      4  C   UNL     1       3.554   2.950  17.256  0.00  0.00    +0.000 A 
ATOM      5  C   UNL     1       2.481   2.996  18.120  0.00  0.00    +0.000 A 
ATOM      6  N   UNL     1       2.136   4.075  18.836  0.00  0.00    +0.000 NA
ATOM      7  C   UNL     1       2.900   5.188  18.703  0.00  0.00    +0.000 A 
ATOM      8  C   UNL     1       2.473   6.359  19.543  0.00  0.00    +0.000 C 
ATOM      9  C   UNL     1       4.024   5.261  17.847  0.00  0.00    +0.000 A 
ATOM     10  C   UNL     1       4.846   6.402  17.681  0.00  0.00    +0.000 A 
ATOM     11  C   UNL     1       5.956   6.386  16.828  0.00  0.00    +0.000 A 
ENDROOT
BRANCH   1  13
ATOM     12  C   UNL     1       7.102   4.800  13.922  0.00  0.00    +0.000 C 
ATOM     13  O   UNL     1       7.327   5.264  15.249  0.00  0.00    +0.000 OA
ENDBRANCH   1  13
BRANCH   5  14
ATOM     14  O   UNL     1       1.682   1.906  18.305  0.00  0.00    +0.000 OA
ATOM     15  H   UNL     1       1.911   1.246  17.637  0.00  0.00    +0.000 HD
ENDBRANCH   5  14
BRANCH  11  16
ATOM     16  O   UNL     1       6.780   7.467  16.631  0.00  0.00    +0.000 OA
ATOM     17  C   UNL     1       7.698   7.764  17.677  0.00  0.00    +0.000 C 
ENDBRANCH  11  16
TORSDOF 3
ENDMDL
MODEL 2
REMARK VINA RESULT:      -6.5      2.137      4.990
REMARK  Name = 
REMARK  6 active torsions:
REMARK  status: ('A' for Active; 'I' for Inactive)
REMARK    1  A    between atoms: C_1  and  O_2
REMARK    2  A    between atoms: O_2  and  C_3
REMARK    3  A    between atoms: C_7  and  O_8
REMARK    4  A    between atoms: C_10  and  C_11
REMARK    5  A    between atoms: C_14  and  O_15
REMARK    6  A    between atoms: O_15  and  C_16
REMARK                            x       y       z     vdW  Elec       q    Type
REMARK                         _______ _______ _______ _____ _____    ______ ____
ROOT
ATOM      1  C   UNL     1       3.304   3.959  18.030  0.00  0.00    +0.000 A 
ATOM      2  C   UNL     1       3.905   3.866  16.770  0.00  0.00    +0.000 A 
ATOM      3  C   UNL     1       5.077   4.576  16.471  0.00  0.00    +0.000 A 
ATOM      4  C   UNL     1       5.659   4.459  15.207  0.00  0.00    +0.000 A 
ATOM      5  C   UNL     1       6.812   5.172  14.953  0.00  0.00    +0.000 A 
ATOM      6  N   UNL     1       7.413   5.972  15.843  0.00  0.00    +0.000 NA
ATOM      7  C   UNL     1       6.844   6.089  17.069  0.00  0.00    +0.000 A 
ATOM      8  C   UNL     1       7.555   7.012  18.018  0.00  0.00    +0.000 C 
ATOM      9  C   UNL     1       5.664   5.406  17.445  0.00  0.00    +0.000 A 
ATOM     10  C   UNL     1       5.038   5.502  18.713  0.00  0.00    +0.000 A 
ATOM     11  C   UNL     1       3.857   4.807  19.000  0.00  0.00    +0.000 A 
ENDROOT
BRANCH   1  13
ATOM     12  C   UNL     1       2.316   1.923  18.724  0.00  0.00    +0.000 C 
ATOM     13  O   UNL     1       2.150   3.289  18.358  0.00  0.00    +0.000 OA
ENDBRANCH   1  13
BRANCH   5  14
ATOM     14  O   UNL     1       7.425   5.105  13.736  0.00  0.00    +0.000 OA
ATOM     15  H   UNL     1       6.787   5.369  13.061  0.00  0.00    +0.000 HD
ENDBRANCH   5  14
BRANCH  11  16
ATOM     16  O   UNL     1       3.217   4.865  20.213  0.00  0.00    +0.000 OA
ATOM     17  C   UNL     1       2.230   5.879  20.363  0.00  0.00    +0.000 C 
ENDBRANCH  11  16
TORSDOF 3
ENDMDL
MODEL 3
REMARK VINA RESULT:      -6.5      1.364      1.500
REMARK  Name = 
REMARK  6 active torsions:
REMARK  status: ('A' for Active; 'I' for Inactive)
REMARK    1  A    between atoms: C_1  and  O_2
REMARK    2  A    between atoms: O_2  and  C_3
REMARK    3  A    between atoms: C_7  and  O_8
REMARK    4  A    between atoms: C_10  and  C_11
REMARK    5  A    between atoms: C_14  and  O_15
REMARK    6  A    between atoms: O_15  and  C_16
REMARK                            x       y       z     vdW  Elec       q    Type
REMARK                         _______ _______ _______ _____ _____    ______ ____
ROOT
ATOM      1  C   UNL     1       5.601   4.453  17.028  0.00  0.00    +0.000 A 
ATOM      2  C   UNL     1       4.543   3.548  16.887  0.00  0.00    +0.000 A 
ATOM      3  C   UNL     1       3.442   3.578  17.755  0.00  0.00    +0.000 A 
ATOM      4  C   UNL     1       2.396   2.667  17.587  0.00  0.00    +0.000 A 
ATOM      5  C   UNL     1       1.331   2.731  18.461  0.00  0.00    +0.000 A 
ATOM      6  N   UNL     1       1.232   3.613  19.464  0.00  0.00    +0.000 NA
ATOM      7  C   UNL     1       2.251   4.494  19.629  0.00  0.00    +0.000 A 
ATOM      8  C   UNL     1       2.089   5.447  20.780  0.00  0.00    +0.000 C 
ATOM      9  C   UNL     1       3.393   4.526  18.795  0.00  0.00    +0.000 A 
ATOM     10  C   UNL     1       4.476   5.428  18.936  0.00  0.00    +0.000 A 
ATOM     11  C   UNL     1       5.583   5.380  18.079  0.00  0.00    +0.000 A 
ENDROOT
BRANCH   1  13
ATOM     12  C   UNL     1       6.448   4.131  14.841  0.00  0.00    +0.000 C 
ATOM     13  O   UNL     1       6.702   4.448  16.206  0.00  0.00    +0.000 OA
ENDBRANCH   1  13
BRANCH   5  14
ATOM     14  O   UNL     1       0.282   1.865  18.353  0.00  0.00    +0.000 OA
ATOM     15  H   UNL     1      -0.384   2.114  19.007  0.00  0.00    +0.000 HD
ENDBRANCH   5  14
BRANCH  11  16
ATOM     16  O   UNL     1       6.654   6.235  18.172  0.00  0.00    +0.000 OA
ATOM     17  C   UNL     1       7.658   5.892  19.120  0.00  0.00    +0.000 C 
ENDBRANCH  11  16
TORSDOF 3
ENDMDL
MODEL 4
REMARK VINA RESULT:      -6.4      2.245      5.195
REMARK  Name = 
REMARK  6 active torsions:
REMARK  status: ('A' for Active; 'I' for Inactive)
REMARK    1  A    between atoms: C_1  and  O_2
REMARK    2  A    between atoms: O_2  and  C_3
REMARK    3  A    between atoms: C_7  and  O_8
REMARK    4  A    between atoms: C_10  and  C_11
REMARK    5  A    between atoms: C_14  and  O_15
REMARK    6  A    between atoms: O_15  and  C_16
REMARK                            x       y       z     vdW  Elec       q    Type
REMARK                         _______ _______ _______ _____ _____    ______ ____
ROOT
ATOM      1  C   UNL     1       3.319   3.066  18.246  0.00  0.00    +0.000 A 
ATOM      2  C   UNL     1       3.926   3.340  17.015  0.00  0.00    +0.000 A 
ATOM      3  C   UNL     1       5.127   4.061  16.943  0.00  0.00    +0.000 A 
ATOM      4  C   UNL     1       5.715   4.315  15.702  0.00  0.00    +0.000 A 
ATOM      5  C   UNL     1       6.896   5.026  15.674  0.00  0.00    +0.000 A 
ATOM      6  N   UNL     1       7.520   5.491  16.764  0.00  0.00    +0.000 NA
ATOM      7  C   UNL     1       6.946   5.248  17.969  0.00  0.00    +0.000 A 
ATOM      8  C   UNL     1       7.684   5.809  19.152  0.00  0.00    +0.000 C 
ATOM      9  C   UNL     1       5.738   4.530  18.123  0.00  0.00    +0.000 A 
ATOM     10  C   UNL     1       5.106   4.257  19.362  0.00  0.00    +0.000 A 
ATOM     11  C   UNL     1       3.897   3.555  19.427  0.00  0.00    +0.000 A 
ENDROOT
BRANCH   1  13
ATOM     12  C   UNL     1       0.954   3.156  18.244  0.00  0.00    +0.000 C 
ATOM     13  O   UNL     1       2.138   2.373  18.358  0.00  0.00    +0.000 OA
ENDBRANCH   1  13
BRANCH   5  14
ATOM     14  O   UNL     1       7.516   5.311  14.493  0.00  0.00    +0.000 OA
ATOM     15  H   UNL     1       8.193   5.980  14.660  0.00  0.00    +0.000 HD
ENDBRANCH   5  14
BRANCH  11  16
ATOM     16  O   UNL     1       3.250   3.262  20.602  0.00  0.00    +0.000 OA
ATOM     17  C   UNL     1       2.498   4.317  21.191  0.00  0.00    +0.000 C 
ENDBRANCH  11  16
TORSDOF 3
ENDMDL
MODEL 5
REMARK VINA RESULT:      -6.3      1.325      3.090
REMARK  Name = 
REMARK  6 active torsions:
REMARK  status: ('A' for Active; 'I' for Inactive)
REMARK    1  A    between atoms: C_1  and  O_2
REMARK    2  A    between atoms: O_2  and  C_3
REMARK    3  A    between atoms: C_7  and  O_8
REMARK    4  A    between atoms: C_10  and  C_11
REMARK    5  A    between atoms: C_14  and  O_15
REMARK    6  A    between atoms: O_15  and  C_16
REMARK                            x       y       z     vdW  Elec       q    Type
REMARK                         _______ _______ _______ _____ _____    ______ ____
ROOT
ATOM      1  C   UNL     1       6.316   5.862  16.996  0.00  0.00    +0.000 A 
ATOM      2  C   UNL     1       5.442   6.242  18.020  0.00  0.00    +0.000 A 
ATOM      3  C   UNL     1       4.358   5.432  18.387  0.00  0.00    +0.000 A 
ATOM      4  C   UNL     1       3.504   5.833  19.418  0.00  0.00    +0.000 A 
ATOM      5  C   UNL     1       2.451   5.007  19.748  0.00  0.00    +0.000 A 
ATOM      6  N   UNL     1       2.191   3.840  19.144  0.00  0.00    +0.000 NA
ATOM      7  C   UNL     1       3.017   3.454  18.140  0.00  0.00    +0.000 A 
ATOM      8  C   UNL     1       2.665   2.145  17.491  0.00  0.00    +0.000 C 
ATOM      9  C   UNL     1       4.130   4.216  17.714  0.00  0.00    +0.000 A 
ATOM     10  C   UNL     1       5.015   3.848  16.670  0.00  0.00    +0.000 A 
ATOM     11  C   UNL     1       6.083   4.671  16.294  0.00  0.00    +0.000 A 
ENDROOT
BRANCH   1  13
ATOM     12  C   UNL     1       7.687   7.740  17.443  0.00  0.00    +0.000 C 
ATOM     13  O   UNL     1       7.383   6.633  16.600  0.00  0.00    +0.000 OA
ENDBRANCH   1  13
BRANCH   5  14
ATOM     14  O   UNL     1       1.579   5.345  20.742  0.00  0.00    +0.000 OA
ATOM     15  H   UNL     1       1.805   6.232  21.053  0.00  0.00    +0.000 HD
ENDBRANCH   5  14
BRANCH  11  16
ATOM     16  O   UNL     1       6.969   4.356  15.293  0.00  0.00    +0.000 OA
ATOM     17  C   UNL     1       6.407   4.042  14.024  0.00  0.00    +0.000 C 
ENDBRANCH  11  16
TORSDOF 3
ENDMDL
MODEL 6
REMARK VINA RESULT:      -6.2      1.996      5.718
REMARK  Name = 
REMARK  6 active torsions:
REMARK  status: ('A' for Active; 'I' for Inactive)
REMARK    1  A    between atoms: C_1  and  O_2
REMARK    2  A    between atoms: O_2  and  C_3
REMARK    3  A    between atoms: C_7  and  O_8
REMARK    4  A    between atoms: C_10  and  C_11
REMARK    5  A    between atoms: C_14  and  O_15
REMARK    6  A    between atoms: O_15  and  C_16
REMARK                            x       y       z     vdW  Elec       q    Type
REMARK                         _______ _______ _______ _____ _____    ______ ____
ROOT
ATOM      1  C   UNL     1       2.786   4.959  18.543  0.00  0.00    +0.000 A 
ATOM      2  C   UNL     1       3.798   5.922  18.620  0.00  0.00    +0.000 A 
ATOM      3  C   UNL     1       4.887   5.903  17.736  0.00  0.00    +0.000 A 
ATOM      4  C   UNL     1       5.880   6.881  17.831  0.00  0.00    +0.000 A 
ATOM      5  C   UNL     1       6.933   6.827  16.943  0.00  0.00    +0.000 A 
ATOM      6  N   UNL     1       7.066   5.897  15.989  0.00  0.00    +0.000 NA
ATOM      7  C   UNL     1       6.103   4.944  15.900  0.00  0.00    +0.000 A 
ATOM      8  C   UNL     1       6.317   3.920  14.822  0.00  0.00    +0.000 C 
ATOM      9  C   UNL     1       4.978   4.897  16.754  0.00  0.00    +0.000 A 
ATOM     10  C   UNL     1       3.953   3.920  16.695  0.00  0.00    +0.000 A 
ATOM     11  C   UNL     1       2.879   3.932  17.593  0.00  0.00    +0.000 A 
ENDROOT
BRANCH   1  13
ATOM     12  C   UNL     1       2.028   4.929  20.786  0.00  0.00    +0.000 C 
ATOM     13  O   UNL     1       1.710   4.937  19.397  0.00  0.00    +0.000 OA
ENDBRANCH   1  13
BRANCH   5  14
ATOM     14  O   UNL     1       7.937   7.750  16.988  0.00  0.00    +0.000 OA
ATOM     15  H   UNL     1       8.358   7.696  17.857  0.00  0.00    +0.000 HD
ENDBRANCH   5  14
BRANCH  11  16
ATOM     16  O   UNL     1       1.861   3.011  17.573  0.00  0.00    +0.000 OA
ATOM     17  C   UNL     1       2.025   1.866  18.402  0.00  0.00    +0.000 C 
ENDBRANCH  11  16
TORSDOF 3
ENDMDL
MODEL 7
REMARK VINA RESULT:      -6.2      2.170      3.940
REMARK  Name = 
REMARK  6 active torsions:
REMARK  status: ('A' for Active; 'I' for Inactive)
REMARK    1  A    between atoms: C_1  and  O_2
REMARK    2  A    between atoms: O_2  and  C_3
REMARK    3  A    between atoms: C_7  and  O_8
REMARK    4  A    between atoms: C_10  and  C_11
REMARK    5  A    between atoms: C_14  and  O_15
REMARK    6  A    between atoms: O_15  and  C_16
REMARK                            x       y       z     vdW  Elec       q    Type
REMARK                         _______ _______ _______ _____ _____    ______ ____
ROOT
ATOM      1  C   UNL     1       3.284   6.757  18.202  0.00  0.00    +0.000 A 
ATOM      2  C   UNL     1       2.542   6.309  19.300  0.00  0.00    +0.000 A 
ATOM      3  C   UNL     1       2.457   4.944  19.610  0.00  0.00    +0.000 A 
ATOM      4  C   UNL     1       1.715   4.524  20.717  0.00  0.00    +0.000 A 
ATOM      5  C   UNL     1       1.658   3.173  20.988  0.00  0.00    +0.000 A 
ATOM      6  N   UNL     1       2.270   2.233  20.257  0.00  0.00    +0.000 NA
ATOM      7  C   UNL     1       2.987   2.640  19.180  0.00  0.00    +0.000 A 
ATOM      8  C   UNL     1       3.637   1.538  18.392  0.00  0.00    +0.000 C 
ATOM      9  C   UNL     1       3.120   3.997  18.804  0.00  0.00    +0.000 A 
ATOM     10  C   UNL     1       3.857   4.463  17.687  0.00  0.00    +0.000 A 
ATOM     11  C   UNL     1       3.921   5.825  17.370  0.00  0.00    +0.000 A 
ENDROOT
BRANCH   1  13
ATOM     12  C   UNL     1       2.158   8.811  17.860  0.00  0.00    +0.000 C 
ATOM     13  O   UNL     1       3.383   8.084  17.859  0.00  0.00    +0.000 OA
ENDBRANCH   1  13
BRANCH   5  14
ATOM     14  O   UNL     1       0.945   2.701  22.050  0.00  0.00    +0.000 OA
ATOM     15  H   UNL     1       0.284   2.078  21.718  0.00  0.00    +0.000 HD
ENDBRANCH   5  14
BRANCH  11  16
ATOM     16  O   UNL     1       4.626   6.325  16.303  0.00  0.00    +0.000 OA
ATOM     17  C   UNL     1       5.505   5.421  15.644  0.00  0.00    +0.000 C 
ENDBRANCH  11  16
TORSDOF 3
ENDMDL
MODEL 8
REMARK VINA RESULT:      -6.2      3.069      5.223
REMARK  Name = 
REMARK  6 active torsions:
REMARK  status: ('A' for Active; 'I' for Inactive)
REMARK    1  A    between atoms: C_1  and  O_2
REMARK    2  A    between atoms: O_2  and  C_3
REMARK    3  A    between atoms: C_7  and  O_8
REMARK    4  A    between atoms: C_10  and  C_11
REMARK    5  A    between atoms: C_14  and  O_15
REMARK    6  A    between atoms: O_15  and  C_16
REMARK                            x       y       z     vdW  Elec       q    Type
REMARK                         _______ _______ _______ _____ _____    ______ ____
ROOT
ATOM      1  C   UNL     1       3.347   4.726  18.614  0.00  0.00    +0.000 A 
ATOM      2  C   UNL     1       3.256   5.899  17.857  0.00  0.00    +0.000 A 
ATOM      3  C   UNL     1       2.646   7.051  18.374  0.00  0.00    +0.000 A 
ATOM      4  C   UNL     1       2.575   8.211  17.598  0.00  0.00    +0.000 A 
ATOM      5  C   UNL     1       1.969   9.323  18.144  0.00  0.00    +0.000 A 
ATOM      6  N   UNL     1       1.443   9.365  19.375  0.00  0.00    +0.000 NA
ATOM      7  C   UNL     1       1.508   8.237  20.126  0.00  0.00    +0.000 A 
ATOM      8  C   UNL     1       0.887   8.342  21.490  0.00  0.00    +0.000 C 
ATOM      9  C   UNL     1       2.106   7.037  19.675  0.00  0.00    +0.000 A 
ATOM     10  C   UNL     1       2.193   5.840  20.427  0.00  0.00    +0.000 A 
ATOM     11  C   UNL     1       2.784   4.686  19.898  0.00  0.00    +0.000 A 
ENDROOT
BRANCH   1  13
ATOM     12  C   UNL     1       4.671   3.712  16.934  0.00  0.00    +0.000 C 
ATOM     13  O   UNL     1       3.926   3.574  18.140  0.00  0.00    +0.000 OA
ENDBRANCH   1  13
BRANCH   5  14
ATOM     14  O   UNL     1       1.863  10.483  17.434  0.00  0.00    +0.000 OA
ATOM     15  H   UNL     1       1.430  11.141  17.995  0.00  0.00    +0.000 HD
ENDBRANCH   5  14
BRANCH  11  16
ATOM     16  O   UNL     1       2.896   3.504  20.589  0.00  0.00    +0.000 OA
ATOM     17  C   UNL     1       1.892   3.241  21.561  0.00  0.00    +0.000 C 
ENDBRANCH  11  16
TORSDOF 3
ENDMDL
MODEL 9
REMARK VINA RESULT:      -6.2      2.112      5.748
REMARK  Name = 
REMARK  6 active torsions:
REMARK  status: ('A' for Active; 'I' for Inactive)
REMARK    1  A    between atoms: C_1  and  O_2
REMARK    2  A    between atoms: O_2  and  C_3
REMARK    3  A    between atoms: C_7  and  O_8
REMARK    4  A    between atoms: C_10  and  C_11
REMARK    5  A    between atoms: C_14  and  O_15
REMARK    6  A    between atoms: O_15  and  C_16
REMARK                            x       y       z     vdW  Elec       q    Type
REMARK                         _______ _______ _______ _____ _____    ______ ____
ROOT
ATOM      1  C   UNL     1       3.859   4.008  19.425  0.00  0.00    +0.000 A 
ATOM      2  C   UNL     1       4.775   5.062  19.340  0.00  0.00    +0.000 A 
ATOM      3  C   UNL     1       5.527   5.278  18.176  0.00  0.00    +0.000 A 
ATOM      4  C   UNL     1       6.430   6.342  18.116  0.00  0.00    +0.000 A 
ATOM      5  C   UNL     1       7.149   6.520  16.953  0.00  0.00    +0.000 A 
ATOM      6  N   UNL     1       7.038   5.738  15.872  0.00  0.00    +0.000 NA
ATOM      7  C   UNL     1       6.164   4.701  15.933  0.00  0.00    +0.000 A 
ATOM      8  C   UNL     1       6.096   3.851  14.696  0.00  0.00    +0.000 C 
ATOM      9  C   UNL     1       5.372   4.420  17.070  0.00  0.00    +0.000 A 
ATOM     10  C   UNL     1       4.450   3.349  17.173  0.00  0.00    +0.000 A 
ATOM     11  C   UNL     1       3.717   3.125  18.345  0.00  0.00    +0.000 A 
ENDROOT
BRANCH   1  13
ATOM     12  C   UNL     1       2.225   4.799  20.944  0.00  0.00    +0.000 C 
ATOM     13  O   UNL     1       3.112   3.757  20.551  0.00  0.00    +0.000 OA
ENDBRANCH   1  13
BRANCH   5  14
ATOM     14  O   UNL     1       8.050   7.538  16.835  0.00  0.00    +0.000 OA
ATOM     15  H   UNL     1       7.779   8.252  17.426  0.00  0.00    +0.000 HD
ENDBRANCH   5  14
BRANCH  11  16
ATOM     16  O   UNL     1       2.810   2.105  18.491  0.00  0.00    +0.000 OA
ATOM     17  C   UNL     1       1.447   2.427  18.241  0.00  0.00    +0.000 C 
ENDBRANCH  11  16
TORSDOF 3
ENDMDL
