MODEL 1
REMARK VINA RESULT:      -8.0      0.000      0.000
REMARK  Name = 
REMARK  7 active torsions:
REMARK  status: ('A' for Active; 'I' for Inactive)
REMARK    1  A    between atoms: C_1  and  C_2
REMARK    2  A    between atoms: C_4  and  N_5
REMARK    3  A    between atoms: N_5  and  C_6
REMARK    4  A    between atoms: N_5  and  C_7
REMARK    5  A    between atoms: N_10  and  C_11
REMARK    6  A    between atoms: C_14  and  N_15
REMARK    7  A    between atoms: C_16  and  C_18
REMARK                            x       y       z     vdW  Elec       q    Type
REMARK                         _______ _______ _______ _____ _____    ______ ____
ROOT
ATOM      1  C   UNL     1       2.160   7.903  19.451  0.00  0.00    +0.000 C 
ATOM      2  C   UNL     1       2.015   8.410  18.002  0.00  0.00    +0.000 C 
ATOM      3  C   UNL     1       2.264   9.924  17.939  0.00  0.00    +0.000 C 
ATOM      4  C   UNL     1       1.269  10.700  18.808  0.00  0.00    +0.000 C 
ATOM      5  C   UNL     1       1.345  10.190  20.252  0.00  0.00    +0.000 C 
ATOM      6  C   UNL     1       1.183   8.669  20.363  0.00  0.00    +0.000 C 
ENDROOT
BRANCH   1  13
ATOM      7  C   UNL     1       2.460   2.201  17.643  0.00  0.00    +0.000 C 
ATOM      8  C   UNL     1       3.056   3.503  18.091  0.00  0.00    +0.000 A 
ATOM      9  C   UNL     1       4.408   3.742  17.945  0.00  0.00    +0.000 A 
ATOM     10  C   UNL     1       4.910   4.950  18.391  0.00  0.00    +0.000 A 
ATOM     11  N   UNL     1       4.065   5.838  18.954  0.00  0.00    +0.000 NA
ATOM     12  C   UNL     1       2.760   5.555  19.040  0.00  0.00    +0.000 A 
ATOM     13  N   UNL     1       1.881   6.480  19.588  0.00  0.00    +0.000 N 
ATOM     14  N   UNL     1       2.218   4.405  18.636  0.00  0.00    +0.000 NA
ATOM     15  H   UNL     1       0.932   6.144  19.503  0.00  0.00    +0.000 HD
BRANCH  10  16
ATOM     16  N   UNL     1       6.241   5.299  18.267  0.00  0.00    +0.000 N 
ATOM     17  C   UNL     1       6.863   5.272  16.947  0.00  0.00    +0.000 C 
ATOM     18  C   UNL     1       7.131   5.630  19.368  0.00  0.00    +0.000 C 
ENDBRANCH  10  16
ENDBRANCH   1  13
BRANCH   4  19
ATOM     19  N   UNL     1      -0.093  10.607  18.292  0.00  0.00    +0.000 N 
ATOM     20  C   UNL     1      -1.010  11.621  18.448  0.00  0.00    +0.000 C 
ATOM     21  O   UNL     1      -0.774  12.670  19.056  0.00  0.00    +0.000 OA
ATOM     22  H   UNL     1      -0.310   9.861  17.645  0.00  0.00    +0.000 HD
BRANCH  20  23
ATOM     23  C   UNL     1      -2.346  11.408  17.839  0.00  0.00    +0.000 A 
ATOM     24  C   UNL     1      -3.520  11.754  18.525  0.00  0.00    +0.000 A 
ATOM     25  C   UNL     1      -4.762  11.587  17.908  0.00  0.00    +0.000 A 
ATOM     26  C   UNL     1      -4.829  11.077  16.613  0.00  0.00    +0.000 A 
ATOM     27  C   UNL     1      -3.660  10.732  15.931  0.00  0.00    +0.000 A 
ATOM     28 CL   UNL     1      -3.760  10.106  14.334  0.00  0.00    +0.000 Cl
ATOM     29  C   UNL     1      -2.417  10.903  16.538  0.00  0.00    +0.000 A 
ENDBRANCH  20  23
ENDBRANCH   4  19
TORSDOF 4
ENDMDL
MODEL 2
REMARK VINA RESULT:      -7.7      1.118      1.597
REMARK  Name = 
REMARK  7 active torsions:
REMARK  status: ('A' for Active; 'I' for Inactive)
REMARK    1  A    between atoms: C_1  and  C_2
REMARK    2  A    between atoms: C_4  and  N_5
REMARK    3  A    between atoms: N_5  and  C_6
REMARK    4  A    between atoms: N_5  and  C_7
REMARK    5  A    between atoms: N_10  and  C_11
REMARK    6  A    between atoms: C_14  and  N_15
REMARK    7  A    between atoms: C_16  and  C_18
REMARK                            x       y       z     vdW  Elec       q    Type
REMARK                         _______ _______ _______ _____ _____    ______ ____
ROOT
ATOM      1  C   UNL     1       2.114   8.042  19.393  0.00  0.00    +0.000 C 
ATOM      2  C   UNL     1       1.922   8.537  17.946  0.00  0.00    +0.000 C 
ATOM      3  C   UNL     1       2.174  10.050  17.862  0.00  0.00    +0.000 C 
ATOM      4  C   UNL     1       1.211  10.837  18.758  0.00  0.00    +0.000 C 
ATOM      5  C   UNL     1       1.334  10.338  20.203  0.00  0.00    +0.000 C 
ATOM      6  C   UNL     1       1.172   8.819  20.331  0.00  0.00    +0.000 C 
ENDROOT
BRANCH   1  13
ATOM      7  C   UNL     1       2.365   2.321  17.640  0.00  0.00    +0.000 C 
ATOM      8  C   UNL     1       2.973   3.626  18.062  0.00  0.00    +0.000 A 
ATOM      9  C   UNL     1       4.321   3.860  17.883  0.00  0.00    +0.000 A 
ATOM     10  C   UNL     1       4.836   5.072  18.306  0.00  0.00    +0.000 A 
ATOM     11  N   UNL     1       4.004   5.967  18.877  0.00  0.00    +0.000 NA
ATOM     12  C   UNL     1       2.701   5.688  18.994  0.00  0.00    +0.000 A 
ATOM     13  N   UNL     1       1.836   6.621  19.551  0.00  0.00    +0.000 N 
ATOM     14  N   UNL     1       2.148   4.536  18.615  0.00  0.00    +0.000 NA
ATOM     15  H   UNL     1       0.885   6.286  19.490  0.00  0.00    +0.000 HD
BRANCH  10  16
ATOM     16  N   UNL     1       6.165   5.417  18.150  0.00  0.00    +0.000 N 
ATOM     17  C   UNL     1       7.007   5.551  19.334  0.00  0.00    +0.000 C 
ATOM     18  C   UNL     1       6.809   5.741  16.887  0.00  0.00    +0.000 C 
ENDBRANCH  10  16
ENDBRANCH   1  13
BRANCH   4  19
ATOM     19  N   UNL     1      -0.168  10.744  18.289  0.00  0.00    +0.000 N 
ATOM     20  C   UNL     1      -1.064  11.780  18.430  0.00  0.00    +0.000 C 
ATOM     21  O   UNL     1      -0.793  12.849  18.984  0.00  0.00    +0.000 OA
ATOM     22  H   UNL     1      -0.417   9.975  17.682  0.00  0.00    +0.000 HD
BRANCH  20  23
ATOM     23  C   UNL     1      -2.422  11.562  17.873  0.00  0.00    +0.000 A 
ATOM     24  C   UNL     1      -2.602  11.085  16.566  0.00  0.00    +0.000 A 
ATOM     25  C   UNL     1      -3.891  10.844  16.084  0.00  0.00    +0.000 A 
ATOM     26  C   UNL     1      -4.992  11.079  16.905  0.00  0.00    +0.000 A 
ATOM     27  C   UNL     1      -4.812  11.556  18.206  0.00  0.00    +0.000 A 
ATOM     28 CL   UNL     1      -6.180  11.839  19.205  0.00  0.00    +0.000 Cl
ATOM     29  C   UNL     1      -3.529  11.791  18.695  0.00  0.00    +0.000 A 
ENDBRANCH  20  23
ENDBRANCH   4  19
TORSDOF 4
ENDMDL
MODEL 3
REMARK VINA RESULT:      -7.6      4.031      9.017
REMARK  Name = 
REMARK  7 active torsions:
REMARK  status: ('A' for Active; 'I' for Inactive)
REMARK    1  A    between atoms: C_1  and  C_2
REMARK    2  A    between atoms: C_4  and  N_5
REMARK    3  A    between atoms: N_5  and  C_6
REMARK    4  A    between atoms: N_5  and  C_7
REMARK    5  A    between atoms: N_10  and  C_11
REMARK    6  A    between atoms: C_14  and  N_15
REMARK    7  A    between atoms: C_16  and  C_18
REMARK                            x       y       z     vdW  Elec       q    Type
REMARK                         _______ _______ _______ _____ _____    ______ ____
ROOT
ATOM      1  C   UNL     1       2.600   7.163  18.221  0.00  0.00    +0.000 C 
ATOM      2  C   UNL     1       2.148   5.888  17.482  0.00  0.00    +0.000 C 
ATOM      3  C   UNL     1       2.856   4.655  18.063  0.00  0.00    +0.000 C 
ATOM      4  C   UNL     1       4.379   4.758  17.928  0.00  0.00    +0.000 C 
ATOM      5  C   UNL     1       4.867   6.044  18.608  0.00  0.00    +0.000 C 
ATOM      6  C   UNL     1       4.132   7.298  18.121  0.00  0.00    +0.000 C 
ENDROOT
BRANCH   1  13
ATOM      7  C   UNL     1      -1.787  11.213  17.753  0.00  0.00    +0.000 C 
ATOM      8  C   UNL     1      -0.734  10.451  18.504  0.00  0.00    +0.000 A 
ATOM      9  C   UNL     1      -0.702  10.475  19.883  0.00  0.00    +0.000 A 
ATOM     10  C   UNL     1       0.300   9.771  20.526  0.00  0.00    +0.000 A 
ATOM     11  N   UNL     1       1.203   9.100  19.782  0.00  0.00    +0.000 NA
ATOM     12  C   UNL     1       1.098   9.095  18.448  0.00  0.00    +0.000 A 
ATOM     13  N   UNL     1       2.005   8.378  17.680  0.00  0.00    +0.000 N 
ATOM     14  N   UNL     1       0.161   9.761  17.771  0.00  0.00    +0.000 NA
ATOM     15  H   UNL     1       1.736   8.414  16.707  0.00  0.00    +0.000 HD
BRANCH  10  16
ATOM     16  N   UNL     1       0.406   9.708  21.902  0.00  0.00    +0.000 N 
ATOM     17  C   UNL     1       1.540   9.007  22.496  0.00  0.00    +0.000 C 
ATOM     18  C   UNL     1      -0.571  10.224  22.847  0.00  0.00    +0.000 C 
ENDBRANCH  10  16
ENDBRANCH   1  13
BRANCH   4  19
ATOM     19  N   UNL     1       4.807   4.711  16.534  0.00  0.00    +0.000 N 
ATOM     20  C   UNL     1       6.124   4.536  16.174  0.00  0.00    +0.000 C 
ATOM     21  O   UNL     1       7.048   4.437  16.987  0.00  0.00    +0.000 OA
ATOM     22  H   UNL     1       4.099   4.617  15.818  0.00  0.00    +0.000 HD
BRANCH  20  23
ATOM     23  C   UNL     1       6.411   4.468  14.720  0.00  0.00    +0.000 A 
ATOM     24  C   UNL     1       7.513   5.136  14.166  0.00  0.00    +0.000 A 
ATOM     25  C   UNL     1       7.787   5.015  12.801  0.00  0.00    +0.000 A 
ATOM     26  C   UNL     1       6.965   4.229  11.997  0.00  0.00    +0.000 A 
ATOM     27  C   UNL     1       5.867   3.564  12.549  0.00  0.00    +0.000 A 
ATOM     28 CL   UNL     1       4.864   2.599  11.543  0.00  0.00    +0.000 Cl
ATOM     29  C   UNL     1       5.592   3.675  13.911  0.00  0.00    +0.000 A 
ENDBRANCH  20  23
ENDBRANCH   4  19
TORSDOF 4
ENDMDL
MODEL 4
REMARK VINA RESULT:      -7.1      4.157      9.067
REMARK  Name = 
REMARK  7 active torsions:
REMARK  status: ('A' for Active; 'I' for Inactive)
REMARK    1  A    between atoms: C_1  and  C_2
REMARK    2  A    between atoms: C_4  and  N_5
REMARK    3  A    between atoms: N_5  and  C_6
REMARK    4  A    between atoms: N_5  and  C_7
REMARK    5  A    between atoms: N_10  and  C_11
REMARK    6  A    between atoms: C_14  and  N_15
REMARK    7  A    between atoms: C_16  and  C_18
REMARK                            x       y       z     vdW  Elec       q    Type
REMARK                         _______ _______ _______ _____ _____    ______ ____
ROOT
ATOM      1  C   UNL     1       2.447   7.078  18.411  0.00  0.00    +0.000 C 
ATOM      2  C   UNL     1       1.937   5.851  17.629  0.00  0.00    +0.000 C 
ATOM      3  C   UNL     1       2.528   4.561  18.215  0.00  0.00    +0.000 C 
ATOM      4  C   UNL     1       4.059   4.555  18.149  0.00  0.00    +0.000 C 
ATOM      5  C   UNL     1       4.608   5.791  18.874  0.00  0.00    +0.000 C 
ATOM      6  C   UNL     1       3.987   7.103  18.380  0.00  0.00    +0.000 C 
ENDROOT
BRANCH   1  13
ATOM      7  C   UNL     1      -1.596  11.462  17.864  0.00  0.00    +0.000 C 
ATOM      8  C   UNL     1      -0.630  10.613  18.636  0.00  0.00    +0.000 A 
ATOM      9  C   UNL     1      -0.639  10.619  20.015  0.00  0.00    +0.000 A 
ATOM     10  C   UNL     1       0.284   9.832  20.679  0.00  0.00    +0.000 A 
ATOM     11  N   UNL     1       1.155   9.101  19.954  0.00  0.00    +0.000 NA
ATOM     12  C   UNL     1       1.092   9.118  18.618  0.00  0.00    +0.000 A 
ATOM     13  N   UNL     1       1.965   8.341  17.868  0.00  0.00    +0.000 N 
ATOM     14  N   UNL     1       0.231   9.862  17.922  0.00  0.00    +0.000 NA
ATOM     15  H   UNL     1       1.730   8.409  16.888  0.00  0.00    +0.000 HD
BRANCH  10  16
ATOM     16  N   UNL     1       0.342   9.745  22.057  0.00  0.00    +0.000 N 
ATOM     17  C   UNL     1       1.530   9.177  22.684  0.00  0.00    +0.000 C 
ATOM     18  C   UNL     1      -0.730  10.109  22.969  0.00  0.00    +0.000 C 
ENDBRANCH  10  16
ENDBRANCH   1  13
BRANCH   4  19
ATOM     19  N   UNL     1       4.544   4.499  16.773  0.00  0.00    +0.000 N 
ATOM     20  C   UNL     1       5.881   4.374  16.469  0.00  0.00    +0.000 C 
ATOM     21  O   UNL     1       6.775   4.331  17.319  0.00  0.00    +0.000 OA
ATOM     22  H   UNL     1       3.870   4.362  16.033  0.00  0.00    +0.000 HD
BRANCH  20  23
ATOM     23  C   UNL     1       6.228   4.290  15.029  0.00  0.00    +0.000 A 
ATOM     24  C   UNL     1       5.497   3.475  14.152  0.00  0.00    +0.000 A 
ATOM     25  C   UNL     1       5.816   3.453  12.792  0.00  0.00    +0.000 A 
ATOM     26  C   UNL     1       6.860   4.241  12.313  0.00  0.00    +0.000 A 
ATOM     27  C   UNL     1       7.589   5.052  13.187  0.00  0.00    +0.000 A 
ATOM     28 CL   UNL     1       8.872   6.019  12.579  0.00  0.00    +0.000 Cl
ATOM     29  C   UNL     1       7.271   5.085  14.543  0.00  0.00    +0.000 A 
ENDBRANCH  20  23
ENDBRANCH   4  19
TORSDOF 4
ENDMDL
MODEL 5
REMARK VINA RESULT:      -7.1      1.932      2.344
REMARK  Name = 
REMARK  7 active torsions:
REMARK  status: ('A' for Active; 'I' for Inactive)
REMARK    1  A    between atoms: C_1  and  C_2
REMARK    2  A    between atoms: C_4  and  N_5
REMARK    3  A    between atoms: N_5  and  C_6
REMARK    4  A    between atoms: N_5  and  C_7
REMARK    5  A    between atoms: N_10  and  C_11
REMARK    6  A    between atoms: C_14  and  N_15
REMARK    7  A    between atoms: C_16  and  C_18
REMARK                            x       y       z     vdW  Elec       q    Type
REMARK                         _______ _______ _______ _____ _____    ______ ____
ROOT
ATOM      1  C   UNL     1       1.663   8.723  20.473  0.00  0.00    +0.000 C 
ATOM      2  C   UNL     1       1.271   8.877  18.990  0.00  0.00    +0.000 C 
ATOM      3  C   UNL     1       1.495  10.324  18.526  0.00  0.00    +0.000 C 
ATOM      4  C   UNL     1       0.656  11.317  19.337  0.00  0.00    +0.000 C 
ATOM      5  C   UNL     1       0.978  11.161  20.829  0.00  0.00    +0.000 C 
ATOM      6  C   UNL     1       0.849   9.716  21.325  0.00  0.00    +0.000 C 
ENDROOT
BRANCH   1  13
ATOM      7  C   UNL     1       0.915   2.813  19.860  0.00  0.00    +0.000 C 
ATOM      8  C   UNL     1       1.696   4.089  19.746  0.00  0.00    +0.000 A 
ATOM      9  C   UNL     1       2.849   4.138  18.989  0.00  0.00    +0.000 A 
ATOM     10  C   UNL     1       3.542   5.333  18.930  0.00  0.00    +0.000 A 
ATOM     11  N   UNL     1       3.069   6.393  19.618  0.00  0.00    +0.000 NA
ATOM     12  C   UNL     1       1.929   6.285  20.310  0.00  0.00    +0.000 A 
ATOM     13  N   UNL     1       1.421   7.383  20.991  0.00  0.00    +0.000 N 
ATOM     14  N   UNL     1       1.222   5.159  20.411  0.00  0.00    +0.000 NA
ATOM     15  H   UNL     1       0.522   7.154  21.390  0.00  0.00    +0.000 HD
BRANCH  10  16
ATOM     16  N   UNL     1       4.691   5.497  18.181  0.00  0.00    +0.000 N 
ATOM     17  C   UNL     1       4.712   6.501  17.122  0.00  0.00    +0.000 C 
ATOM     18  C   UNL     1       5.896   4.690  18.299  0.00  0.00    +0.000 C 
ENDBRANCH  10  16
ENDBRANCH   1  13
BRANCH   4  19
ATOM     19  N   UNL     1      -0.773  11.150  19.092  0.00  0.00    +0.000 N 
ATOM     20  C   UNL     1      -1.656  12.204  19.141  0.00  0.00    +0.000 C 
ATOM     21  O   UNL     1      -1.327  13.360  19.424  0.00  0.00    +0.000 OA
ATOM     22  H   UNL     1      -1.092  10.276  18.694  0.00  0.00    +0.000 HD
BRANCH  20  23
ATOM     23  C   UNL     1      -3.074  11.897  18.832  0.00  0.00    +0.000 A 
ATOM     24  C   UNL     1      -3.422  11.118  17.719  0.00  0.00    +0.000 A 
ATOM     25  C   UNL     1      -4.763  10.805  17.479  0.00  0.00    +0.000 A 
ATOM     26  C   UNL     1      -5.748  11.267  18.349  0.00  0.00    +0.000 A 
ATOM     27  C   UNL     1      -5.401  12.043  19.457  0.00  0.00    +0.000 A 
ATOM     28 CL   UNL     1      -6.628  12.604  20.520  0.00  0.00    +0.000 Cl
ATOM     29  C   UNL     1      -4.065  12.354  19.706  0.00  0.00    +0.000 A 
ENDBRANCH  20  23
ENDBRANCH   4  19
TORSDOF 4
ENDMDL
MODEL 6
REMARK VINA RESULT:      -6.9      3.280      4.916
REMARK  Name = 
REMARK  7 active torsions:
REMARK  status: ('A' for Active; 'I' for Inactive)
REMARK    1  A    between atoms: C_1  and  C_2
REMARK    2  A    between atoms: C_4  and  N_5
REMARK    3  A    between atoms: N_5  and  C_6
REMARK    4  A    between atoms: N_5  and  C_7
REMARK    5  A    between atoms: N_10  and  C_11
REMARK    6  A    between atoms: C_14  and  N_15
REMARK    7  A    between atoms: C_16  and  C_18
REMARK                            x       y       z     vdW  Elec       q    Type
REMARK                         _______ _______ _______ _____ _____    ______ ____
ROOT
ATOM      1  C   UNL     1       1.562   8.215  18.597  0.00  0.00    +0.000 C 
ATOM      2  C   UNL     1       1.811   8.945  19.932  0.00  0.00    +0.000 C 
ATOM      3  C   UNL     1       0.509   9.578  20.445  0.00  0.00    +0.000 C 
ATOM      4  C   UNL     1      -0.056  10.599  19.451  0.00  0.00    +0.000 C 
ATOM      5  C   UNL     1      -0.271   9.925  18.090  0.00  0.00    +0.000 C 
ATOM      6  C   UNL     1       0.980   9.205  17.571  0.00  0.00    +0.000 C 
ENDROOT
BRANCH   1  13
ATOM      7  C   UNL     1       6.412   4.707  18.798  0.00  0.00    +0.000 C 
ATOM      8  C   UNL     1       4.934   4.962  18.835  0.00  0.00    +0.000 A 
ATOM      9  C   UNL     1       4.066   3.984  19.277  0.00  0.00    +0.000 A 
ATOM     10  C   UNL     1       2.711   4.262  19.274  0.00  0.00    +0.000 A 
ATOM     11  N   UNL     1       2.297   5.468  18.836  0.00  0.00    +0.000 NA
ATOM     12  C   UNL     1       3.194   6.383  18.448  0.00  0.00    +0.000 A 
ATOM     13  N   UNL     1       2.773   7.637  18.029  0.00  0.00    +0.000 N 
ATOM     14  N   UNL     1       4.510   6.170  18.420  0.00  0.00    +0.000 NA
ATOM     15  H   UNL     1       3.574   8.226  17.851  0.00  0.00    +0.000 HD
BRANCH  10  16
ATOM     16  N   UNL     1       1.762   3.363  19.720  0.00  0.00    +0.000 N 
ATOM     17  C   UNL     1       0.981   2.611  18.743  0.00  0.00    +0.000 C 
ATOM     18  C   UNL     1       1.401   3.139  21.111  0.00  0.00    +0.000 C 
ENDBRANCH  10  16
ENDBRANCH   1  13
BRANCH   4  19
ATOM     19  N   UNL     1       0.807  11.769  19.323  0.00  0.00    +0.000 N 
ATOM     20  C   UNL     1       0.389  12.927  18.708  0.00  0.00    +0.000 C 
ATOM     21  O   UNL     1      -0.723  13.066  18.191  0.00  0.00    +0.000 OA
ATOM     22  H   UNL     1       1.663  11.795  19.861  0.00  0.00    +0.000 HD
BRANCH  20  23
ATOM     23  C   UNL     1       1.357  14.052  18.683  0.00  0.00    +0.000 A 
ATOM     24  C   UNL     1       0.979  15.343  19.079  0.00  0.00    +0.000 A 
ATOM     25  C   UNL     1       1.924  16.373  19.092  0.00  0.00    +0.000 A 
ATOM     26  C   UNL     1       3.238  16.111  18.712  0.00  0.00    +0.000 A 
ATOM     27  C   UNL     1       3.614  14.824  18.317  0.00  0.00    +0.000 A 
ATOM     28 CL   UNL     1       5.240  14.518  17.852  0.00  0.00    +0.000 Cl
ATOM     29  C   UNL     1       2.679  13.791  18.309  0.00  0.00    +0.000 A 
ENDBRANCH  20  23
ENDBRANCH   4  19
TORSDOF 4
ENDMDL
MODEL 7
REMARK VINA RESULT:      -6.9      2.112      2.692
REMARK  Name = 
REMARK  7 active torsions:
REMARK  status: ('A' for Active; 'I' for Inactive)
REMARK    1  A    between atoms: C_1  and  C_2
REMARK    2  A    between atoms: C_4  and  N_5
REMARK    3  A    between atoms: N_5  and  C_6
REMARK    4  A    between atoms: N_5  and  C_7
REMARK    5  A    between atoms: N_10  and  C_11
REMARK    6  A    between atoms: C_14  and  N_15
REMARK    7  A    between atoms: C_16  and  C_18
REMARK                            x       y       z     vdW  Elec       q    Type
REMARK                         _______ _______ _______ _____ _____    ______ ____
ROOT
ATOM      1  C   UNL     1       1.377   9.040  20.444  0.00  0.00    +0.000 C 
ATOM      2  C   UNL     1       0.521   9.197  19.171  0.00  0.00    +0.000 C 
ATOM      3  C   UNL     1       0.667  10.616  18.602  0.00  0.00    +0.000 C 
ATOM      4  C   UNL     1       0.211  11.680  19.607  0.00  0.00    +0.000 C 
ATOM      5  C   UNL     1       1.005  11.526  20.911  0.00  0.00    +0.000 C 
ATOM      6  C   UNL     1       0.959  10.102  21.478  0.00  0.00    +0.000 C 
ENDROOT
BRANCH   1  13
ATOM      7  C   UNL     1       1.021   3.063  20.287  0.00  0.00    +0.000 C 
ATOM      8  C   UNL     1       1.711   4.376  20.057  0.00  0.00    +0.000 A 
ATOM      9  C   UNL     1       2.839   4.445  19.266  0.00  0.00    +0.000 A 
ATOM     10  C   UNL     1       3.448   5.676  19.101  0.00  0.00    +0.000 A 
ATOM     11  N   UNL     1       2.919   6.750  19.722  0.00  0.00    +0.000 NA
ATOM     12  C   UNL     1       1.806   6.619  20.452  0.00  0.00    +0.000 A 
ATOM     13  N   UNL     1       1.240   7.729  21.065  0.00  0.00    +0.000 N 
ATOM     14  N   UNL     1       1.180   5.460  20.656  0.00  0.00    +0.000 NA
ATOM     15  H   UNL     1       0.368   7.471  21.505  0.00  0.00    +0.000 HD
BRANCH  10  16
ATOM     16  N   UNL     1       4.565   5.859  18.309  0.00  0.00    +0.000 N 
ATOM     17  C   UNL     1       5.849   5.332  18.760  0.00  0.00    +0.000 C 
ATOM     18  C   UNL     1       4.603   6.612  17.066  0.00  0.00    +0.000 C 
ENDBRANCH  10  16
ENDBRANCH   1  13
BRANCH   4  19
ATOM     19  N   UNL     1      -1.225  11.613  19.859  0.00  0.00    +0.000 N 
ATOM     20  C   UNL     1      -1.998  12.740  20.015  0.00  0.00    +0.000 C 
ATOM     21  O   UNL     1      -1.547  13.889  19.988  0.00  0.00    +0.000 OA
ATOM     22  H   UNL     1      -1.692  10.725  19.730  0.00  0.00    +0.000 HD
BRANCH  20  23
ATOM     23  C   UNL     1      -3.450  12.525  20.227  0.00  0.00    +0.000 A 
ATOM     24  C   UNL     1      -4.060  12.840  21.450  0.00  0.00    +0.000 A 
ATOM     25  C   UNL     1      -5.438  12.672  21.606  0.00  0.00    +0.000 A 
ATOM     26  C   UNL     1      -6.201  12.192  20.544  0.00  0.00    +0.000 A 
ATOM     27  C   UNL     1      -5.594  11.877  19.326  0.00  0.00    +0.000 A 
ATOM     28 CL   UNL     1      -6.549  11.287  18.026  0.00  0.00    +0.000 Cl
ATOM     29  C   UNL     1      -4.221  12.050  19.161  0.00  0.00    +0.000 A 
ENDBRANCH  20  23
ENDBRANCH   4  19
TORSDOF 4
ENDMDL
MODEL 8
REMARK VINA RESULT:      -6.9      3.394      5.285
REMARK  Name = 
REMARK  7 active torsions:
REMARK  status: ('A' for Active; 'I' for Inactive)
REMARK    1  A    between atoms: C_1  and  C_2
REMARK    2  A    between atoms: C_4  and  N_5
REMARK    3  A    between atoms: N_5  and  C_6
REMARK    4  A    between atoms: N_5  and  C_7
REMARK    5  A    between atoms: N_10  and  C_11
REMARK    6  A    between atoms: C_14  and  N_15
REMARK    7  A    between atoms: C_16  and  C_18
REMARK                            x       y       z     vdW  Elec       q    Type
REMARK                         _______ _______ _______ _____ _____    ______ ____
ROOT
ATOM      1  C   UNL     1       1.530   8.246  18.648  0.00  0.00    +0.000 C 
ATOM      2  C   UNL     1       1.872   8.811  20.041  0.00  0.00    +0.000 C 
ATOM      3  C   UNL     1       0.630   9.459  20.674  0.00  0.00    +0.000 C 
ATOM      4  C   UNL     1       0.094  10.612  19.819  0.00  0.00    +0.000 C 
ATOM      5  C   UNL     1      -0.212  10.103  18.405  0.00  0.00    +0.000 C 
ATOM      6  C   UNL     1       0.973   9.374  17.759  0.00  0.00    +0.000 C 
ENDROOT
BRANCH   1  13
ATOM      7  C   UNL     1       6.335   4.682  18.379  0.00  0.00    +0.000 C 
ATOM      8  C   UNL     1       4.868   4.952  18.545  0.00  0.00    +0.000 A 
ATOM      9  C   UNL     1       4.028   3.975  19.041  0.00  0.00    +0.000 A 
ATOM     10  C   UNL     1       2.682   4.269  19.157  0.00  0.00    +0.000 A 
ATOM     11  N   UNL     1       2.247   5.488  18.776  0.00  0.00    +0.000 NA
ATOM     12  C   UNL     1       3.120   6.399  18.331  0.00  0.00    +0.000 A 
ATOM     13  N   UNL     1       2.681   7.666  17.970  0.00  0.00    +0.000 N 
ATOM     14  N   UNL     1       4.426   6.173  18.188  0.00  0.00    +0.000 NA
ATOM     15  H   UNL     1       3.472   8.249  17.735  0.00  0.00    +0.000 HD
BRANCH  10  16
ATOM     16  N   UNL     1       1.761   3.373  19.666  0.00  0.00    +0.000 N 
ATOM     17  C   UNL     1       0.956   2.580  18.743  0.00  0.00    +0.000 C 
ATOM     18  C   UNL     1       1.455   3.189  21.076  0.00  0.00    +0.000 C 
ENDBRANCH  10  16
ENDBRANCH   1  13
BRANCH   4  19
ATOM     19  N   UNL     1       1.022  11.738  19.779  0.00  0.00    +0.000 N 
ATOM     20  C   UNL     1       1.096  12.666  20.792  0.00  0.00    +0.000 C 
ATOM     21  O   UNL     1       0.375  12.646  21.794  0.00  0.00    +0.000 OA
ATOM     22  H   UNL     1       1.754  11.731  19.081  0.00  0.00    +0.000 HD
BRANCH  20  23
ATOM     23  C   UNL     1       2.112  13.737  20.638  0.00  0.00    +0.000 A 
ATOM     24  C   UNL     1       2.323  14.688  21.648  0.00  0.00    +0.000 A 
ATOM     25  C   UNL     1       3.320  15.655  21.496  0.00  0.00    +0.000 A 
ATOM     26  C   UNL     1       4.100  15.670  20.342  0.00  0.00    +0.000 A 
ATOM     27  C   UNL     1       3.889  14.724  19.336  0.00  0.00    +0.000 A 
ATOM     28 CL   UNL     1       4.860  14.756  17.920  0.00  0.00    +0.000 Cl
ATOM     29  C   UNL     1       2.902  13.751  19.485  0.00  0.00    +0.000 A 
ENDBRANCH  20  23
ENDBRANCH   4  19
TORSDOF 4
ENDMDL
MODEL 9
REMARK VINA RESULT:      -6.8      2.465      3.030
REMARK  Name = 
REMARK  7 active torsions:
REMARK  status: ('A' for Active; 'I' for Inactive)
REMARK    1  A    between atoms: C_1  and  C_2
REMARK    2  A    between atoms: C_4  and  N_5
REMARK    3  A    between atoms: N_5  and  C_6
REMARK    4  A    between atoms: N_5  and  C_7
REMARK    5  A    between atoms: N_10  and  C_11
REMARK    6  A    between atoms: C_14  and  N_15
REMARK    7  A    between atoms: C_16  and  C_18
REMARK                            x       y       z     vdW  Elec       q    Type
REMARK                         _______ _______ _______ _____ _____    ______ ____
ROOT
ATOM      1  C   UNL     1       1.432   9.011  20.484  0.00  0.00    +0.000 C 
ATOM      2  C   UNL     1       0.720   9.172  19.126  0.00  0.00    +0.000 C 
ATOM      3  C   UNL     1       0.897  10.603  18.597  0.00  0.00    +0.000 C 
ATOM      4  C   UNL     1       0.311  11.642  19.559  0.00  0.00    +0.000 C 
ATOM      5  C   UNL     1       0.958  11.482  20.941  0.00  0.00    +0.000 C 
ATOM      6  C   UNL     1       0.880  10.048  21.479  0.00  0.00    +0.000 C 
ENDROOT
BRANCH   1  13
ATOM      7  C   UNL     1       0.989   3.047  20.166  0.00  0.00    +0.000 C 
ATOM      8  C   UNL     1       1.706   4.354  19.991  0.00  0.00    +0.000 A 
ATOM      9  C   UNL     1       2.860   4.424  19.238  0.00  0.00    +0.000 A 
ATOM     10  C   UNL     1       3.492   5.648  19.122  0.00  0.00    +0.000 A 
ATOM     11  N   UNL     1       2.961   6.715  19.753  0.00  0.00    +0.000 NA
ATOM     12  C   UNL     1       1.823   6.585  20.445  0.00  0.00    +0.000 A 
ATOM     13  N   UNL     1       1.255   7.688  21.067  0.00  0.00    +0.000 N 
ATOM     14  N   UNL     1       1.173   5.431  20.599  0.00  0.00    +0.000 NA
ATOM     15  H   UNL     1       0.366   7.434  21.473  0.00  0.00    +0.000 HD
BRANCH  10  16
ATOM     16  N   UNL     1       4.637   5.832  18.371  0.00  0.00    +0.000 N 
ATOM     17  C   UNL     1       5.906   5.315  18.871  0.00  0.00    +0.000 C 
ATOM     18  C   UNL     1       4.716   6.578  17.125  0.00  0.00    +0.000 C 
ENDBRANCH  10  16
ENDBRANCH   1  13
BRANCH   4  19
ATOM     19  N   UNL     1      -1.142  11.542  19.649  0.00  0.00    +0.000 N 
ATOM     20  C   UNL     1      -1.947  12.647  19.810  0.00  0.00    +0.000 C 
ATOM     21  O   UNL     1      -1.515  13.798  19.923  0.00  0.00    +0.000 OA
ATOM     22  H   UNL     1      -1.578  10.664  19.400  0.00  0.00    +0.000 HD
BRANCH  20  23
ATOM     23  C   UNL     1      -3.410  12.402  19.847  0.00  0.00    +0.000 A 
ATOM     24  C   UNL     1      -4.072  11.798  18.768  0.00  0.00    +0.000 A 
ATOM     25  C   UNL     1      -5.442  11.536  18.849  0.00  0.00    +0.000 A 
ATOM     26  C   UNL     1      -6.144  11.876  20.003  0.00  0.00    +0.000 A 
ATOM     27  C   UNL     1      -5.485  12.480  21.077  0.00  0.00    +0.000 A 
ATOM     28 CL   UNL     1      -6.366  12.892  22.493  0.00  0.00    +0.000 Cl
ATOM     29  C   UNL     1      -4.117  12.736  21.005  0.00  0.00    +0.000 A 
ENDBRANCH  20  23
ENDBRANCH   4  19
TORSDOF 4
ENDMDL
