MODEL 1
REMARK VINA RESULT:      -8.1      0.000      0.000
REMARK  Name = 
REMARK  9 active torsions:
REMARK  status: ('A' for Active; 'I' for Inactive)
REMARK    1  A    between atoms: N_4  and  C_5
REMARK    2  A    between atoms: C_5  and  C_6
REMARK    3  A    between atoms: C_6  and  C_7
REMARK    4  A    between atoms: C_7  and  N_8
REMARK    5  A    between atoms: C_9  and  C_11
REMARK    6  A    between atoms: C_18  and  C_19
REMARK    7  A    between atoms: C_19  and  C_20
REMARK    8  A    between atoms: C_20  and  C_21
REMARK    9  A    between atoms: C_21  and  O_23
REMARK                            x       y       z     vdW  Elec       q    Type
REMARK                         _______ _______ _______ _____ _____    ______ ____
ROOT
ATOM      1  C   UNL     1       2.419   5.893  19.579  0.00  0.00    +0.000 C 
ATOM      2  C   UNL     1       1.929   5.028  20.760  0.00  0.00    +0.000 C 
ATOM      3  C   UNL     1       1.033   3.933  20.227  0.00  0.00    +0.000 C 
ATOM      4  C   UNL     1       1.615   3.283  18.999  0.00  0.00    +0.000 C 
ATOM      5  O   UNL     1       0.882   2.943  18.069  0.00  0.00    +0.000 OA
ATOM      6  N   UNL     1       2.988   3.060  19.009  0.00  0.00    +0.000 N 
ATOM      7  C   UNL     1       3.566   2.316  17.868  0.00  0.00    +0.000 C 
ATOM      8  C   UNL     1       3.986   3.702  17.323  0.00  0.00    +0.000 C 
ATOM      9  C   UNL     1       4.085   4.095  18.831  0.00  0.00    +0.000 C 
ATOM     10  C   UNL     1       3.869   5.547  19.280  0.00  0.00    +0.000 C 
ENDROOT
BRANCH   1  12
ATOM     11  N   UNL     1       1.676   7.514  21.171  0.00  0.00    +0.000 N 
ATOM     12  C   UNL     1       2.122   7.355  19.871  0.00  0.00    +0.000 C 
ATOM     13  O   UNL     1       2.234   8.258  19.056  0.00  0.00    +0.000 OA
ATOM     14  H   UNL     1       1.512   6.689  21.732  0.00  0.00    +0.000 HD
BRANCH  11  15
ATOM     15  C   UNL     1       1.277   8.784  21.736  0.00  0.00    +0.000 C 
BRANCH  15  16
ATOM     16  C   UNL     1      -0.200   9.082  21.479  0.00  0.00    +0.000 C 
BRANCH  16  17
ATOM     17  C   UNL     1      -0.373  10.455  20.830  0.00  0.00    +0.000 C 
BRANCH  17  21
ATOM     18  N   UNL     1      -0.428  10.582  17.965  0.00  0.00    +0.000 NA
ATOM     19  C   UNL     1       0.629  10.886  18.625  0.00  0.00    +0.000 C 
ATOM     20  N   UNL     1       1.769  11.298  18.035  0.00  0.00    +0.000 N 
ATOM     21  N   UNL     1       0.737  10.808  19.965  0.00  0.00    +0.000 N 
ATOM     22  H   UNL     1      -0.267  10.733  16.969  0.00  0.00    +0.000 HD
ATOM     23  H   UNL     1       1.833  11.094  17.046  0.00  0.00    +0.000 HD
ATOM     24  H   UNL     1       2.613  11.025  18.520  0.00  0.00    +0.000 HD
ATOM     25  H   UNL     1       1.503  11.294  20.410  0.00  0.00    +0.000 HD
ENDBRANCH  17  21
ENDBRANCH  16  17
ENDBRANCH  15  16
ENDBRANCH  11  15
ENDBRANCH   1  12
BRANCH   8  26
ATOM     26  C   UNL     1       5.201   3.649  16.410  0.00  0.00    +0.000 C 
BRANCH  26  27
ATOM     27  C   UNL     1       5.659   5.081  16.096  0.00  0.00    +0.000 C 
BRANCH  27  28
ATOM     28  C   UNL     1       7.105   5.310  16.470  0.00  0.00    +0.000 C 
ATOM     29  O   UNL     1       7.886   4.436  16.784  0.00  0.00    +0.000 OA
BRANCH  28  30
ATOM     30  O   UNL     1       7.452   6.612  16.403  0.00  0.00    +0.000 OA
ATOM     31  H   UNL     1       8.346   6.810  16.736  0.00  0.00    +0.000 HD
ENDBRANCH  28  30
ENDBRANCH  27  28
ENDBRANCH  26  27
ENDBRANCH   8  26
TORSDOF 9
ENDMDL
MODEL 2
REMARK VINA RESULT:      -7.7      1.075      1.144
REMARK  Name = 
REMARK  9 active torsions:
REMARK  status: ('A' for Active; 'I' for Inactive)
REMARK    1  A    between atoms: N_4  and  C_5
REMARK    2  A    between atoms: C_5  and  C_6
REMARK    3  A    between atoms: C_6  and  C_7
REMARK    4  A    between atoms: C_7  and  N_8
REMARK    5  A    between atoms: C_9  and  C_11
REMARK    6  A    between atoms: C_18  and  C_19
REMARK    7  A    between atoms: C_19  and  C_20
REMARK    8  A    between atoms: C_20  and  C_21
REMARK    9  A    between atoms: C_21  and  O_23
REMARK                            x       y       z     vdW  Elec       q    Type
REMARK                         _______ _______ _______ _____ _____    ______ ____
ROOT
ATOM      1  C   UNL     1       2.432   5.934  19.568  0.00  0.00    +0.000 C 
ATOM      2  C   UNL     1       1.871   5.071  20.719  0.00  0.00    +0.000 C 
ATOM      3  C   UNL     1       1.008   3.976  20.135  0.00  0.00    +0.000 C 
ATOM      4  C   UNL     1       1.663   3.323  18.945  0.00  0.00    +0.000 C 
ATOM      5  O   UNL     1       0.987   2.983  17.973  0.00  0.00    +0.000 OA
ATOM      6  N   UNL     1       3.033   3.100  19.038  0.00  0.00    +0.000 N 
ATOM      7  C   UNL     1       3.678   2.355  17.935  0.00  0.00    +0.000 C 
ATOM      8  C   UNL     1       4.130   3.740  17.413  0.00  0.00    +0.000 C 
ATOM      9  C   UNL     1       4.139   4.135  18.924  0.00  0.00    +0.000 C 
ATOM     10  C   UNL     1       3.897   5.588  19.357  0.00  0.00    +0.000 C 
ENDROOT
BRANCH   1  12
ATOM     11  N   UNL     1       1.711   7.576  21.149  0.00  0.00    +0.000 N 
ATOM     12  C   UNL     1       2.117   7.397  19.840  0.00  0.00    +0.000 C 
ATOM     13  O   UNL     1       2.187   8.285  19.003  0.00  0.00    +0.000 OA
ATOM     14  H   UNL     1       1.580   6.760  21.732  0.00  0.00    +0.000 HD
BRANCH  11  15
ATOM     15  C   UNL     1       1.307   8.850  21.701  0.00  0.00    +0.000 C 
BRANCH  15  16
ATOM     16  C   UNL     1      -0.189   9.103  21.514  0.00  0.00    +0.000 C 
BRANCH  16  17
ATOM     17  C   UNL     1      -0.434  10.106  20.386  0.00  0.00    +0.000 C 
BRANCH  17  21
ATOM     18  N   UNL     1       1.173  11.044  18.204  0.00  0.00    +0.000 NA
ATOM     19  C   UNL     1       1.187  11.634  19.342  0.00  0.00    +0.000 C 
ATOM     20  N   UNL     1       1.930  12.730  19.593  0.00  0.00    +0.000 N 
ATOM     21  N   UNL     1       0.491  11.222  20.420  0.00  0.00    +0.000 N 
ATOM     22  H   UNL     1       1.770  11.549  17.549  0.00  0.00    +0.000 HD
ATOM     23  H   UNL     1       2.674  12.898  18.929  0.00  0.00    +0.000 HD
ATOM     24  H   UNL     1       2.266  12.800  20.544  0.00  0.00    +0.000 HD
ATOM     25  H   UNL     1       0.366  11.872  21.183  0.00  0.00    +0.000 HD
ENDBRANCH  17  21
ENDBRANCH  16  17
ENDBRANCH  15  16
ENDBRANCH  11  15
ENDBRANCH   1  12
BRANCH   8  26
ATOM     26  C   UNL     1       5.398   3.685  16.575  0.00  0.00    +0.000 C 
BRANCH  26  27
ATOM     27  C   UNL     1       5.294   4.710  15.436  0.00  0.00    +0.000 C 
BRANCH  27  28
ATOM     28  C   UNL     1       6.455   4.611  14.474  0.00  0.00    +0.000 C 
ATOM     29  O   UNL     1       6.449   3.968  13.445  0.00  0.00    +0.000 OA
BRANCH  28  30
ATOM     30  O   UNL     1       7.518   5.339  14.876  0.00  0.00    +0.000 OA
ATOM     31  H   UNL     1       7.447   6.293  14.692  0.00  0.00    +0.000 HD
ENDBRANCH  28  30
ENDBRANCH  27  28
ENDBRANCH  26  27
ENDBRANCH   8  26
TORSDOF 9
ENDMDL
MODEL 3
REMARK VINA RESULT:      -7.6      1.542      2.059
REMARK  Name = 
REMARK  9 active torsions:
REMARK  status: ('A' for Active; 'I' for Inactive)
REMARK    1  A    between atoms: N_4  and  C_5
REMARK    2  A    between atoms: C_5  and  C_6
REMARK    3  A    between atoms: C_6  and  C_7
REMARK    4  A    between atoms: C_7  and  N_8
REMARK    5  A    between atoms: C_9  and  C_11
REMARK    6  A    between atoms: C_18  and  C_19
REMARK    7  A    between atoms: C_19  and  C_20
REMARK    8  A    between atoms: C_20  and  C_21
REMARK    9  A    between atoms: C_21  and  O_23
REMARK                            x       y       z     vdW  Elec       q    Type
REMARK                         _______ _______ _______ _____ _____    ______ ____
ROOT
ATOM      1  C   UNL     1       2.457   5.830  19.553  0.00  0.00    +0.000 C 
ATOM      2  C   UNL     1       1.973   5.007  20.765  0.00  0.00    +0.000 C 
ATOM      3  C   UNL     1       1.137   3.848  20.270  0.00  0.00    +0.000 C 
ATOM      4  C   UNL     1       1.778   3.161  19.092  0.00  0.00    +0.000 C 
ATOM      5  O   UNL     1       1.084   2.742  18.165  0.00  0.00    +0.000 OA
ATOM      6  N   UNL     1       3.159   2.998  19.147  0.00  0.00    +0.000 N 
ATOM      7  C   UNL     1       3.797   2.222  18.061  0.00  0.00    +0.000 C 
ATOM      8  C   UNL     1       4.172   3.594  17.454  0.00  0.00    +0.000 C 
ATOM      9  C   UNL     1       4.216   4.069  18.940  0.00  0.00    +0.000 C 
ATOM     10  C   UNL     1       3.927   5.532  19.307  0.00  0.00    +0.000 C 
ENDROOT
BRANCH   1  12
ATOM     11  N   UNL     1       2.138   7.982  18.563  0.00  0.00    +0.000 N 
ATOM     12  C   UNL     1       2.091   7.291  19.760  0.00  0.00    +0.000 C 
ATOM     13  O   UNL     1       1.821   7.788  20.843  0.00  0.00    +0.000 OA
ATOM     14  H   UNL     1       2.480   7.504  17.740  0.00  0.00    +0.000 HD
BRANCH  11  15
ATOM     15  C   UNL     1       1.877   9.399  18.439  0.00  0.00    +0.000 C 
BRANCH  15  16
ATOM     16  C   UNL     1       0.463   9.675  17.930  0.00  0.00    +0.000 C 
BRANCH  16  17
ATOM     17  C   UNL     1      -0.383  10.347  19.012  0.00  0.00    +0.000 C 
BRANCH  17  21
ATOM     18  N   UNL     1      -1.154  12.752  17.653  0.00  0.00    +0.000 NA
ATOM     19  C   UNL     1      -2.000  11.816  17.882  0.00  0.00    +0.000 C 
ATOM     20  N   UNL     1      -3.289  11.881  17.494  0.00  0.00    +0.000 N 
ATOM     21  N   UNL     1      -1.716  10.681  18.551  0.00  0.00    +0.000 N 
ATOM     22  H   UNL     1      -1.602  13.499  17.123  0.00  0.00    +0.000 HD
ATOM     23  H   UNL     1      -3.615  12.810  17.259  0.00  0.00    +0.000 HD
ATOM     24  H   UNL     1      -3.937  11.412  18.111  0.00  0.00    +0.000 HD
ATOM     25  H   UNL     1      -2.360   9.907  18.468  0.00  0.00    +0.000 HD
ENDBRANCH  17  21
ENDBRANCH  16  17
ENDBRANCH  15  16
ENDBRANCH  11  15
ENDBRANCH   1  12
BRANCH   8  26
ATOM     26  C   UNL     1       5.412   3.547  16.574  0.00  0.00    +0.000 C 
BRANCH  26  27
ATOM     27  C   UNL     1       5.214   4.482  15.372  0.00  0.00    +0.000 C 
BRANCH  27  28
ATOM     28  C   UNL     1       5.978   5.777  15.527  0.00  0.00    +0.000 C 
ATOM     29  O   UNL     1       5.471   6.878  15.573  0.00  0.00    +0.000 OA
BRANCH  28  30
ATOM     30  O   UNL     1       7.309   5.579  15.625  0.00  0.00    +0.000 OA
ATOM     31  H   UNL     1       7.769   6.209  16.210  0.00  0.00    +0.000 HD
ENDBRANCH  28  30
ENDBRANCH  27  28
ENDBRANCH  26  27
ENDBRANCH   8  26
TORSDOF 9
ENDMDL
MODEL 4
REMARK VINA RESULT:      -7.6      1.256      1.629
REMARK  Name = 
REMARK  9 active torsions:
REMARK  status: ('A' for Active; 'I' for Inactive)
REMARK    1  A    between atoms: N_4  and  C_5
REMARK    2  A    between atoms: C_5  and  C_6
REMARK    3  A    between atoms: C_6  and  C_7
REMARK    4  A    between atoms: C_7  and  N_8
REMARK    5  A    between atoms: C_9  and  C_11
REMARK    6  A    between atoms: C_18  and  C_19
REMARK    7  A    between atoms: C_19  and  C_20
REMARK    8  A    between atoms: C_20  and  C_21
REMARK    9  A    between atoms: C_21  and  O_23
REMARK                            x       y       z     vdW  Elec       q    Type
REMARK                         _______ _______ _______ _____ _____    ______ ____
ROOT
ATOM      1  C   UNL     1       2.534   6.213  19.159  0.00  0.00    +0.000 C 
ATOM      2  C   UNL     1       2.028   5.505  20.434  0.00  0.00    +0.000 C 
ATOM      3  C   UNL     1       1.150   4.341  20.033  0.00  0.00    +0.000 C 
ATOM      4  C   UNL     1       1.760   3.542  18.910  0.00  0.00    +0.000 C 
ATOM      5  O   UNL     1       1.047   3.077  18.021  0.00  0.00    +0.000 OA
ATOM      6  N   UNL     1       3.135   3.336  18.974  0.00  0.00    +0.000 N 
ATOM      7  C   UNL     1       3.739   2.456  17.950  0.00  0.00    +0.000 C 
ATOM      8  C   UNL     1       4.158   3.762  17.236  0.00  0.00    +0.000 C 
ATOM      9  C   UNL     1       4.227   4.350  18.681  0.00  0.00    +0.000 C 
ATOM     10  C   UNL     1       3.991   5.846  18.932  0.00  0.00    +0.000 C 
ENDROOT
BRANCH   1  12
ATOM     11  N   UNL     1       1.580   7.989  20.443  0.00  0.00    +0.000 N 
ATOM     12  C   UNL     1       2.219   7.698  19.252  0.00  0.00    +0.000 C 
ATOM     13  O   UNL     1       2.473   8.513  18.378  0.00  0.00    +0.000 OA
ATOM     14  H   UNL     1       1.317   7.226  21.052  0.00  0.00    +0.000 HD
BRANCH  11  15
ATOM     15  C   UNL     1       1.119   9.310  20.808  0.00  0.00    +0.000 C 
BRANCH  15  16
ATOM     16  C   UNL     1      -0.308   9.569  20.326  0.00  0.00    +0.000 C 
BRANCH  16  17
ATOM     17  C   UNL     1      -0.306  10.371  19.025  0.00  0.00    +0.000 C 
BRANCH  17  21
ATOM     18  N   UNL     1      -1.081  12.701  17.543  0.00  0.00    +0.000 NA
ATOM     19  C   UNL     1      -1.929  11.784  17.832  0.00  0.00    +0.000 C 
ATOM     20  N   UNL     1      -3.222  11.834  17.456  0.00  0.00    +0.000 N 
ATOM     21  N   UNL     1      -1.642  10.687  18.560  0.00  0.00    +0.000 N 
ATOM     22  H   UNL     1      -1.532  13.420  16.977  0.00  0.00    +0.000 HD
ATOM     23  H   UNL     1      -3.546  12.749  17.173  0.00  0.00    +0.000 HD
ATOM     24  H   UNL     1      -3.865  11.403  18.106  0.00  0.00    +0.000 HD
ATOM     25  H   UNL     1      -2.291   9.912  18.528  0.00  0.00    +0.000 HD
ENDBRANCH  17  21
ENDBRANCH  16  17
ENDBRANCH  15  16
ENDBRANCH  11  15
ENDBRANCH   1  12
BRANCH   8  26
ATOM     26  C   UNL     1       5.391   3.603  16.359  0.00  0.00    +0.000 C 
BRANCH  26  27
ATOM     27  C   UNL     1       5.508   4.819  15.428  0.00  0.00    +0.000 C 
BRANCH  27  28
ATOM     28  C   UNL     1       6.879   5.452  15.489  0.00  0.00    +0.000 C 
ATOM     29  O   UNL     1       7.326   6.046  16.448  0.00  0.00    +0.000 OA
BRANCH  28  30
ATOM     30  O   UNL     1       7.578   5.273  14.348  0.00  0.00    +0.000 OA
ATOM     31  H   UNL     1       8.453   4.862  14.471  0.00  0.00    +0.000 HD
ENDBRANCH  28  30
ENDBRANCH  27  28
ENDBRANCH  26  27
ENDBRANCH   8  26
TORSDOF 9
ENDMDL
MODEL 5
REMARK VINA RESULT:      -7.5      1.329      1.741
REMARK  Name = 
REMARK  9 active torsions:
REMARK  status: ('A' for Active; 'I' for Inactive)
REMARK    1  A    between atoms: N_4  and  C_5
REMARK    2  A    between atoms: C_5  and  C_6
REMARK    3  A    between atoms: C_6  and  C_7
REMARK    4  A    between atoms: C_7  and  N_8
REMARK    5  A    between atoms: C_9  and  C_11
REMARK    6  A    between atoms: C_18  and  C_19
REMARK    7  A    between atoms: C_19  and  C_20
REMARK    8  A    between atoms: C_20  and  C_21
REMARK    9  A    between atoms: C_21  and  O_23
REMARK                            x       y       z     vdW  Elec       q    Type
REMARK                         _______ _______ _______ _____ _____    ______ ____
ROOT
ATOM      1  C   UNL     1       2.348   5.899  19.518  0.00  0.00    +0.000 C 
ATOM      2  C   UNL     1       1.899   5.071  20.741  0.00  0.00    +0.000 C 
ATOM      3  C   UNL     1       1.046   3.917  20.266  0.00  0.00    +0.000 C 
ATOM      4  C   UNL     1       1.648   3.234  19.065  0.00  0.00    +0.000 C 
ATOM      5  O   UNL     1       0.925   2.821  18.158  0.00  0.00    +0.000 OA
ATOM      6  N   UNL     1       3.030   3.068  19.077  0.00  0.00    +0.000 N 
ATOM      7  C   UNL     1       3.632   2.295  17.968  0.00  0.00    +0.000 C 
ATOM      8  C   UNL     1       3.992   3.669  17.356  0.00  0.00    +0.000 C 
ATOM      9  C   UNL     1       4.083   4.137  18.843  0.00  0.00    +0.000 C 
ATOM     10  C   UNL     1       3.809   5.598  19.225  0.00  0.00    +0.000 C 
ENDROOT
BRANCH   1  12
ATOM     11  N   UNL     1       2.161   8.090  18.580  0.00  0.00    +0.000 N 
ATOM     12  C   UNL     1       1.992   7.360  19.743  0.00  0.00    +0.000 C 
ATOM     13  O   UNL     1       1.634   7.826  20.815  0.00  0.00    +0.000 OA
ATOM     14  H   UNL     1       2.567   7.633  17.775  0.00  0.00    +0.000 HD
BRANCH  11  15
ATOM     15  C   UNL     1       1.939   9.515  18.485  0.00  0.00    +0.000 C 
BRANCH  15  16
ATOM     16  C   UNL     1       0.519   9.840  18.022  0.00  0.00    +0.000 C 
BRANCH  16  17
ATOM     17  C   UNL     1      -0.270  10.534  19.133  0.00  0.00    +0.000 C 
BRANCH  17  21
ATOM     18  N   UNL     1      -1.643  12.345  17.384  0.00  0.00    +0.000 NA
ATOM     19  C   UNL     1      -0.833  12.772  18.281  0.00  0.00    +0.000 C 
ATOM     20  N   UNL     1      -0.580  14.081  18.480  0.00  0.00    +0.000 N 
ATOM     21  N   UNL     1      -0.124  11.976  19.106  0.00  0.00    +0.000 N 
ATOM     22  H   UNL     1      -2.064  13.136  16.897  0.00  0.00    +0.000 HD
ATOM     23  H   UNL     1      -0.850  14.685  17.715  0.00  0.00    +0.000 HD
ATOM     24  H   UNL     1       0.360  14.284  18.792  0.00  0.00    +0.000 HD
ATOM     25  H   UNL     1       0.289  12.392  19.929  0.00  0.00    +0.000 HD
ENDBRANCH  17  21
ENDBRANCH  16  17
ENDBRANCH  15  16
ENDBRANCH  11  15
ENDBRANCH   1  12
BRANCH   8  26
ATOM     26  C   UNL     1       5.204   3.623  16.438  0.00  0.00    +0.000 C 
BRANCH  26  27
ATOM     27  C   UNL     1       5.476   5.032  15.890  0.00  0.00    +0.000 C 
BRANCH  27  28
ATOM     28  C   UNL     1       6.849   5.535  16.270  0.00  0.00    +0.000 C 
ATOM     29  O   UNL     1       7.100   6.672  16.610  0.00  0.00    +0.000 OA
BRANCH  28  30
ATOM     30  O   UNL     1       7.786   4.566  16.205  0.00  0.00    +0.000 OA
ATOM     31  H   UNL     1       8.639   4.801  16.616  0.00  0.00    +0.000 HD
ENDBRANCH  28  30
ENDBRANCH  27  28
ENDBRANCH  26  27
ENDBRANCH   8  26
TORSDOF 9
ENDMDL
MODEL 6
REMARK VINA RESULT:      -7.5      1.346      1.471
REMARK  Name = 
REMARK  9 active torsions:
REMARK  status: ('A' for Active; 'I' for Inactive)
REMARK    1  A    between atoms: N_4  and  C_5
REMARK    2  A    between atoms: C_5  and  C_6
REMARK    3  A    between atoms: C_6  and  C_7
REMARK    4  A    between atoms: C_7  and  N_8
REMARK    5  A    between atoms: C_9  and  C_11
REMARK    6  A    between atoms: C_18  and  C_19
REMARK    7  A    between atoms: C_19  and  C_20
REMARK    8  A    between atoms: C_20  and  C_21
REMARK    9  A    between atoms: C_21  and  O_23
REMARK                            x       y       z     vdW  Elec       q    Type
REMARK                         _______ _______ _______ _____ _____    ______ ____
ROOT
ATOM      1  C   UNL     1       2.441   5.995  19.476  0.00  0.00    +0.000 C 
ATOM      2  C   UNL     1       1.891   5.182  20.667  0.00  0.00    +0.000 C 
ATOM      3  C   UNL     1       1.004   4.077  20.138  0.00  0.00    +0.000 C 
ATOM      4  C   UNL     1       1.629   3.373  18.961  0.00  0.00    +0.000 C 
ATOM      5  O   UNL     1       0.931   3.006  18.015  0.00  0.00    +0.000 OA
ATOM      6  N   UNL     1       2.998   3.136  19.038  0.00  0.00    +0.000 N 
ATOM      7  C   UNL     1       3.614   2.343  17.951  0.00  0.00    +0.000 C 
ATOM      8  C   UNL     1       4.073   3.702  17.372  0.00  0.00    +0.000 C 
ATOM      9  C   UNL     1       4.115   4.152  18.867  0.00  0.00    +0.000 C 
ATOM     10  C   UNL     1       3.897   5.622  19.251  0.00  0.00    +0.000 C 
ENDROOT
BRANCH   1  12
ATOM     11  N   UNL     1       1.624   7.680  20.961  0.00  0.00    +0.000 N 
ATOM     12  C   UNL     1       2.149   7.470  19.699  0.00  0.00    +0.000 C 
ATOM     13  O   UNL     1       2.329   8.344  18.863  0.00  0.00    +0.000 OA
ATOM     14  H   UNL     1       1.411   6.877  21.538  0.00  0.00    +0.000 HD
BRANCH  11  15
ATOM     15  C   UNL     1       1.210   8.974  21.457  0.00  0.00    +0.000 C 
BRANCH  15  16
ATOM     16  C   UNL     1      -0.268   9.244  21.179  0.00  0.00    +0.000 C 
BRANCH  16  17
ATOM     17  C   UNL     1      -0.443  10.019  19.872  0.00  0.00    +0.000 C 
BRANCH  17  21
ATOM     18  N   UNL     1      -1.133  11.908  17.828  0.00  0.00    +0.000 NA
ATOM     19  C   UNL     1      -1.322  12.171  19.068  0.00  0.00    +0.000 C 
ATOM     20  N   UNL     1      -1.864  13.327  19.499  0.00  0.00    +0.000 N 
ATOM     21  N   UNL     1      -0.982  11.349  20.080  0.00  0.00    +0.000 N 
ATOM     22  H   UNL     1      -1.481  12.678  17.256  0.00  0.00    +0.000 HD
ATOM     23  H   UNL     1      -1.862  14.076  18.819  0.00  0.00    +0.000 HD
ATOM     24  H   UNL     1      -1.518  13.645  20.394  0.00  0.00    +0.000 HD
ATOM     25  H   UNL     1      -1.386  11.522  20.990  0.00  0.00    +0.000 HD
ENDBRANCH  17  21
ENDBRANCH  16  17
ENDBRANCH  15  16
ENDBRANCH  11  15
ENDBRANCH   1  12
BRANCH   8  26
ATOM     26  C   UNL     1       5.325   3.601  16.514  0.00  0.00    +0.000 C 
BRANCH  26  27
ATOM     27  C   UNL     1       5.382   4.805  15.562  0.00  0.00    +0.000 C 
BRANCH  27  28
ATOM     28  C   UNL     1       6.473   4.660  14.527  0.00  0.00    +0.000 C 
ATOM     29  O   UNL     1       6.425   3.919  13.568  0.00  0.00    +0.000 OA
BRANCH  28  30
ATOM     30  O   UNL     1       7.526   5.468  14.776  0.00  0.00    +0.000 OA
ATOM     31  H   UNL     1       8.113   5.158  15.490  0.00  0.00    +0.000 HD
ENDBRANCH  28  30
ENDBRANCH  27  28
ENDBRANCH  26  27
ENDBRANCH   8  26
TORSDOF 9
ENDMDL
MODEL 7
REMARK VINA RESULT:      -7.4      1.428      1.878
REMARK  Name = 
REMARK  9 active torsions:
REMARK  status: ('A' for Active; 'I' for Inactive)
REMARK    1  A    between atoms: N_4  and  C_5
REMARK    2  A    between atoms: C_5  and  C_6
REMARK    3  A    between atoms: C_6  and  C_7
REMARK    4  A    between atoms: C_7  and  N_8
REMARK    5  A    between atoms: C_9  and  C_11
REMARK    6  A    between atoms: C_18  and  C_19
REMARK    7  A    between atoms: C_19  and  C_20
REMARK    8  A    between atoms: C_20  and  C_21
REMARK    9  A    between atoms: C_21  and  O_23
REMARK                            x       y       z     vdW  Elec       q    Type
REMARK                         _______ _______ _______ _____ _____    ______ ____
ROOT
ATOM      1  C   UNL     1       2.350   6.009  19.508  0.00  0.00    +0.000 C 
ATOM      2  C   UNL     1       1.899   5.165  20.719  0.00  0.00    +0.000 C 
ATOM      3  C   UNL     1       1.036   4.024  20.228  0.00  0.00    +0.000 C 
ATOM      4  C   UNL     1       1.629   3.356  19.015  0.00  0.00    +0.000 C 
ATOM      5  O   UNL     1       0.900   2.964  18.103  0.00  0.00    +0.000 OA
ATOM      6  N   UNL     1       3.010   3.180  19.019  0.00  0.00    +0.000 N 
ATOM      7  C   UNL     1       3.602   2.421  17.896  0.00  0.00    +0.000 C 
ATOM      8  C   UNL     1       3.970   3.803  17.305  0.00  0.00    +0.000 C 
ATOM      9  C   UNL     1       4.070   4.245  18.798  0.00  0.00    +0.000 C 
ATOM     10  C   UNL     1       3.808   5.702  19.205  0.00  0.00    +0.000 C 
ENDROOT
BRANCH   1  12
ATOM     11  N   UNL     1       1.958   8.171  18.568  0.00  0.00    +0.000 N 
ATOM     12  C   UNL     1       2.006   7.468  19.758  0.00  0.00    +0.000 C 
ATOM     13  O   UNL     1       1.826   7.955  20.864  0.00  0.00    +0.000 OA
ATOM     14  H   UNL     1       2.231   7.701  17.715  0.00  0.00    +0.000 HD
BRANCH  11  15
ATOM     15  C   UNL     1       1.692   9.589  18.480  0.00  0.00    +0.000 C 
BRANCH  15  16
ATOM     16  C   UNL     1       0.231   9.914  18.787  0.00  0.00    +0.000 C 
BRANCH  16  17
ATOM     17  C   UNL     1      -0.035  11.414  18.644  0.00  0.00    +0.000 C 
BRANCH  17  21
ATOM     18  N   UNL     1      -2.049  11.616  16.613  0.00  0.00    +0.000 NA
ATOM     19  C   UNL     1      -2.332  11.794  17.851  0.00  0.00    +0.000 C 
ATOM     20  N   UNL     1      -3.577  12.068  18.288  0.00  0.00    +0.000 N 
ATOM     21  N   UNL     1      -1.428  11.756  18.850  0.00  0.00    +0.000 N 
ATOM     22  H   UNL     1      -2.900  11.683  16.054  0.00  0.00    +0.000 HD
ATOM     23  H   UNL     1      -4.215  12.393  17.573  0.00  0.00    +0.000 HD
ATOM     24  H   UNL     1      -3.614  12.661  19.106  0.00  0.00    +0.000 HD
ATOM     25  H   UNL     1      -1.770  11.660  19.796  0.00  0.00    +0.000 HD
ENDBRANCH  17  21
ENDBRANCH  16  17
ENDBRANCH  15  16
ENDBRANCH  11  15
ENDBRANCH   1  12
BRANCH   8  26
ATOM     26  C   UNL     1       5.179   3.762  16.382  0.00  0.00    +0.000 C 
BRANCH  26  27
ATOM     27  C   UNL     1       5.669   5.196  16.129  0.00  0.00    +0.000 C 
BRANCH  27  28
ATOM     28  C   UNL     1       7.130   5.366  16.473  0.00  0.00    +0.000 C 
ATOM     29  O   UNL     1       7.881   4.462  16.775  0.00  0.00    +0.000 OA
BRANCH  28  30
ATOM     30  O   UNL     1       7.529   6.653  16.396  0.00  0.00    +0.000 OA
ATOM     31  H   UNL     1       7.980   6.985  17.194  0.00  0.00    +0.000 HD
ENDBRANCH  28  30
ENDBRANCH  27  28
ENDBRANCH  26  27
ENDBRANCH   8  26
TORSDOF 9
ENDMDL
MODEL 8
REMARK VINA RESULT:      -7.4      1.426      1.880
REMARK  Name = 
REMARK  9 active torsions:
REMARK  status: ('A' for Active; 'I' for Inactive)
REMARK    1  A    between atoms: N_4  and  C_5
REMARK    2  A    between atoms: C_5  and  C_6
REMARK    3  A    between atoms: C_6  and  C_7
REMARK    4  A    between atoms: C_7  and  N_8
REMARK    5  A    between atoms: C_9  and  C_11
REMARK    6  A    between atoms: C_18  and  C_19
REMARK    7  A    between atoms: C_19  and  C_20
REMARK    8  A    between atoms: C_20  and  C_21
REMARK    9  A    between atoms: C_21  and  O_23
REMARK                            x       y       z     vdW  Elec       q    Type
REMARK                         _______ _______ _______ _____ _____    ______ ____
ROOT
ATOM      1  C   UNL     1       2.388   5.925  19.598  0.00  0.00    +0.000 C 
ATOM      2  C   UNL     1       1.896   5.055  20.774  0.00  0.00    +0.000 C 
ATOM      3  C   UNL     1       1.027   3.943  20.231  0.00  0.00    +0.000 C 
ATOM      4  C   UNL     1       1.638   3.300  19.013  0.00  0.00    +0.000 C 
ATOM      5  O   UNL     1       0.925   2.945  18.074  0.00  0.00    +0.000 OA
ATOM      6  N   UNL     1       3.015   3.101  19.044  0.00  0.00    +0.000 N 
ATOM      7  C   UNL     1       3.622   2.365  17.913  0.00  0.00    +0.000 C 
ATOM      8  C   UNL     1       4.026   3.757  17.370  0.00  0.00    +0.000 C 
ATOM      9  C   UNL     1       4.097   4.155  18.878  0.00  0.00    +0.000 C 
ATOM     10  C   UNL     1       3.848   5.604  19.320  0.00  0.00    +0.000 C 
ENDROOT
BRANCH   1  12
ATOM     11  N   UNL     1       1.716   7.557  21.210  0.00  0.00    +0.000 N 
ATOM     12  C   UNL     1       2.061   7.382  19.882  0.00  0.00    +0.000 C 
ATOM     13  O   UNL     1       2.073   8.269  19.041  0.00  0.00    +0.000 OA
ATOM     14  H   UNL     1       1.629   6.741  21.800  0.00  0.00    +0.000 HD
BRANCH  11  15
ATOM     15  C   UNL     1       1.316   8.825  21.778  0.00  0.00    +0.000 C 
BRANCH  15  16
ATOM     16  C   UNL     1      -0.193   9.045  21.676  0.00  0.00    +0.000 C 
BRANCH  16  17
ATOM     17  C   UNL     1      -0.504  10.339  20.923  0.00  0.00    +0.000 C 
BRANCH  17  21
ATOM     18  N   UNL     1       0.839  12.803  21.510  0.00  0.00    +0.000 NA
ATOM     19  C   UNL     1      -0.319  12.544  21.996  0.00  0.00    +0.000 C 
ATOM     20  N   UNL     1      -0.989  13.400  22.792  0.00  0.00    +0.000 N 
ATOM     21  N   UNL     1      -0.986  11.391  21.796  0.00  0.00    +0.000 N 
ATOM     22  H   UNL     1       1.129  13.739  21.794  0.00  0.00    +0.000 HD
ATOM     23  H   UNL     1      -0.422  14.131  23.202  0.00  0.00    +0.000 HD
ATOM     24  H   UNL     1      -1.573  12.957  23.488  0.00  0.00    +0.000 HD
ATOM     25  H   UNL     1      -1.975  11.372  22.003  0.00  0.00    +0.000 HD
ENDBRANCH  17  21
ENDBRANCH  16  17
ENDBRANCH  15  16
ENDBRANCH  11  15
ENDBRANCH   1  12
BRANCH   8  26
ATOM     26  C   UNL     1       5.255   3.723  16.475  0.00  0.00    +0.000 C 
BRANCH  26  27
ATOM     27  C   UNL     1       5.262   4.972  15.581  0.00  0.00    +0.000 C 
BRANCH  27  28
ATOM     28  C   UNL     1       6.345   5.948  15.977  0.00  0.00    +0.000 C 
ATOM     29  O   UNL     1       6.172   6.934  16.664  0.00  0.00    +0.000 OA
BRANCH  28  30
ATOM     30  O   UNL     1       7.554   5.598  15.492  0.00  0.00    +0.000 OA
ATOM     31  H   UNL     1       7.532   4.883  14.830  0.00  0.00    +0.000 HD
ENDBRANCH  28  30
ENDBRANCH  27  28
ENDBRANCH  26  27
ENDBRANCH   8  26
TORSDOF 9
ENDMDL
MODEL 9
REMARK VINA RESULT:      -7.3      1.446      2.076
REMARK  Name = 
REMARK  9 active torsions:
REMARK  status: ('A' for Active; 'I' for Inactive)
REMARK    1  A    between atoms: N_4  and  C_5
REMARK    2  A    between atoms: C_5  and  C_6
REMARK    3  A    between atoms: C_6  and  C_7
REMARK    4  A    between atoms: C_7  and  N_8
REMARK    5  A    between atoms: C_9  and  C_11
REMARK    6  A    between atoms: C_18  and  C_19
REMARK    7  A    between atoms: C_19  and  C_20
REMARK    8  A    between atoms: C_20  and  C_21
REMARK    9  A    between atoms: C_21  and  O_23
REMARK                            x       y       z     vdW  Elec       q    Type
REMARK                         _______ _______ _______ _____ _____    ______ ____
ROOT
ATOM      1  C   UNL     1       2.417   5.917  19.505  0.00  0.00    +0.000 C 
ATOM      2  C   UNL     1       1.906   5.126  20.727  0.00  0.00    +0.000 C 
ATOM      3  C   UNL     1       1.006   4.009  20.248  0.00  0.00    +0.000 C 
ATOM      4  C   UNL     1       1.595   3.285  19.066  0.00  0.00    +0.000 C 
ATOM      5  O   UNL     1       0.870   2.899  18.149  0.00  0.00    +0.000 OA
ATOM      6  N   UNL     1       2.967   3.052  19.105  0.00  0.00    +0.000 N 
ATOM      7  C   UNL     1       3.550   2.239  18.016  0.00  0.00    +0.000 C 
ATOM      8  C   UNL     1       3.989   3.587  17.397  0.00  0.00    +0.000 C 
ATOM      9  C   UNL     1       4.075   4.065  18.880  0.00  0.00    +0.000 C 
ATOM     10  C   UNL     1       3.866   5.543  19.243  0.00  0.00    +0.000 C 
ENDROOT
BRANCH   1  12
ATOM     11  N   UNL     1       1.602   7.624  20.967  0.00  0.00    +0.000 N 
ATOM     12  C   UNL     1       2.129   7.396  19.709  0.00  0.00    +0.000 C 
ATOM     13  O   UNL     1       2.312   8.258  18.862  0.00  0.00    +0.000 OA
ATOM     14  H   UNL     1       1.386   6.829  21.554  0.00  0.00    +0.000 HD
BRANCH  11  15
ATOM     15  C   UNL     1       1.191   8.925  21.446  0.00  0.00    +0.000 C 
BRANCH  15  16
ATOM     16  C   UNL     1       0.025   9.487  20.635  0.00  0.00    +0.000 C 
BRANCH  16  17
ATOM     17  C   UNL     1       0.062  11.016  20.616  0.00  0.00    +0.000 C 
BRANCH  17  21
ATOM     18  N   UNL     1      -0.817  11.515  23.300  0.00  0.00    +0.000 NA
ATOM     19  C   UNL     1      -1.533  11.852  22.291  0.00  0.00    +0.000 C 
ATOM     20  N   UNL     1      -2.724  12.471  22.411  0.00  0.00    +0.000 N 
ATOM     21  N   UNL     1      -1.201  11.610  21.008  0.00  0.00    +0.000 N 
ATOM     22  H   UNL     1      -1.274  11.815  24.161  0.00  0.00    +0.000 HD
ATOM     23  H   UNL     1      -3.144  12.410  23.330  0.00  0.00    +0.000 HD
ATOM     24  H   UNL     1      -3.392  12.239  21.688  0.00  0.00    +0.000 HD
ATOM     25  H   UNL     1      -1.690  12.121  20.286  0.00  0.00    +0.000 HD
ENDBRANCH  17  21
ENDBRANCH  16  17
ENDBRANCH  15  16
ENDBRANCH  11  15
ENDBRANCH   1  12
BRANCH   8  26
ATOM     26  C   UNL     1       5.213   3.472  16.502  0.00  0.00    +0.000 C 
BRANCH  26  27
ATOM     27  C   UNL     1       5.567   4.860  15.949  0.00  0.00    +0.000 C 
BRANCH  27  28
ATOM     28  C   UNL     1       7.048   5.010  15.692  0.00  0.00    +0.000 C 
ATOM     29  O   UNL     1       7.532   5.549  14.719  0.00  0.00    +0.000 OA
BRANCH  28  30
ATOM     30  O   UNL     1       7.797   4.484  16.685  0.00  0.00    +0.000 OA
ATOM     31  H   UNL     1       8.017   5.109  17.400  0.00  0.00    +0.000 HD
ENDBRANCH  28  30
ENDBRANCH  27  28
ENDBRANCH  26  27
ENDBRANCH   8  26
TORSDOF 9
ENDMDL
