MODEL 1
REMARK VINA RESULT:      -8.1      0.000      0.000
REMARK  Name = 
REMARK  5 active torsions:
REMARK  status: ('A' for Active; 'I' for Inactive)
REMARK    1  A    between atoms: C_1  and  O_2
REMARK    2  A    between atoms: O_2  and  C_3
REMARK    3  A    between atoms: C_7  and  C_8
REMARK    4  A    between atoms: C_8  and  N_9
REMARK    5  A    between atoms: C_13  and  C_14
REMARK                            x       y       z     vdW  Elec       q    Type
REMARK                         _______ _______ _______ _____ _____    ______ ____
ROOT
ATOM      1  N   UNL     1       4.937   3.119  17.999  0.00  0.00    +0.000 N 
ATOM      2  C   UNL     1       5.761   3.813  17.125  0.00  0.00    +0.000 A 
ATOM      3  N   UNL     1       5.636   3.621  15.838  0.00  0.00    +0.000 NA
ATOM      4  C   UNL     1       6.375   4.398  14.990  0.00  0.00    +0.000 A 
ATOM      5  C   UNL     1       6.642   4.400  13.632  0.00  0.00    +0.000 A 
ATOM      6  N   UNL     1       7.468   5.463  13.328  0.00  0.00    +0.000 NA
ATOM      7  N   UNL     1       7.704   6.142  14.441  0.00  0.00    +0.000 NA
ATOM      8  N   UNL     1       7.078   5.495  15.441  0.00  0.00    +0.000 N 
ATOM      9  C   UNL     1       7.228   5.795  16.796  0.00  0.00    +0.000 A 
ATOM     10  C   UNL     1       7.924   6.918  17.239  0.00  0.00    +0.000 A 
ATOM     11  C   UNL     1       8.173   7.051  18.602  0.00  0.00    +0.000 A 
ATOM     12  C   UNL     1       7.757   6.052  19.492  0.00  0.00    +0.000 A 
ATOM     13  C   UNL     1       7.001   4.962  19.041  0.00  0.00    +0.000 A 
ATOM     14  C   UNL     1       6.694   4.855  17.685  0.00  0.00    +0.000 A 
ATOM     15  H   UNL     1       5.412   2.332  18.434  0.00  0.00    +0.000 HD
ENDROOT
BRANCH   5  16
ATOM     16  C   UNL     1       6.162   3.465  12.624  0.00  0.00    +0.000 A 
ATOM     17  C   UNL     1       6.998   2.501  12.047  0.00  0.00    +0.000 A 
ATOM     18  C   UNL     1       6.503   1.596  11.103  0.00  0.00    +0.000 A 
ATOM     19  C   UNL     1       5.163   1.646  10.725  0.00  0.00    +0.000 A 
ATOM     20  C   UNL     1       4.319   2.602  11.284  0.00  0.00    +0.000 A 
ATOM     21  C   UNL     1       4.816   3.508  12.226  0.00  0.00    +0.000 A 
ENDBRANCH   5  16
BRANCH   1  22
ATOM     22  C   UNL     1       3.623   2.706  17.504  0.00  0.00    +0.000 C 
BRANCH  22  27
ATOM     23  C   UNL     1       1.625   4.749  20.035  0.00  0.00    +0.000 A 
ATOM     24  C   UNL     1       0.531   3.910  20.258  0.00  0.00    +0.000 A 
ATOM     25  C   UNL     1       0.422   2.693  19.584  0.00  0.00    +0.000 A 
ATOM     26  C   UNL     1       1.409   2.307  18.676  0.00  0.00    +0.000 A 
ATOM     27  C   UNL     1       2.508   3.141  18.428  0.00  0.00    +0.000 A 
ATOM     28  C   UNL     1       2.606   4.364  19.120  0.00  0.00    +0.000 A 
BRANCH  23  30
ATOM     29  C   UNL     1       2.024   7.094  20.119  0.00  0.00    +0.000 C 
ATOM     30  O   UNL     1       1.620   5.900  20.776  0.00  0.00    +0.000 OA
ENDBRANCH  23  30
ENDBRANCH  22  27
ENDBRANCH   1  22
TORSDOF 4
ENDMDL
MODEL 2
REMARK VINA RESULT:      -7.6      7.368     11.946
REMARK  Name = 
REMARK  5 active torsions:
REMARK  status: ('A' for Active; 'I' for Inactive)
REMARK    1  A    between atoms: C_1  and  O_2
REMARK    2  A    between atoms: O_2  and  C_3
REMARK    3  A    between atoms: C_7  and  C_8
REMARK    4  A    between atoms: C_8  and  N_9
REMARK    5  A    between atoms: C_13  and  C_14
REMARK                            x       y       z     vdW  Elec       q    Type
REMARK                         _______ _______ _______ _____ _____    ______ ____
ROOT
ATOM      1  N   UNL     1       0.173  11.820  18.053  0.00  0.00    +0.000 N 
ATOM      2  C   UNL     1       0.244  11.189  19.286  0.00  0.00    +0.000 A 
ATOM      3  N   UNL     1      -0.450  11.661  20.287  0.00  0.00    +0.000 NA
ATOM      4  C   UNL     1      -0.458  10.959  21.460  0.00  0.00    +0.000 A 
ATOM      5  C   UNL     1      -0.914  11.191  22.747  0.00  0.00    +0.000 A 
ATOM      6  N   UNL     1      -0.650  10.086  23.533  0.00  0.00    +0.000 NA
ATOM      7  N   UNL     1      -0.075   9.162  22.778  0.00  0.00    +0.000 NA
ATOM      8  N   UNL     1       0.069   9.688  21.547  0.00  0.00    +0.000 N 
ATOM      9  C   UNL     1       0.790   9.094  20.511  0.00  0.00    +0.000 A 
ATOM     10  C   UNL     1       1.301   7.801  20.603  0.00  0.00    +0.000 A 
ATOM     11  C   UNL     1       2.152   7.349  19.598  0.00  0.00    +0.000 A 
ATOM     12  C   UNL     1       2.505   8.199  18.543  0.00  0.00    +0.000 A 
ATOM     13  C   UNL     1       1.932   9.473  18.428  0.00  0.00    +0.000 A 
ATOM     14  C   UNL     1       1.030   9.909  19.398  0.00  0.00    +0.000 A 
ATOM     15  H   UNL     1       0.985  12.406  17.872  0.00  0.00    +0.000 HD
ENDROOT
BRANCH   5  16
ATOM     16  C   UNL     1      -1.574  12.382  23.262  0.00  0.00    +0.000 A 
ATOM     17  C   UNL     1      -0.922  13.620  23.336  0.00  0.00    +0.000 A 
ATOM     18  C   UNL     1      -1.590  14.754  23.807  0.00  0.00    +0.000 A 
ATOM     19  C   UNL     1      -2.920  14.662  24.210  0.00  0.00    +0.000 A 
ATOM     20  C   UNL     1      -3.582  13.438  24.151  0.00  0.00    +0.000 A 
ATOM     21  C   UNL     1      -2.911  12.305  23.681  0.00  0.00    +0.000 A 
ENDBRANCH   5  16
BRANCH   1  22
ATOM     22  C   UNL     1      -1.057  12.546  17.736  0.00  0.00    +0.000 C 
BRANCH  22  27
ATOM     23  C   UNL     1      -4.536  11.084  18.311  0.00  0.00    +0.000 A 
ATOM     24  C   UNL     1      -4.437   9.872  17.627  0.00  0.00    +0.000 A 
ATOM     25  C   UNL     1      -3.259   9.526  16.963  0.00  0.00    +0.000 A 
ATOM     26  C   UNL     1      -2.169  10.396  16.977  0.00  0.00    +0.000 A 
ATOM     27  C   UNL     1      -2.252  11.625  17.648  0.00  0.00    +0.000 A 
ATOM     28  C   UNL     1      -3.446  11.957  18.317  0.00  0.00    +0.000 A 
BRANCH  23  30
ATOM     29  C   UNL     1      -6.739  10.298  18.753  0.00  0.00    +0.000 C 
ATOM     30  O   UNL     1      -5.736  11.289  18.937  0.00  0.00    +0.000 OA
ENDBRANCH  23  30
ENDBRANCH  22  27
ENDBRANCH   1  22
TORSDOF 4
ENDMDL
MODEL 3
REMARK VINA RESULT:      -7.3      7.442     12.043
REMARK  Name = 
REMARK  5 active torsions:
REMARK  status: ('A' for Active; 'I' for Inactive)
REMARK    1  A    between atoms: C_1  and  O_2
REMARK    2  A    between atoms: O_2  and  C_3
REMARK    3  A    between atoms: C_7  and  C_8
REMARK    4  A    between atoms: C_8  and  N_9
REMARK    5  A    between atoms: C_13  and  C_14
REMARK                            x       y       z     vdW  Elec       q    Type
REMARK                         _______ _______ _______ _____ _____    ______ ____
ROOT
ATOM      1  N   UNL     1      -0.050  11.878  18.042  0.00  0.00    +0.000 N 
ATOM      2  C   UNL     1       0.088  11.241  19.268  0.00  0.00    +0.000 A 
ATOM      3  N   UNL     1      -0.595  11.674  20.294  0.00  0.00    +0.000 NA
ATOM      4  C   UNL     1      -0.535  10.964  21.460  0.00  0.00    +0.000 A 
ATOM      5  C   UNL     1      -0.960  11.165  22.763  0.00  0.00    +0.000 A 
ATOM      6  N   UNL     1      -0.624  10.067  23.530  0.00  0.00    +0.000 NA
ATOM      7  N   UNL     1      -0.032   9.176  22.749  0.00  0.00    +0.000 NA
ATOM      8  N   UNL     1       0.049   9.716  21.519  0.00  0.00    +0.000 N 
ATOM      9  C   UNL     1       0.764   9.163  20.456  0.00  0.00    +0.000 A 
ATOM     10  C   UNL     1       1.334   7.893  20.520  0.00  0.00    +0.000 A 
ATOM     11  C   UNL     1       2.172   7.487  19.485  0.00  0.00    +0.000 A 
ATOM     12  C   UNL     1       2.454   8.360  18.427  0.00  0.00    +0.000 A 
ATOM     13  C   UNL     1       1.822   9.608  18.342  0.00  0.00    +0.000 A 
ATOM     14  C   UNL     1       0.933   9.996  19.343  0.00  0.00    +0.000 A 
ATOM     15  H   UNL     1       0.730  12.500  17.842  0.00  0.00    +0.000 HD
ENDROOT
BRANCH   5  16
ATOM     16  C   UNL     1      -1.655  12.322  23.308  0.00  0.00    +0.000 A 
ATOM     17  C   UNL     1      -1.042  13.578  23.411  0.00  0.00    +0.000 A 
ATOM     18  C   UNL     1      -1.744  14.678  23.912  0.00  0.00    +0.000 A 
ATOM     19  C   UNL     1      -3.069  14.535  24.316  0.00  0.00    +0.000 A 
ATOM     20  C   UNL     1      -3.692  13.292  24.228  0.00  0.00    +0.000 A 
ATOM     21  C   UNL     1      -2.988  12.192  23.728  0.00  0.00    +0.000 A 
ENDBRANCH   5  16
BRANCH   1  22
ATOM     22  C   UNL     1      -1.320  12.552  17.770  0.00  0.00    +0.000 C 
BRANCH  22  27
ATOM     23  C   UNL     1      -3.098  10.298  15.254  0.00  0.00    +0.000 A 
ATOM     24  C   UNL     1      -4.272   9.994  15.945  0.00  0.00    +0.000 A 
ATOM     25  C   UNL     1      -4.491  10.498  17.228  0.00  0.00    +0.000 A 
ATOM     26  C   UNL     1      -3.530  11.309  17.832  0.00  0.00    +0.000 A 
ATOM     27  C   UNL     1      -2.338  11.615  17.161  0.00  0.00    +0.000 A 
ATOM     28  C   UNL     1      -2.135  11.103  15.865  0.00  0.00    +0.000 A 
BRANCH  23  30
ATOM     29  C   UNL     1      -4.153   9.917  13.156  0.00  0.00    +0.000 C 
ATOM     30  O   UNL     1      -3.020   9.759  13.999  0.00  0.00    +0.000 OA
ENDBRANCH  23  30
ENDBRANCH  22  27
ENDBRANCH   1  22
TORSDOF 4
ENDMDL
MODEL 4
REMARK VINA RESULT:      -7.3      3.345      5.569
REMARK  Name = 
REMARK  5 active torsions:
REMARK  status: ('A' for Active; 'I' for Inactive)
REMARK    1  A    between atoms: C_1  and  O_2
REMARK    2  A    between atoms: O_2  and  C_3
REMARK    3  A    between atoms: C_7  and  C_8
REMARK    4  A    between atoms: C_8  and  N_9
REMARK    5  A    between atoms: C_13  and  C_14
REMARK                            x       y       z     vdW  Elec       q    Type
REMARK                         _______ _______ _______ _____ _____    ______ ____
ROOT
ATOM      1  N   UNL     1       1.197   4.801  20.740  0.00  0.00    +0.000 N 
ATOM      2  C   UNL     1       1.762   5.859  20.043  0.00  0.00    +0.000 A 
ATOM      3  N   UNL     1       2.489   5.613  18.986  0.00  0.00    +0.000 NA
ATOM      4  C   UNL     1       2.940   6.671  18.246  0.00  0.00    +0.000 A 
ATOM      5  C   UNL     1       3.830   6.837  17.199  0.00  0.00    +0.000 A 
ATOM      6  N   UNL     1       3.875   8.169  16.841  0.00  0.00    +0.000 NA
ATOM      7  N   UNL     1       3.025   8.837  17.606  0.00  0.00    +0.000 NA
ATOM      8  N   UNL     1       2.484   7.954  18.465  0.00  0.00    +0.000 N 
ATOM      9  C   UNL     1       1.673   8.295  19.548  0.00  0.00    +0.000 A 
ATOM     10  C   UNL     1       1.202   9.591  19.748  0.00  0.00    +0.000 A 
ATOM     11  C   UNL     1       0.544   9.883  20.940  0.00  0.00    +0.000 A 
ATOM     12  C   UNL     1       0.397   8.894  21.920  0.00  0.00    +0.000 A 
ATOM     13  C   UNL     1       0.816   7.579  21.679  0.00  0.00    +0.000 A 
ATOM     14  C   UNL     1       1.420   7.265  20.462  0.00  0.00    +0.000 A 
ATOM     15  H   UNL     1       1.712   4.580  21.589  0.00  0.00    +0.000 HD
ENDROOT
BRANCH   5  16
ATOM     16  C   UNL     1       4.626   5.817  16.531  0.00  0.00    +0.000 A 
ATOM     17  C   UNL     1       5.265   6.055  15.307  0.00  0.00    +0.000 A 
ATOM     18  C   UNL     1       6.048   5.066  14.704  0.00  0.00    +0.000 A 
ATOM     19  C   UNL     1       6.200   3.825  15.318  0.00  0.00    +0.000 A 
ATOM     20  C   UNL     1       5.567   3.569  16.532  0.00  0.00    +0.000 A 
ATOM     21  C   UNL     1       4.783   4.558  17.133  0.00  0.00    +0.000 A 
ENDBRANCH   5  16
BRANCH   1  22
ATOM     22  C   UNL     1       0.904   3.578  19.992  0.00  0.00    +0.000 C 
BRANCH  22  27
ATOM     23  C   UNL     1       4.296   1.928  20.582  0.00  0.00    +0.000 A 
ATOM     24  C   UNL     1       4.513   1.308  19.351  0.00  0.00    +0.000 A 
ATOM     25  C   UNL     1       3.565   1.402  18.332  0.00  0.00    +0.000 A 
ATOM     26  C   UNL     1       2.385   2.118  18.540  0.00  0.00    +0.000 A 
ATOM     27  C   UNL     1       2.141   2.737  19.774  0.00  0.00    +0.000 A 
ATOM     28  C   UNL     1       3.111   2.637  20.790  0.00  0.00    +0.000 A 
BRANCH  23  30
ATOM     29  C   UNL     1       5.738   0.449  21.763  0.00  0.00    +0.000 C 
ATOM     30  O   UNL     1       5.313   1.777  21.485  0.00  0.00    +0.000 OA
ENDBRANCH  23  30
ENDBRANCH  22  27
ENDBRANCH   1  22
TORSDOF 4
ENDMDL
MODEL 5
REMARK VINA RESULT:      -7.1      7.558     11.579
REMARK  Name = 
REMARK  5 active torsions:
REMARK  status: ('A' for Active; 'I' for Inactive)
REMARK    1  A    between atoms: C_1  and  O_2
REMARK    2  A    between atoms: O_2  and  C_3
REMARK    3  A    between atoms: C_7  and  C_8
REMARK    4  A    between atoms: C_8  and  N_9
REMARK    5  A    between atoms: C_13  and  C_14
REMARK                            x       y       z     vdW  Elec       q    Type
REMARK                         _______ _______ _______ _____ _____    ______ ____
ROOT
ATOM      1  N   UNL     1      -1.912  12.661  18.843  0.00  0.00    +0.000 N 
ATOM      2  C   UNL     1      -1.598  11.928  19.978  0.00  0.00    +0.000 A 
ATOM      3  N   UNL     1      -0.664  11.017  19.913  0.00  0.00    +0.000 NA
ATOM      4  C   UNL     1      -0.289  10.387  21.068  0.00  0.00    +0.000 A 
ATOM      5  C   UNL     1       0.508   9.302  21.387  0.00  0.00    +0.000 A 
ATOM      6  N   UNL     1       0.528   9.134  22.757  0.00  0.00    +0.000 NA
ATOM      7  N   UNL     1      -0.203  10.091  23.307  0.00  0.00    +0.000 NA
ATOM      8  N   UNL     1      -0.716  10.826  22.303  0.00  0.00    +0.000 N 
ATOM      9  C   UNL     1      -1.682  11.821  22.462  0.00  0.00    +0.000 A 
ATOM     10  C   UNL     1      -2.092  12.270  23.716  0.00  0.00    +0.000 A 
ATOM     11  C   UNL     1      -3.177  13.138  23.789  0.00  0.00    +0.000 A 
ATOM     12  C   UNL     1      -3.854  13.515  22.623  0.00  0.00    +0.000 A 
ATOM     13  C   UNL     1      -3.391  13.110  21.364  0.00  0.00    +0.000 A 
ATOM     14  C   UNL     1      -2.266  12.290  21.279  0.00  0.00    +0.000 A 
ATOM     15  H   UNL     1      -2.764  12.333  18.395  0.00  0.00    +0.000 HD
ENDROOT
BRANCH   5  16
ATOM     16  C   UNL     1       1.240   8.431  20.478  0.00  0.00    +0.000 A 
ATOM     17  C   UNL     1       1.677   8.868  19.220  0.00  0.00    +0.000 A 
ATOM     18  C   UNL     1       2.404   8.019  18.380  0.00  0.00    +0.000 A 
ATOM     19  C   UNL     1       2.701   6.721  18.789  0.00  0.00    +0.000 A 
ATOM     20  C   UNL     1       2.268   6.267  20.033  0.00  0.00    +0.000 A 
ATOM     21  C   UNL     1       1.540   7.117  20.871  0.00  0.00    +0.000 A 
ENDBRANCH   5  16
BRANCH   1  22
ATOM     22  C   UNL     1      -0.856  12.849  17.847  0.00  0.00    +0.000 C 
BRANCH  22  27
ATOM     23  C   UNL     1       0.887  15.988  19.146  0.00  0.00    +0.000 A 
ATOM     24  C   UNL     1       2.223  15.586  19.119  0.00  0.00    +0.000 A 
ATOM     25  C   UNL     1       2.570  14.300  18.701  0.00  0.00    +0.000 A 
ATOM     26  C   UNL     1       1.576  13.403  18.308  0.00  0.00    +0.000 A 
ATOM     27  C   UNL     1       0.227  13.782  18.339  0.00  0.00    +0.000 A 
ATOM     28  C   UNL     1      -0.106  15.085  18.759  0.00  0.00    +0.000 A 
BRANCH  23  30
ATOM     29  C   UNL     1       0.947  18.304  18.605  0.00  0.00    +0.000 C 
ATOM     30  O   UNL     1       0.688  17.278  19.554  0.00  0.00    +0.000 OA
ENDBRANCH  23  30
ENDBRANCH  22  27
ENDBRANCH   1  22
TORSDOF 4
ENDMDL
MODEL 6
REMARK VINA RESULT:      -7.0      7.509     11.609
REMARK  Name = 
REMARK  5 active torsions:
REMARK  status: ('A' for Active; 'I' for Inactive)
REMARK    1  A    between atoms: C_1  and  O_2
REMARK    2  A    between atoms: O_2  and  C_3
REMARK    3  A    between atoms: C_7  and  C_8
REMARK    4  A    between atoms: C_8  and  N_9
REMARK    5  A    between atoms: C_13  and  C_14
REMARK                            x       y       z     vdW  Elec       q    Type
REMARK                         _______ _______ _______ _____ _____    ______ ____
ROOT
ATOM      1  N   UNL     1      -1.766  12.988  18.906  0.00  0.00    +0.000 N 
ATOM      2  C   UNL     1      -1.520  12.188  20.013  0.00  0.00    +0.000 A 
ATOM      3  N   UNL     1      -0.615  11.249  19.934  0.00  0.00    +0.000 NA
ATOM      4  C   UNL     1      -0.305  10.550  21.068  0.00  0.00    +0.000 A 
ATOM      5  C   UNL     1       0.444   9.422  21.359  0.00  0.00    +0.000 A 
ATOM      6  N   UNL     1       0.407   9.185  22.718  0.00  0.00    +0.000 NA
ATOM      7  N   UNL     1      -0.313  10.139  23.291  0.00  0.00    +0.000 NA
ATOM      8  N   UNL     1      -0.764  10.940  22.308  0.00  0.00    +0.000 N 
ATOM      9  C   UNL     1      -1.701  11.959  22.483  0.00  0.00    +0.000 A 
ATOM     10  C   UNL     1      -2.143  12.358  23.743  0.00  0.00    +0.000 A 
ATOM     11  C   UNL     1      -3.201  13.259  23.822  0.00  0.00    +0.000 A 
ATOM     12  C   UNL     1      -3.821  13.718  22.653  0.00  0.00    +0.000 A 
ATOM     13  C   UNL     1      -3.324  13.360  21.392  0.00  0.00    +0.000 A 
ATOM     14  C   UNL     1      -2.224  12.507  21.306  0.00  0.00    +0.000 A 
ATOM     15  H   UNL     1      -2.612  12.713  18.412  0.00  0.00    +0.000 HD
ENDROOT
BRANCH   5  16
ATOM     16  C   UNL     1       1.180   8.574  20.434  0.00  0.00    +0.000 A 
ATOM     17  C   UNL     1       1.559   9.016  19.159  0.00  0.00    +0.000 A 
ATOM     18  C   UNL     1       2.292   8.190  18.302  0.00  0.00    +0.000 A 
ATOM     19  C   UNL     1       2.654   6.908  18.710  0.00  0.00    +0.000 A 
ATOM     20  C   UNL     1       2.280   6.449  19.971  0.00  0.00    +0.000 A 
ATOM     21  C   UNL     1       1.546   7.276  20.826  0.00  0.00    +0.000 A 
ENDBRANCH   5  16
BRANCH   1  22
ATOM     22  C   UNL     1      -0.668  13.189  17.960  0.00  0.00    +0.000 C 
BRANCH  22  27
ATOM     23  C   UNL     1       2.581  14.817  19.129  0.00  0.00    +0.000 A 
ATOM     24  C   UNL     1       2.134  16.092  19.481  0.00  0.00    +0.000 A 
ATOM     25  C   UNL     1       0.791  16.440  19.328  0.00  0.00    +0.000 A 
ATOM     26  C   UNL     1      -0.117  15.512  18.817  0.00  0.00    +0.000 A 
ATOM     27  C   UNL     1       0.314  14.230  18.446  0.00  0.00    +0.000 A 
ATOM     28  C   UNL     1       1.671  13.893  18.611  0.00  0.00    +0.000 A 
BRANCH  23  30
ATOM     29  C   UNL     1       4.775  15.727  19.265  0.00  0.00    +0.000 C 
ATOM     30  O   UNL     1       3.913  14.599  19.350  0.00  0.00    +0.000 OA
ENDBRANCH  23  30
ENDBRANCH  22  27
ENDBRANCH   1  22
TORSDOF 4
ENDMDL
MODEL 7
REMARK VINA RESULT:      -7.0      7.697     11.910
REMARK  Name = 
REMARK  5 active torsions:
REMARK  status: ('A' for Active; 'I' for Inactive)
REMARK    1  A    between atoms: C_1  and  O_2
REMARK    2  A    between atoms: O_2  and  C_3
REMARK    3  A    between atoms: C_7  and  C_8
REMARK    4  A    between atoms: C_8  and  N_9
REMARK    5  A    between atoms: C_13  and  C_14
REMARK                            x       y       z     vdW  Elec       q    Type
REMARK                         _______ _______ _______ _____ _____    ______ ____
ROOT
ATOM      1  N   UNL     1       1.181  11.358  19.060  0.00  0.00    +0.000 N 
ATOM      2  C   UNL     1       1.214  12.517  19.824  0.00  0.00    +0.000 A 
ATOM      3  N   UNL     1       0.407  12.632  20.845  0.00  0.00    +0.000 NA
ATOM      4  C   UNL     1       0.534  13.728  21.652  0.00  0.00    +0.000 A 
ATOM      5  C   UNL     1      -0.196  14.281  22.691  0.00  0.00    +0.000 A 
ATOM      6  N   UNL     1       0.442  15.417  23.146  0.00  0.00    +0.000 NA
ATOM      7  N   UNL     1       1.558  15.579  22.452  0.00  0.00    +0.000 NA
ATOM      8  N   UNL     1       1.605  14.590  21.539  0.00  0.00    +0.000 N 
ATOM      9  C   UNL     1       2.535  14.513  20.502  0.00  0.00    +0.000 A 
ATOM     10  C   UNL     1       3.623  15.377  20.409  0.00  0.00    +0.000 A 
ATOM     11  C   UNL     1       4.403  15.343  19.256  0.00  0.00    +0.000 A 
ATOM     12  C   UNL     1       4.067  14.479  18.207  0.00  0.00    +0.000 A 
ATOM     13  C   UNL     1       3.010  13.568  18.341  0.00  0.00    +0.000 A 
ATOM     14  C   UNL     1       2.263  13.554  19.518  0.00  0.00    +0.000 A 
ATOM     15  H   UNL     1       0.676  11.486  18.187  0.00  0.00    +0.000 HD
ENDROOT
BRANCH   5  16
ATOM     16  C   UNL     1      -1.443  13.796  23.264  0.00  0.00    +0.000 A 
ATOM     17  C   UNL     1      -2.271  14.614  24.044  0.00  0.00    +0.000 A 
ATOM     18  C   UNL     1      -3.479  14.131  24.557  0.00  0.00    +0.000 A 
ATOM     19  C   UNL     1      -3.872  12.821  24.295  0.00  0.00    +0.000 A 
ATOM     20  C   UNL     1      -3.059  11.991  23.527  0.00  0.00    +0.000 A 
ATOM     21  C   UNL     1      -1.851  12.476  23.016  0.00  0.00    +0.000 A 
ENDBRANCH   5  16
BRANCH   1  22
ATOM     22  C   UNL     1       0.750  10.126  19.721  0.00  0.00    +0.000 C 
BRANCH  22  27
ATOM     23  C   UNL     1       2.438   6.702  19.658  0.00  0.00    +0.000 A 
ATOM     24  C   UNL     1       3.060   6.730  18.409  0.00  0.00    +0.000 A 
ATOM     25  C   UNL     1       2.928   7.840  17.575  0.00  0.00    +0.000 A 
ATOM     26  C   UNL     1       2.164   8.934  17.984  0.00  0.00    +0.000 A 
ATOM     27  C   UNL     1       1.520   8.921  19.229  0.00  0.00    +0.000 A 
ATOM     28  C   UNL     1       1.668   7.795  20.062  0.00  0.00    +0.000 A 
BRANCH  23  30
ATOM     29  C   UNL     1       1.563   4.694  20.587  0.00  0.00    +0.000 C 
ATOM     30  O   UNL     1       2.667   5.566  20.385  0.00  0.00    +0.000 OA
ENDBRANCH  23  30
ENDBRANCH  22  27
ENDBRANCH   1  22
TORSDOF 4
ENDMDL
MODEL 8
REMARK VINA RESULT:      -7.0     10.887     14.791
REMARK  Name = 
REMARK  5 active torsions:
REMARK  status: ('A' for Active; 'I' for Inactive)
REMARK    1  A    between atoms: C_1  and  O_2
REMARK    2  A    between atoms: O_2  and  C_3
REMARK    3  A    between atoms: C_7  and  C_8
REMARK    4  A    between atoms: C_8  and  N_9
REMARK    5  A    between atoms: C_13  and  C_14
REMARK                            x       y       z     vdW  Elec       q    Type
REMARK                         _______ _______ _______ _____ _____    ______ ____
ROOT
ATOM      1  N   UNL     1      -7.108  11.981  21.735  0.00  0.00    +0.000 N 
ATOM      2  C   UNL     1      -6.035  12.778  22.107  0.00  0.00    +0.000 A 
ATOM      3  N   UNL     1      -4.819  12.338  21.927  0.00  0.00    +0.000 NA
ATOM      4  C   UNL     1      -3.777  13.183  22.192  0.00  0.00    +0.000 A 
ATOM      5  C   UNL     1      -2.401  13.057  22.281  0.00  0.00    +0.000 A 
ATOM      6  N   UNL     1      -1.845  14.287  22.572  0.00  0.00    +0.000 NA
ATOM      7  N   UNL     1      -2.819  15.182  22.639  0.00  0.00    +0.000 NA
ATOM      8  N   UNL     1      -3.977  14.524  22.441  0.00  0.00    +0.000 N 
ATOM      9  C   UNL     1      -5.245  15.083  22.609  0.00  0.00    +0.000 A 
ATOM     10  C   UNL     1      -5.436  16.443  22.841  0.00  0.00    +0.000 A 
ATOM     11  C   UNL     1      -6.714  16.889  23.167  0.00  0.00    +0.000 A 
ATOM     12  C   UNL     1      -7.767  15.973  23.290  0.00  0.00    +0.000 A 
ATOM     13  C   UNL     1      -7.575  14.618  22.989  0.00  0.00    +0.000 A 
ATOM     14  C   UNL     1      -6.311  14.175  22.601  0.00  0.00    +0.000 A 
ATOM     15  H   UNL     1      -7.541  11.520  22.532  0.00  0.00    +0.000 HD
ENDROOT
BRANCH   5  16
ATOM     16  C   UNL     1      -1.599  11.854  22.107  0.00  0.00    +0.000 A 
ATOM     17  C   UNL     1      -1.313  10.991  23.173  0.00  0.00    +0.000 A 
ATOM     18  C   UNL     1      -0.566   9.827  22.971  0.00  0.00    +0.000 A 
ATOM     19  C   UNL     1      -0.095   9.513  21.698  0.00  0.00    +0.000 A 
ATOM     20  C   UNL     1      -0.364  10.363  20.628  0.00  0.00    +0.000 A 
ATOM     21  C   UNL     1      -1.110  11.528  20.833  0.00  0.00    +0.000 A 
ENDBRANCH   5  16
BRANCH   1  22
ATOM     22  C   UNL     1      -6.893  11.023  20.650  0.00  0.00    +0.000 C 
BRANCH  22  27
ATOM     23  C   UNL     1      -5.462  12.080  17.273  0.00  0.00    +0.000 A 
ATOM     24  C   UNL     1      -6.376  13.061  16.887  0.00  0.00    +0.000 A 
ATOM     25  C   UNL     1      -7.465  13.376  17.700  0.00  0.00    +0.000 A 
ATOM     26  C   UNL     1      -7.650  12.705  18.910  0.00  0.00    +0.000 A 
ATOM     27  C   UNL     1      -6.750  11.707  19.310  0.00  0.00    +0.000 A 
ATOM     28  C   UNL     1      -5.653  11.405  18.480  0.00  0.00    +0.000 A 
BRANCH  23  30
ATOM     29  C   UNL     1      -3.942  10.558  16.254  0.00  0.00    +0.000 C 
ATOM     30  O   UNL     1      -4.429  11.886  16.396  0.00  0.00    +0.000 OA
ENDBRANCH  23  30
ENDBRANCH  22  27
ENDBRANCH   1  22
TORSDOF 4
ENDMDL
MODEL 9
REMARK VINA RESULT:      -7.0      7.735     11.724
REMARK  Name = 
REMARK  5 active torsions:
REMARK  status: ('A' for Active; 'I' for Inactive)
REMARK    1  A    between atoms: C_1  and  O_2
REMARK    2  A    between atoms: O_2  and  C_3
REMARK    3  A    between atoms: C_7  and  C_8
REMARK    4  A    between atoms: C_8  and  N_9
REMARK    5  A    between atoms: C_13  and  C_14
REMARK                            x       y       z     vdW  Elec       q    Type
REMARK                         _______ _______ _______ _____ _____    ______ ____
ROOT
ATOM      1  N   UNL     1      -1.776  12.926  18.891  0.00  0.00    +0.000 N 
ATOM      2  C   UNL     1      -1.515  12.134  20.000  0.00  0.00    +0.000 A 
ATOM      3  N   UNL     1      -0.594  11.211  19.924  0.00  0.00    +0.000 NA
ATOM      4  C   UNL     1      -0.272  10.520  21.059  0.00  0.00    +0.000 A 
ATOM      5  C   UNL     1       0.497   9.406  21.354  0.00  0.00    +0.000 A 
ATOM      6  N   UNL     1       0.463   9.172  22.714  0.00  0.00    +0.000 NA
ATOM      7  N   UNL     1      -0.273  10.114  23.284  0.00  0.00    +0.000 NA
ATOM      8  N   UNL     1      -0.738  10.905  22.298  0.00  0.00    +0.000 N 
ATOM      9  C   UNL     1      -1.693  11.908  22.471  0.00  0.00    +0.000 A 
ATOM     10  C   UNL     1      -2.142  12.303  23.729  0.00  0.00    +0.000 A 
ATOM     11  C   UNL     1      -3.216  13.185  23.806  0.00  0.00    +0.000 A 
ATOM     12  C   UNL     1      -3.844  13.630  22.635  0.00  0.00    +0.000 A 
ATOM     13  C   UNL     1      -3.340  13.278  21.376  0.00  0.00    +0.000 A 
ATOM     14  C   UNL     1      -2.226  12.444  21.292  0.00  0.00    +0.000 A 
ATOM     15  H   UNL     1      -2.616  12.635  18.397  0.00  0.00    +0.000 HD
ENDROOT
BRANCH   5  16
ATOM     16  C   UNL     1       1.248   8.568  20.431  0.00  0.00    +0.000 A 
ATOM     17  C   UNL     1       1.675   7.279  20.775  0.00  0.00    +0.000 A 
ATOM     18  C   UNL     1       2.369   6.485  19.857  0.00  0.00    +0.000 A 
ATOM     19  C   UNL     1       2.645   6.972  18.583  0.00  0.00    +0.000 A 
ATOM     20  C   UNL     1       2.235   8.255  18.225  0.00  0.00    +0.000 A 
ATOM     21  C   UNL     1       1.542   9.048  19.145  0.00  0.00    +0.000 A 
ENDBRANCH   5  16
BRANCH   1  22
ATOM     22  C   UNL     1      -0.681  13.144  17.945  0.00  0.00    +0.000 C 
BRANCH  22  27
ATOM     23  C   UNL     1       0.780  16.441  19.197  0.00  0.00    +0.000 A 
ATOM     24  C   UNL     1       2.140  16.130  19.255  0.00  0.00    +0.000 A 
ATOM     25  C   UNL     1       2.592  14.856  18.908  0.00  0.00    +0.000 A 
ATOM     26  C   UNL     1       1.682  13.879  18.503  0.00  0.00    +0.000 A 
ATOM     27  C   UNL     1       0.310  14.166  18.451  0.00  0.00    +0.000 A 
ATOM     28  C   UNL     1      -0.129  15.458  18.799  0.00  0.00    +0.000 A 
BRANCH  23  30
ATOM     29  C   UNL     1      -0.810  18.210  19.170  0.00  0.00    +0.000 C 
ATOM     30  O   UNL     1       0.475  17.729  19.541  0.00  0.00    +0.000 OA
ENDBRANCH  23  30
ENDBRANCH  22  27
ENDBRANCH   1  22
TORSDOF 4
ENDMDL
