MODEL 1
REMARK VINA RESULT:      -6.7      0.000      0.000
REMARK  Name = 
REMARK  9 active torsions:
REMARK  status: ('A' for Active; 'I' for Inactive)
REMARK    1  A    between atoms: C_1  and  C_2
REMARK    2  A    between atoms: C_6  and  C_7
REMARK    3  A    between atoms: C_7  and  N_8
REMARK    4  A    between atoms: N_8  and  C_9
REMARK    5  A    between atoms: N_8  and  C_10
REMARK    6  A    between atoms: N_8  and  C_13
REMARK    7  A    between atoms: C_10  and  C_11
REMARK    8  A    between atoms: C_13  and  C_14
REMARK    9  A    between atoms: C_16  and  N_17
REMARK                            x       y       z     vdW  Elec       q    Type
REMARK                         _______ _______ _______ _____ _____    ______ ____
ROOT
ATOM      1  C   UNL     1       1.881   2.978  21.614  0.00  0.00    +0.000 C 
ATOM      2  C   UNL     1       2.254   3.993  20.565  0.00  0.00    +0.000 A 
ATOM      3  C   UNL     1       1.794   5.307  20.707  0.00  0.00    +0.000 A 
ATOM      4  C   UNL     1       2.082   6.274  19.743  0.00  0.00    +0.000 A 
ATOM      5  C   UNL     1       2.782   5.929  18.581  0.00  0.00    +0.000 A 
ATOM      6  C   UNL     1       3.216   4.611  18.362  0.00  0.00    +0.000 A 
ATOM      7  C   UNL     1       3.013   3.684  19.419  0.00  0.00    +0.000 A 
ENDROOT
BRANCH   7   8
ATOM      8  N   UNL     1       3.645   2.374  19.325  0.00  0.00    +0.000 N 
ATOM      9  O   UNL     1       4.722   2.220  19.912  0.00  0.00    +0.000 OA
ATOM     10  O   UNL     1       2.988   1.484  18.772  0.00  0.00    +0.000 OA
ENDBRANCH   7   8
BRANCH   6  11
ATOM     11  C   UNL     1       3.788   4.234  16.998  0.00  0.00    +0.000 C 
BRANCH  11  12
ATOM     12  N   UNL     1       5.272   4.715  16.708  0.00  0.00    +0.000 N 
ATOM     13  C   UNL     1       5.204   6.077  15.987  0.00  0.00    +0.000 C 
BRANCH  12  14
ATOM     14  C   UNL     1       6.049   4.824  18.054  0.00  0.00    +0.000 C 
BRANCH  14  15
ATOM     15  C   UNL     1       7.565   5.065  17.998  0.00  0.00    +0.000 C 
ATOM     16 CL   UNL     1       8.223   5.662  19.535  0.00  0.00    +0.000 Cl
ENDBRANCH  14  15
ENDBRANCH  12  14
BRANCH  12  17
ATOM     17  C   UNL     1       5.958   3.745  15.691  0.00  0.00    +0.000 C 
BRANCH  17  18
ATOM     18  C   UNL     1       6.562   4.413  14.457  0.00  0.00    +0.000 C 
ATOM     19 CL   UNL     1       5.959   3.603  12.992  0.00  0.00    +0.000 Cl
ENDBRANCH  17  18
ENDBRANCH  12  17
ENDBRANCH  11  12
ENDBRANCH   6  11
TORSDOF 7
ENDMDL
MODEL 2
REMARK VINA RESULT:      -6.4      1.441      2.943
REMARK  Name = 
REMARK  9 active torsions:
REMARK  status: ('A' for Active; 'I' for Inactive)
REMARK    1  A    between atoms: C_1  and  C_2
REMARK    2  A    between atoms: C_6  and  C_7
REMARK    3  A    between atoms: C_7  and  N_8
REMARK    4  A    between atoms: N_8  and  C_9
REMARK    5  A    between atoms: N_8  and  C_10
REMARK    6  A    between atoms: N_8  and  C_13
REMARK    7  A    between atoms: C_10  and  C_11
REMARK    8  A    between atoms: C_13  and  C_14
REMARK    9  A    between atoms: C_16  and  N_17
REMARK                            x       y       z     vdW  Elec       q    Type
REMARK                         _______ _______ _______ _____ _____    ______ ____
ROOT
ATOM      1  C   UNL     1       1.548   2.784  21.036  0.00  0.00    +0.000 C 
ATOM      2  C   UNL     1       2.119   4.018  20.387  0.00  0.00    +0.000 A 
ATOM      3  C   UNL     1       1.570   5.263  20.712  0.00  0.00    +0.000 A 
ATOM      4  C   UNL     1       2.040   6.432  20.111  0.00  0.00    +0.000 A 
ATOM      5  C   UNL     1       3.027   6.371  19.120  0.00  0.00    +0.000 A 
ATOM      6  C   UNL     1       3.571   5.140  18.714  0.00  0.00    +0.000 A 
ATOM      7  C   UNL     1       3.157   3.988  19.435  0.00  0.00    +0.000 A 
ENDROOT
BRANCH   7   8
ATOM      8  N   UNL     1       3.861   2.733  19.199  0.00  0.00    +0.000 N 
ATOM      9  O   UNL     1       3.545   2.085  18.195  0.00  0.00    +0.000 OA
ATOM     10  O   UNL     1       4.807   2.482  19.954  0.00  0.00    +0.000 OA
ENDBRANCH   7   8
BRANCH   6  11
ATOM     11  C   UNL     1       4.486   5.098  17.493  0.00  0.00    +0.000 C 
BRANCH  11  12
ATOM     12  N   UNL     1       6.020   5.397  17.763  0.00  0.00    +0.000 N 
ATOM     13  C   UNL     1       6.292   5.198  19.268  0.00  0.00    +0.000 C 
BRANCH  12  14
ATOM     14  C   UNL     1       6.891   4.436  16.898  0.00  0.00    +0.000 C 
BRANCH  14  15
ATOM     15  C   UNL     1       7.092   4.780  15.414  0.00  0.00    +0.000 C 
ATOM     16 CL   UNL     1       5.737   4.251  14.397  0.00  0.00    +0.000 Cl
ENDBRANCH  14  15
ENDBRANCH  12  14
BRANCH  12  17
ATOM     17  C   UNL     1       6.326   6.904  17.485  0.00  0.00    +0.000 C 
BRANCH  17  18
ATOM     18  C   UNL     1       7.709   7.383  17.925  0.00  0.00    +0.000 C 
ATOM     19 CL   UNL     1       7.809   9.149  17.744  0.00  0.00    +0.000 Cl
ENDBRANCH  17  18
ENDBRANCH  12  17
ENDBRANCH  11  12
ENDBRANCH   6  11
TORSDOF 7
ENDMDL
MODEL 3
REMARK VINA RESULT:      -6.4      0.951      2.748
REMARK  Name = 
REMARK  9 active torsions:
REMARK  status: ('A' for Active; 'I' for Inactive)
REMARK    1  A    between atoms: C_1  and  C_2
REMARK    2  A    between atoms: C_6  and  C_7
REMARK    3  A    between atoms: C_7  and  N_8
REMARK    4  A    between atoms: N_8  and  C_9
REMARK    5  A    between atoms: N_8  and  C_10
REMARK    6  A    between atoms: N_8  and  C_13
REMARK    7  A    between atoms: C_10  and  C_11
REMARK    8  A    between atoms: C_13  and  C_14
REMARK    9  A    between atoms: C_16  and  N_17
REMARK                            x       y       z     vdW  Elec       q    Type
REMARK                         _______ _______ _______ _____ _____    ______ ____
ROOT
ATOM      1  C   UNL     1       1.833   2.781  21.424  0.00  0.00    +0.000 C 
ATOM      2  C   UNL     1       2.296   3.870  20.492  0.00  0.00    +0.000 A 
ATOM      3  C   UNL     1       1.826   5.172  20.695  0.00  0.00    +0.000 A 
ATOM      4  C   UNL     1       2.197   6.210  19.837  0.00  0.00    +0.000 A 
ATOM      5  C   UNL     1       2.994   5.950  18.716  0.00  0.00    +0.000 A 
ATOM      6  C   UNL     1       3.444   4.649  18.433  0.00  0.00    +0.000 A 
ATOM      7  C   UNL     1       3.150   3.645  19.395  0.00  0.00    +0.000 A 
ENDROOT
BRANCH   7   8
ATOM      8  N   UNL     1       3.787   2.342  19.253  0.00  0.00    +0.000 N 
ATOM      9  O   UNL     1       4.771   2.111  19.965  0.00  0.00    +0.000 OA
ATOM     10  O   UNL     1       3.213   1.524  18.525  0.00  0.00    +0.000 OA
ENDBRANCH   7   8
BRANCH   6  11
ATOM     11  C   UNL     1       4.131   4.374  17.098  0.00  0.00    +0.000 C 
BRANCH  11  12
ATOM     12  N   UNL     1       5.621   4.900  16.960  0.00  0.00    +0.000 N 
ATOM     13  C   UNL     1       6.291   4.816  18.347  0.00  0.00    +0.000 C 
BRANCH  12  14
ATOM     14  C   UNL     1       6.377   4.031  15.911  0.00  0.00    +0.000 C 
BRANCH  14  15
ATOM     15  C   UNL     1       6.638   4.634  14.522  0.00  0.00    +0.000 C 
ATOM     16 CL   UNL     1       6.030   3.613  13.205  0.00  0.00    +0.000 Cl
ENDBRANCH  14  15
ENDBRANCH  12  14
BRANCH  12  17
ATOM     17  C   UNL     1       5.618   6.420  16.596  0.00  0.00    +0.000 C 
BRANCH  17  18
ATOM     18  C   UNL     1       6.166   7.352  17.676  0.00  0.00    +0.000 C 
ATOM     19 CL   UNL     1       7.845   7.790  17.284  0.00  0.00    +0.000 Cl
ENDBRANCH  17  18
ENDBRANCH  12  17
ENDBRANCH  11  12
ENDBRANCH   6  11
TORSDOF 7
ENDMDL
MODEL 4
REMARK VINA RESULT:      -6.0      1.497      2.400
REMARK  Name = 
REMARK  9 active torsions:
REMARK  status: ('A' for Active; 'I' for Inactive)
REMARK    1  A    between atoms: C_1  and  C_2
REMARK    2  A    between atoms: C_6  and  C_7
REMARK    3  A    between atoms: C_7  and  N_8
REMARK    4  A    between atoms: N_8  and  C_9
REMARK    5  A    between atoms: N_8  and  C_10
REMARK    6  A    between atoms: N_8  and  C_13
REMARK    7  A    between atoms: C_10  and  C_11
REMARK    8  A    between atoms: C_13  and  C_14
REMARK    9  A    between atoms: C_16  and  N_17
REMARK                            x       y       z     vdW  Elec       q    Type
REMARK                         _______ _______ _______ _____ _____    ______ ____
ROOT
ATOM      1  C   UNL     1       1.884   2.495  21.495  0.00  0.00    +0.000 C 
ATOM      2  C   UNL     1       2.219   3.584  20.511  0.00  0.00    +0.000 A 
ATOM      3  C   UNL     1       1.622   4.840  20.667  0.00  0.00    +0.000 A 
ATOM      4  C   UNL     1       1.872   5.871  19.760  0.00  0.00    +0.000 A 
ATOM      5  C   UNL     1       2.676   5.645  18.637  0.00  0.00    +0.000 A 
ATOM      6  C   UNL     1       3.253   4.386  18.400  0.00  0.00    +0.000 A 
ATOM      7  C   UNL     1       3.077   3.400  19.408  0.00  0.00    +0.000 A 
ENDROOT
BRANCH   7   8
ATOM      8  N   UNL     1       3.842   2.163  19.309  0.00  0.00    +0.000 N 
ATOM      9  O   UNL     1       4.822   2.042  20.052  0.00  0.00    +0.000 OA
ATOM     10  O   UNL     1       3.372   1.281  18.582  0.00  0.00    +0.000 OA
ENDBRANCH   7   8
BRANCH   6  11
ATOM     11  C   UNL     1       3.945   4.124  17.065  0.00  0.00    +0.000 C 
BRANCH  11  12
ATOM     12  N   UNL     1       5.378   4.780  16.884  0.00  0.00    +0.000 N 
ATOM     13  C   UNL     1       6.203   3.880  15.941  0.00  0.00    +0.000 C 
BRANCH  12  14
ATOM     14  C   UNL     1       5.217   6.215  16.300  0.00  0.00    +0.000 C 
BRANCH  14  15
ATOM     15  C   UNL     1       5.491   7.410  17.227  0.00  0.00    +0.000 C 
ATOM     16 CL   UNL     1       7.184   7.939  17.180  0.00  0.00    +0.000 Cl
ENDBRANCH  14  15
ENDBRANCH  12  14
BRANCH  12  17
ATOM     17  C   UNL     1       6.147   4.764  18.245  0.00  0.00    +0.000 C 
BRANCH  17  18
ATOM     18  C   UNL     1       7.666   4.640  18.136  0.00  0.00    +0.000 C 
ATOM     19 CL   UNL     1       8.431   5.559  19.453  0.00  0.00    +0.000 Cl
ENDBRANCH  17  18
ENDBRANCH  12  17
ENDBRANCH  11  12
ENDBRANCH   6  11
TORSDOF 7
ENDMDL
MODEL 5
REMARK VINA RESULT:      -6.0      2.003      3.156
REMARK  Name = 
REMARK  9 active torsions:
REMARK  status: ('A' for Active; 'I' for Inactive)
REMARK    1  A    between atoms: C_1  and  C_2
REMARK    2  A    between atoms: C_6  and  C_7
REMARK    3  A    between atoms: C_7  and  N_8
REMARK    4  A    between atoms: N_8  and  C_9
REMARK    5  A    between atoms: N_8  and  C_10
REMARK    6  A    between atoms: N_8  and  C_13
REMARK    7  A    between atoms: C_10  and  C_11
REMARK    8  A    between atoms: C_13  and  C_14
REMARK    9  A    between atoms: C_16  and  N_17
REMARK                            x       y       z     vdW  Elec       q    Type
REMARK                         _______ _______ _______ _____ _____    ______ ____
ROOT
ATOM      1  C   UNL     1       2.224   2.746  21.407  0.00  0.00    +0.000 C 
ATOM      2  C   UNL     1       2.332   3.248  19.991  0.00  0.00    +0.000 A 
ATOM      3  C   UNL     1       1.168   3.653  19.330  0.00  0.00    +0.000 A 
ATOM      4  C   UNL     1       1.211   4.092  18.005  0.00  0.00    +0.000 A 
ATOM      5  C   UNL     1       2.416   4.070  17.292  0.00  0.00    +0.000 A 
ATOM      6  C   UNL     1       3.604   3.617  17.891  0.00  0.00    +0.000 A 
ATOM      7  C   UNL     1       3.544   3.297  19.274  0.00  0.00    +0.000 A 
ENDROOT
BRANCH   7   8
ATOM      8  N   UNL     1       4.793   3.042  19.981  0.00  0.00    +0.000 N 
ATOM      9  O   UNL     1       5.085   1.864  20.211  0.00  0.00    +0.000 OA
ATOM     10  O   UNL     1       5.522   4.021  20.180  0.00  0.00    +0.000 OA
ENDBRANCH   7   8
BRANCH   6  11
ATOM     11  C   UNL     1       4.843   3.413  17.023  0.00  0.00    +0.000 C 
BRANCH  11  12
ATOM     12  N   UNL     1       5.678   4.719  16.684  0.00  0.00    +0.000 N 
ATOM     13  C   UNL     1       7.148   4.465  17.075  0.00  0.00    +0.000 C 
BRANCH  12  14
ATOM     14  C   UNL     1       5.542   5.036  15.164  0.00  0.00    +0.000 C 
BRANCH  14  15
ATOM     15  C   UNL     1       6.285   4.134  14.167  0.00  0.00    +0.000 C 
ATOM     16 CL   UNL     1       7.440   5.029  13.160  0.00  0.00    +0.000 Cl
ENDBRANCH  14  15
ENDBRANCH  12  14
BRANCH  12  17
ATOM     17  C   UNL     1       5.208   5.902  17.592  0.00  0.00    +0.000 C 
BRANCH  17  18
ATOM     18  C   UNL     1       4.528   7.058  16.860  0.00  0.00    +0.000 C 
ATOM     19 CL   UNL     1       3.137   7.625  17.812  0.00  0.00    +0.000 Cl
ENDBRANCH  17  18
ENDBRANCH  12  17
ENDBRANCH  11  12
ENDBRANCH   6  11
TORSDOF 7
ENDMDL
MODEL 6
REMARK VINA RESULT:      -5.9      1.773      3.224
REMARK  Name = 
REMARK  9 active torsions:
REMARK  status: ('A' for Active; 'I' for Inactive)
REMARK    1  A    between atoms: C_1  and  C_2
REMARK    2  A    between atoms: C_6  and  C_7
REMARK    3  A    between atoms: C_7  and  N_8
REMARK    4  A    between atoms: N_8  and  C_9
REMARK    5  A    between atoms: N_8  and  C_10
REMARK    6  A    between atoms: N_8  and  C_13
REMARK    7  A    between atoms: C_10  and  C_11
REMARK    8  A    between atoms: C_13  and  C_14
REMARK    9  A    between atoms: C_16  and  N_17
REMARK                            x       y       z     vdW  Elec       q    Type
REMARK                         _______ _______ _______ _____ _____    ______ ____
ROOT
ATOM      1  C   UNL     1       1.447   1.830  19.037  0.00  0.00    +0.000 C 
ATOM      2  C   UNL     1       2.064   3.187  18.819  0.00  0.00    +0.000 A 
ATOM      3  C   UNL     1       1.344   4.145  18.097  0.00  0.00    +0.000 A 
ATOM      4  C   UNL     1       1.887   5.404  17.838  0.00  0.00    +0.000 A 
ATOM      5  C   UNL     1       3.193   5.708  18.241  0.00  0.00    +0.000 A 
ATOM      6  C   UNL     1       3.981   4.761  18.917  0.00  0.00    +0.000 A 
ATOM      7  C   UNL     1       3.351   3.538  19.271  0.00  0.00    +0.000 A 
ENDROOT
BRANCH   7   8
ATOM      8  N   UNL     1       4.057   2.628  20.165  0.00  0.00    +0.000 N 
ATOM      9  O   UNL     1       3.673   2.573  21.338  0.00  0.00    +0.000 OA
ATOM     10  O   UNL     1       4.899   1.888  19.644  0.00  0.00    +0.000 OA
ENDBRANCH   7   8
BRANCH   6  11
ATOM     11  C   UNL     1       5.460   5.057  19.152  0.00  0.00    +0.000 C 
BRANCH  11  12
ATOM     12  N   UNL     1       6.357   5.194  17.851  0.00  0.00    +0.000 N 
ATOM     13  C   UNL     1       7.790   4.745  18.205  0.00  0.00    +0.000 C 
BRANCH  12  14
ATOM     14  C   UNL     1       5.752   4.317  16.714  0.00  0.00    +0.000 C 
BRANCH  14  15
ATOM     15  C   UNL     1       5.601   4.942  15.319  0.00  0.00    +0.000 C 
ATOM     16 CL   UNL     1       6.311   3.940  14.038  0.00  0.00    +0.000 Cl
ENDBRANCH  14  15
ENDBRANCH  12  14
BRANCH  12  17
ATOM     17  C   UNL     1       6.486   6.700  17.449  0.00  0.00    +0.000 C 
BRANCH  17  18
ATOM     18  C   UNL     1       7.867   7.317  17.660  0.00  0.00    +0.000 C 
ATOM     19 CL   UNL     1       7.715   9.087  17.762  0.00  0.00    +0.000 Cl
ENDBRANCH  17  18
ENDBRANCH  12  17
ENDBRANCH  11  12
ENDBRANCH   6  11
TORSDOF 7
ENDMDL
MODEL 7
REMARK VINA RESULT:      -5.9      0.769      1.043
REMARK  Name = 
REMARK  9 active torsions:
REMARK  status: ('A' for Active; 'I' for Inactive)
REMARK    1  A    between atoms: C_1  and  C_2
REMARK    2  A    between atoms: C_6  and  C_7
REMARK    3  A    between atoms: C_7  and  N_8
REMARK    4  A    between atoms: N_8  and  C_9
REMARK    5  A    between atoms: N_8  and  C_10
REMARK    6  A    between atoms: N_8  and  C_13
REMARK    7  A    between atoms: C_10  and  C_11
REMARK    8  A    between atoms: C_13  and  C_14
REMARK    9  A    between atoms: C_16  and  N_17
REMARK                            x       y       z     vdW  Elec       q    Type
REMARK                         _______ _______ _______ _____ _____    ______ ____
ROOT
ATOM      1  C   UNL     1       1.439   2.804  21.343  0.00  0.00    +0.000 C 
ATOM      2  C   UNL     1       1.993   3.931  20.512  0.00  0.00    +0.000 A 
ATOM      3  C   UNL     1       1.770   5.247  20.929  0.00  0.00    +0.000 A 
ATOM      4  C   UNL     1       2.232   6.327  20.174  0.00  0.00    +0.000 A 
ATOM      5  C   UNL     1       2.869   6.110  18.946  0.00  0.00    +0.000 A 
ATOM      6  C   UNL     1       3.066   4.809  18.452  0.00  0.00    +0.000 A 
ATOM      7  C   UNL     1       2.694   3.736  19.305  0.00  0.00    +0.000 A 
ENDROOT
BRANCH   7   8
ATOM      8  N   UNL     1       3.087   2.383  18.929  0.00  0.00    +0.000 N 
ATOM      9  O   UNL     1       2.353   1.778  18.140  0.00  0.00    +0.000 OA
ATOM     10  O   UNL     1       4.191   1.999  19.329  0.00  0.00    +0.000 OA
ENDBRANCH   7   8
BRANCH   6  11
ATOM     11  C   UNL     1       3.573   4.625  17.024  0.00  0.00    +0.000 C 
BRANCH  11  12
ATOM     12  N   UNL     1       5.081   5.042  16.762  0.00  0.00    +0.000 N 
ATOM     13  C   UNL     1       5.084   6.344  15.934  0.00  0.00    +0.000 C 
BRANCH  12  14
ATOM     14  C   UNL     1       5.805   5.237  18.128  0.00  0.00    +0.000 C 
BRANCH  14  15
ATOM     15  C   UNL     1       6.958   6.251  18.199  0.00  0.00    +0.000 C 
ATOM     16 CL   UNL     1       8.203   5.792  19.377  0.00  0.00    +0.000 Cl
ENDBRANCH  14  15
ENDBRANCH  12  14
BRANCH  12  17
ATOM     17  C   UNL     1       5.778   3.976  15.855  0.00  0.00    +0.000 C 
BRANCH  17  18
ATOM     18  C   UNL     1       5.858   4.332  14.371  0.00  0.00    +0.000 C 
ATOM     19 CL   UNL     1       7.496   4.912  13.989  0.00  0.00    +0.000 Cl
ENDBRANCH  17  18
ENDBRANCH  12  17
ENDBRANCH  11  12
ENDBRANCH   6  11
TORSDOF 7
ENDMDL
MODEL 8
REMARK VINA RESULT:      -5.9      2.138      2.874
REMARK  Name = 
REMARK  9 active torsions:
REMARK  status: ('A' for Active; 'I' for Inactive)
REMARK    1  A    between atoms: C_1  and  C_2
REMARK    2  A    between atoms: C_6  and  C_7
REMARK    3  A    between atoms: C_7  and  N_8
REMARK    4  A    between atoms: N_8  and  C_9
REMARK    5  A    between atoms: N_8  and  C_10
REMARK    6  A    between atoms: N_8  and  C_13
REMARK    7  A    between atoms: C_10  and  C_11
REMARK    8  A    between atoms: C_13  and  C_14
REMARK    9  A    between atoms: C_16  and  N_17
REMARK                            x       y       z     vdW  Elec       q    Type
REMARK                         _______ _______ _______ _____ _____    ______ ____
ROOT
ATOM      1  C   UNL     1       2.258   2.376  21.464  0.00  0.00    +0.000 C 
ATOM      2  C   UNL     1       2.259   2.986  20.086  0.00  0.00    +0.000 A 
ATOM      3  C   UNL     1       1.034   3.321  19.498  0.00  0.00    +0.000 A 
ATOM      4  C   UNL     1       0.981   3.855  18.209  0.00  0.00    +0.000 A 
ATOM      5  C   UNL     1       2.151   4.002  17.455  0.00  0.00    +0.000 A 
ATOM      6  C   UNL     1       3.400   3.626  17.976  0.00  0.00    +0.000 A 
ATOM      7  C   UNL     1       3.429   3.204  19.333  0.00  0.00    +0.000 A 
ENDROOT
BRANCH   7   8
ATOM      8  N   UNL     1       4.725   3.023  19.976  0.00  0.00    +0.000 N 
ATOM      9  O   UNL     1       5.331   4.041  20.327  0.00  0.00    +0.000 OA
ATOM     10  O   UNL     1       5.053   1.860  20.235  0.00  0.00    +0.000 OA
ENDBRANCH   7   8
BRANCH   6  11
ATOM     11  C   UNL     1       4.616   3.607  17.053  0.00  0.00    +0.000 C 
BRANCH  11  12
ATOM     12  N   UNL     1       5.403   4.976  16.910  0.00  0.00    +0.000 N 
ATOM     13  C   UNL     1       5.359   5.404  15.429  0.00  0.00    +0.000 C 
BRANCH  12  14
ATOM     14  C   UNL     1       4.742   6.047  17.830  0.00  0.00    +0.000 C 
BRANCH  14  15
ATOM     15  C   UNL     1       4.036   7.238  17.164  0.00  0.00    +0.000 C 
ATOM     16 CL   UNL     1       2.543   7.706  18.001  0.00  0.00    +0.000 Cl
ENDBRANCH  14  15
ENDBRANCH  12  14
BRANCH  12  17
ATOM     17  C   UNL     1       6.917   4.757  17.230  0.00  0.00    +0.000 C 
BRANCH  17  18
ATOM     18  C   UNL     1       7.518   5.726  18.246  0.00  0.00    +0.000 C 
ATOM     19 CL   UNL     1       7.767   7.310  17.478  0.00  0.00    +0.000 Cl
ENDBRANCH  17  18
ENDBRANCH  12  17
ENDBRANCH  11  12
ENDBRANCH   6  11
TORSDOF 7
ENDMDL
MODEL 9
REMARK VINA RESULT:      -5.8      0.830      1.225
REMARK  Name = 
REMARK  9 active torsions:
REMARK  status: ('A' for Active; 'I' for Inactive)
REMARK    1  A    between atoms: C_1  and  C_2
REMARK    2  A    between atoms: C_6  and  C_7
REMARK    3  A    between atoms: C_7  and  N_8
REMARK    4  A    between atoms: N_8  and  C_9
REMARK    5  A    between atoms: N_8  and  C_10
REMARK    6  A    between atoms: N_8  and  C_13
REMARK    7  A    between atoms: C_10  and  C_11
REMARK    8  A    between atoms: C_13  and  C_14
REMARK    9  A    between atoms: C_16  and  N_17
REMARK                            x       y       z     vdW  Elec       q    Type
REMARK                         _______ _______ _______ _____ _____    ______ ____
ROOT
ATOM      1  C   UNL     1       1.740   4.398  21.029  0.00  0.00    +0.000 C 
ATOM      2  C   UNL     1       2.426   5.096  19.885  0.00  0.00    +0.000 A 
ATOM      3  C   UNL     1       2.218   6.468  19.712  0.00  0.00    +0.000 A 
ATOM      4  C   UNL     1       2.803   7.153  18.645  0.00  0.00    +0.000 A 
ATOM      5  C   UNL     1       3.556   6.462  17.689  0.00  0.00    +0.000 A 
ATOM      6  C   UNL     1       3.747   5.073  17.782  0.00  0.00    +0.000 A 
ATOM      7  C   UNL     1       3.242   4.433  18.946  0.00  0.00    +0.000 A 
ENDROOT
BRANCH   7   8
ATOM      8  N   UNL     1       3.613   3.045  19.190  0.00  0.00    +0.000 N 
ATOM      9  O   UNL     1       2.897   2.170  18.690  0.00  0.00    +0.000 OA
ATOM     10  O   UNL     1       4.687   2.856  19.771  0.00  0.00    +0.000 OA
ENDBRANCH   7   8
BRANCH   6  11
ATOM     11  C   UNL     1       4.393   4.331  16.616  0.00  0.00    +0.000 C 
BRANCH  11  12
ATOM     12  N   UNL     1       5.891   4.732  16.279  0.00  0.00    +0.000 N 
ATOM     13  C   UNL     1       5.883   6.142  15.654  0.00  0.00    +0.000 C 
BRANCH  12  14
ATOM     14  C   UNL     1       6.738   4.696  17.586  0.00  0.00    +0.000 C 
BRANCH  14  15
ATOM     15  C   UNL     1       7.269   6.026  18.143  0.00  0.00    +0.000 C 
ATOM     16 CL   UNL     1       7.830   5.893  19.821  0.00  0.00    +0.000 Cl
ENDBRANCH  14  15
ENDBRANCH  12  14
BRANCH  12  17
ATOM     17  C   UNL     1       6.457   3.791  15.166  0.00  0.00    +0.000 C 
BRANCH  17  18
ATOM     18  C   UNL     1       6.499   4.391  13.762  0.00  0.00    +0.000 C 
ATOM     19 CL   UNL     1       5.641   3.317  12.634  0.00  0.00    +0.000 Cl
ENDBRANCH  17  18
ENDBRANCH  12  17
ENDBRANCH  11  12
ENDBRANCH   6  11
TORSDOF 7
ENDMDL
