MODEL 1
REMARK VINA RESULT:      -7.5      0.000      0.000
REMARK  Name = 
REMARK  8 active torsions:
REMARK  status: ('A' for Active; 'I' for Inactive)
REMARK    1  A    between atoms: C_1  and  N_2
REMARK    2  A    between atoms: N_2  and  C_3
REMARK    3  A    between atoms: N_6  and  C_7
REMARK    4  A    between atoms: C_10  and  S_11
REMARK    5  A    between atoms: S_11  and  C_12
REMARK    6  A    between atoms: C_16  and  O_17
REMARK    7  A    between atoms: O_17  and  C_18
REMARK    8  A    between atoms: C_18  and  C_19
REMARK                            x       y       z     vdW  Elec       q    Type
REMARK                         _______ _______ _______ _____ _____    ______ ____
ROOT
ATOM      1  C   UNL     1       3.477   5.909  19.095  0.00  0.00    +0.000 A 
ATOM      2  C   UNL     1       4.023   6.866  18.208  0.00  0.00    +0.000 A 
ATOM      3  C   UNL     1       5.095   6.570  17.376  0.00  0.00    +0.000 A 
ATOM      4  C   UNL     1       5.670   5.306  17.445  0.00  0.00    +0.000 A 
ATOM      5  C   UNL     1       5.155   4.333  18.304  0.00  0.00    +0.000 A 
ATOM      6  C   UNL     1       4.060   4.627  19.133  0.00  0.00    +0.000 A 
ENDROOT
BRANCH   1  10
ATOM      7  C   UNL     1       1.276   9.529  18.972  0.00  0.00    +0.000 A 
ATOM      8  N   UNL     1       1.911   8.347  18.963  0.00  0.00    +0.000 NA
ATOM      9  C   UNL     1       1.869   7.561  20.049  0.00  0.00    +0.000 A 
ATOM     10  N   UNL     1       2.454   6.297  19.977  0.00  0.00    +0.000 N 
ATOM     11  N   UNL     1       1.238   7.899  21.179  0.00  0.00    +0.000 NA
ATOM     12  C   UNL     1       0.611   9.098  21.177  0.00  0.00    +0.000 A 
ATOM     13  C   UNL     1       0.593   9.959  20.098  0.00  0.00    +0.000 A 
ATOM     14 CL   UNL     1      -0.300  11.423  20.157  0.00  0.00    +0.000 Cl
ATOM     15  H   UNL     1       2.511   5.889  20.901  0.00  0.00    +0.000 HD
BRANCH   7  17
ATOM     16  C   UNL     1       2.366  11.411  17.965  0.00  0.00    +0.000 C 
ATOM     17  N   UNL     1       1.379  10.347  17.827  0.00  0.00    +0.000 N 
ATOM     18  H   UNL     1       1.545   9.770  17.006  0.00  0.00    +0.000 HD
ENDBRANCH   7  17
ENDBRANCH   1  10
BRANCH   4  19
ATOM     19  S   UNL     1       7.078   4.939  16.427  0.00  0.00    +0.000 S 
ATOM     20  C   UNL     1       6.386   3.898  15.170  0.00  0.00    +0.000 C 
ATOM     21  O   UNL     1       7.511   6.180  15.815  0.00  0.00    +0.000 OA
ATOM     22  O   UNL     1       7.994   4.141  17.221  0.00  0.00    +0.000 OA
ENDBRANCH   4  19
BRANCH   6  23
ATOM     23  O   UNL     1       3.697   3.578  19.938  0.00  0.00    +0.000 OA
BRANCH  23  24
ATOM     24  C   UNL     1       3.256   2.373  19.303  0.00  0.00    +0.000 C 
BRANCH  24  25
ATOM     25  C   UNL     1       1.785   2.156  19.632  0.00  0.00    +0.000 C 
ATOM     26  F   UNL     1       1.204   3.359  19.901  0.00  0.00    +0.000 F 
ENDBRANCH  24  25
ENDBRANCH  23  24
ENDBRANCH   6  23
TORSDOF 6
ENDMDL
MODEL 2
REMARK VINA RESULT:      -7.3      4.403      6.574
REMARK  Name = 
REMARK  8 active torsions:
REMARK  status: ('A' for Active; 'I' for Inactive)
REMARK    1  A    between atoms: C_1  and  N_2
REMARK    2  A    between atoms: N_2  and  C_3
REMARK    3  A    between atoms: N_6  and  C_7
REMARK    4  A    between atoms: C_10  and  S_11
REMARK    5  A    between atoms: S_11  and  C_12
REMARK    6  A    between atoms: C_16  and  O_17
REMARK    7  A    between atoms: O_17  and  C_18
REMARK    8  A    between atoms: C_18  and  C_19
REMARK                            x       y       z     vdW  Elec       q    Type
REMARK                         _______ _______ _______ _____ _____    ______ ____
ROOT
ATOM      1  C   UNL     1       2.497   6.365  18.903  0.00  0.00    +0.000 A 
ATOM      2  C   UNL     1       2.296   7.580  18.209  0.00  0.00    +0.000 A 
ATOM      3  C   UNL     1       1.711   8.685  18.815  0.00  0.00    +0.000 A 
ATOM      4  C   UNL     1       1.280   8.579  20.132  0.00  0.00    +0.000 A 
ATOM      5  C   UNL     1       1.468   7.397  20.852  0.00  0.00    +0.000 A 
ATOM      6  C   UNL     1       2.074   6.285  20.244  0.00  0.00    +0.000 A 
ENDROOT
BRANCH   1  10
ATOM      7  C   UNL     1       6.071   6.238  16.626  0.00  0.00    +0.000 A 
ATOM      8  N   UNL     1       4.984   6.250  17.415  0.00  0.00    +0.000 NA
ATOM      9  C   UNL     1       4.075   5.270  17.309  0.00  0.00    +0.000 A 
ATOM     10  N   UNL     1       3.008   5.255  18.208  0.00  0.00    +0.000 N 
ATOM     11  N   UNL     1       4.171   4.268  16.428  0.00  0.00    +0.000 NA
ATOM     12  C   UNL     1       5.265   4.275  15.633  0.00  0.00    +0.000 A 
ATOM     13  C   UNL     1       6.255   5.235  15.688  0.00  0.00    +0.000 A 
ATOM     14 CL   UNL     1       7.651   5.116  14.697  0.00  0.00    +0.000 Cl
ATOM     15  H   UNL     1       2.313   4.584  17.908  0.00  0.00    +0.000 HD
BRANCH   7  17
ATOM     16  C   UNL     1       7.752   7.286  17.975  0.00  0.00    +0.000 C 
ATOM     17  N   UNL     1       6.983   7.308  16.736  0.00  0.00    +0.000 N 
ATOM     18  H   UNL     1       7.579   7.340  15.913  0.00  0.00    +0.000 HD
ENDBRANCH   7  17
ENDBRANCH   1  10
BRANCH   4  19
ATOM     19  S   UNL     1       0.479   9.968  20.896  0.00  0.00    +0.000 S 
ATOM     20  C   UNL     1      -0.307   9.233  22.305  0.00  0.00    +0.000 C 
ATOM     21  O   UNL     1       1.515  10.868  21.361  0.00  0.00    +0.000 OA
ATOM     22  O   UNL     1      -0.555  10.427  19.989  0.00  0.00    +0.000 OA
ENDBRANCH   4  19
BRANCH   6  23
ATOM     23  O   UNL     1       2.155   5.195  21.073  0.00  0.00    +0.000 OA
BRANCH  23  24
ATOM     24  C   UNL     1       1.305   4.079  20.788  0.00  0.00    +0.000 C 
BRANCH  24  25
ATOM     25  C   UNL     1       1.904   2.832  21.425  0.00  0.00    +0.000 C 
ATOM     26  F   UNL     1       1.032   2.340  22.351  0.00  0.00    +0.000 F 
ENDBRANCH  24  25
ENDBRANCH  23  24
ENDBRANCH   6  23
TORSDOF 6
ENDMDL
MODEL 3
REMARK VINA RESULT:      -7.3      1.080      1.088
REMARK  Name = 
REMARK  8 active torsions:
REMARK  status: ('A' for Active; 'I' for Inactive)
REMARK    1  A    between atoms: C_1  and  N_2
REMARK    2  A    between atoms: N_2  and  C_3
REMARK    3  A    between atoms: N_6  and  C_7
REMARK    4  A    between atoms: C_10  and  S_11
REMARK    5  A    between atoms: S_11  and  C_12
REMARK    6  A    between atoms: C_16  and  O_17
REMARK    7  A    between atoms: O_17  and  C_18
REMARK    8  A    between atoms: C_18  and  C_19
REMARK                            x       y       z     vdW  Elec       q    Type
REMARK                         _______ _______ _______ _____ _____    ______ ____
ROOT
ATOM      1  C   UNL     1       3.582   5.969  18.820  0.00  0.00    +0.000 A 
ATOM      2  C   UNL     1       4.870   6.525  18.988  0.00  0.00    +0.000 A 
ATOM      3  C   UNL     1       5.930   6.193  18.153  0.00  0.00    +0.000 A 
ATOM      4  C   UNL     1       5.723   5.258  17.145  0.00  0.00    +0.000 A 
ATOM      5  C   UNL     1       4.462   4.692  16.945  0.00  0.00    +0.000 A 
ATOM      6  C   UNL     1       3.387   5.040  17.779  0.00  0.00    +0.000 A 
ENDROOT
BRANCH   1  10
ATOM      7  C   UNL     1       1.270   9.519  18.973  0.00  0.00    +0.000 A 
ATOM      8  N   UNL     1       1.940   8.359  18.876  0.00  0.00    +0.000 NA
ATOM      9  C   UNL     1       1.957   7.513  19.917  0.00  0.00    +0.000 A 
ATOM     10  N   UNL     1       2.577   6.273  19.754  0.00  0.00    +0.000 N 
ATOM     11  N   UNL     1       1.353   7.767  21.083  0.00  0.00    +0.000 NA
ATOM     12  C   UNL     1       0.691   8.944  21.169  0.00  0.00    +0.000 A 
ATOM     13  C   UNL     1       0.612   9.862  20.142  0.00  0.00    +0.000 A 
ATOM     14 CL   UNL     1      -0.322  11.292  20.312  0.00  0.00    +0.000 Cl
ATOM     15  H   UNL     1       2.676   5.817  20.651  0.00  0.00    +0.000 HD
BRANCH   7  17
ATOM     16  C   UNL     1       2.307  11.457  18.018  0.00  0.00    +0.000 C 
ATOM     17  N   UNL     1       1.311  10.402  17.873  0.00  0.00    +0.000 N 
ATOM     18  H   UNL     1       1.430   9.875  17.012  0.00  0.00    +0.000 HD
ENDBRANCH   7  17
ENDBRANCH   1  10
BRANCH   4  19
ATOM     19  S   UNL     1       7.086   4.784  16.110  0.00  0.00    +0.000 S 
ATOM     20  C   UNL     1       6.337   3.635  14.988  0.00  0.00    +0.000 C 
ATOM     21  O   UNL     1       7.497   5.957  15.365  0.00  0.00    +0.000 OA
ATOM     22  O   UNL     1       8.030   4.058  16.938  0.00  0.00    +0.000 OA
ENDBRANCH   4  19
BRANCH   6  23
ATOM     23  O   UNL     1       2.229   4.373  17.472  0.00  0.00    +0.000 OA
BRANCH  23  24
ATOM     24  C   UNL     1       2.139   2.993  17.841  0.00  0.00    +0.000 C 
BRANCH  24  25
ATOM     25  C   UNL     1       1.025   2.832  18.868  0.00  0.00    +0.000 C 
ATOM     26  F   UNL     1       0.259   1.755  18.532  0.00  0.00    +0.000 F 
ENDBRANCH  24  25
ENDBRANCH  23  24
ENDBRANCH   6  23
TORSDOF 6
ENDMDL
MODEL 4
REMARK VINA RESULT:      -7.3      4.281      6.480
REMARK  Name = 
REMARK  8 active torsions:
REMARK  status: ('A' for Active; 'I' for Inactive)
REMARK    1  A    between atoms: C_1  and  N_2
REMARK    2  A    between atoms: N_2  and  C_3
REMARK    3  A    between atoms: N_6  and  C_7
REMARK    4  A    between atoms: C_10  and  S_11
REMARK    5  A    between atoms: S_11  and  C_12
REMARK    6  A    between atoms: C_16  and  O_17
REMARK    7  A    between atoms: O_17  and  C_18
REMARK    8  A    between atoms: C_18  and  C_19
REMARK                            x       y       z     vdW  Elec       q    Type
REMARK                         _______ _______ _______ _____ _____    ______ ____
ROOT
ATOM      1  C   UNL     1       2.845   5.713  18.844  0.00  0.00    +0.000 A 
ATOM      2  C   UNL     1       2.651   7.023  18.349  0.00  0.00    +0.000 A 
ATOM      3  C   UNL     1       2.067   8.022  19.118  0.00  0.00    +0.000 A 
ATOM      4  C   UNL     1       1.628   7.712  20.400  0.00  0.00    +0.000 A 
ATOM      5  C   UNL     1       1.807   6.430  20.925  0.00  0.00    +0.000 A 
ATOM      6  C   UNL     1       2.413   5.425  20.154  0.00  0.00    +0.000 A 
ENDROOT
BRANCH   1  10
ATOM      7  C   UNL     1       6.323   6.011  16.438  0.00  0.00    +0.000 A 
ATOM      8  N   UNL     1       5.270   5.882  17.262  0.00  0.00    +0.000 NA
ATOM      9  C   UNL     1       4.384   4.896  17.058  0.00  0.00    +0.000 A 
ATOM     10  N   UNL     1       3.356   4.725  17.986  0.00  0.00    +0.000 N 
ATOM     11  N   UNL     1       4.470   4.025  16.046  0.00  0.00    +0.000 NA
ATOM     12  C   UNL     1       5.530   4.175  15.218  0.00  0.00    +0.000 A 
ATOM     13  C   UNL     1       6.494   5.151  15.366  0.00  0.00    +0.000 A 
ATOM     14 CL   UNL     1       7.851   5.212  14.317  0.00  0.00    +0.000 Cl
ATOM     15  H   UNL     1       2.668   4.078  17.623  0.00  0.00    +0.000 HD
BRANCH   7  17
ATOM     16  C   UNL     1       7.713   7.146  18.026  0.00  0.00    +0.000 C 
ATOM     17  N   UNL     1       7.209   7.086  16.659  0.00  0.00    +0.000 N 
ATOM     18  H   UNL     1       7.959   7.061  15.972  0.00  0.00    +0.000 HD
ENDBRANCH   7  17
ENDBRANCH   1  10
BRANCH   4  19
ATOM     19  S   UNL     1       0.826   8.966  21.369  0.00  0.00    +0.000 S 
ATOM     20  C   UNL     1       0.655  10.297  20.212  0.00  0.00    +0.000 C 
ATOM     21  O   UNL     1      -0.494   8.476  21.711  0.00  0.00    +0.000 OA
ATOM     22  O   UNL     1       1.758   9.380  22.401  0.00  0.00    +0.000 OA
ENDBRANCH   4  19
BRANCH   6  23
ATOM     23  O   UNL     1       2.485   4.218  20.801  0.00  0.00    +0.000 OA
BRANCH  23  24
ATOM     24  C   UNL     1       1.263   3.506  21.017  0.00  0.00    +0.000 C 
BRANCH  24  25
ATOM     25  C   UNL     1       0.866   2.808  19.723  0.00  0.00    +0.000 C 
ATOM     26  F   UNL     1       1.841   1.920  19.376  0.00  0.00    +0.000 F 
ENDBRANCH  24  25
ENDBRANCH  23  24
ENDBRANCH   6  23
TORSDOF 6
ENDMDL
MODEL 5
REMARK VINA RESULT:      -7.2      1.830      2.230
REMARK  Name = 
REMARK  8 active torsions:
REMARK  status: ('A' for Active; 'I' for Inactive)
REMARK    1  A    between atoms: C_1  and  N_2
REMARK    2  A    between atoms: N_2  and  C_3
REMARK    3  A    between atoms: N_6  and  C_7
REMARK    4  A    between atoms: C_10  and  S_11
REMARK    5  A    between atoms: S_11  and  C_12
REMARK    6  A    between atoms: C_16  and  O_17
REMARK    7  A    between atoms: O_17  and  C_18
REMARK    8  A    between atoms: C_18  and  C_19
REMARK                            x       y       z     vdW  Elec       q    Type
REMARK                         _______ _______ _______ _____ _____    ______ ____
ROOT
ATOM      1  C   UNL     1       2.456   7.064  19.595  0.00  0.00    +0.000 A 
ATOM      2  C   UNL     1       2.834   7.861  18.490  0.00  0.00    +0.000 A 
ATOM      3  C   UNL     1       3.643   7.371  17.472  0.00  0.00    +0.000 A 
ATOM      4  C   UNL     1       4.123   6.070  17.563  0.00  0.00    +0.000 A 
ATOM      5  C   UNL     1       3.766   5.250  18.636  0.00  0.00    +0.000 A 
ATOM      6  C   UNL     1       2.934   5.740  19.656  0.00  0.00    +0.000 A 
ENDROOT
BRANCH   1  10
ATOM      7  C   UNL     1      -0.161  10.385  19.284  0.00  0.00    +0.000 A 
ATOM      8  N   UNL     1       0.600   9.282  19.369  0.00  0.00    +0.000 NA
ATOM      9  C   UNL     1       1.008   8.847  20.570  0.00  0.00    +0.000 A 
ATOM     10  N   UNL     1       1.713   7.645  20.637  0.00  0.00    +0.000 N 
ATOM     11  N   UNL     1       0.719   9.472  21.717  0.00  0.00    +0.000 NA
ATOM     12  C   UNL     1      -0.039  10.587  21.614  0.00  0.00    +0.000 A 
ATOM     13  C   UNL     1      -0.513  11.093  20.421  0.00  0.00    +0.000 A 
ATOM     14 CL   UNL     1      -1.540  12.468  20.394  0.00  0.00    +0.000 Cl
ATOM     15  H   UNL     1       2.111   7.529  21.559  0.00  0.00    +0.000 HD
BRANCH   7  17
ATOM     16  C   UNL     1      -1.694  10.138  17.459  0.00  0.00    +0.000 C 
ATOM     17  N   UNL     1      -0.534  10.835  18.000  0.00  0.00    +0.000 N 
ATOM     18  H   UNL     1      -0.661  11.844  18.012  0.00  0.00    +0.000 HD
ENDBRANCH   7  17
ENDBRANCH   1  10
BRANCH   4  19
ATOM     19  S   UNL     1       5.205   5.455  16.296  0.00  0.00    +0.000 S 
ATOM     20  C   UNL     1       6.767   5.370  17.130  0.00  0.00    +0.000 C 
ATOM     21  O   UNL     1       4.778   4.108  15.973  0.00  0.00    +0.000 OA
ATOM     22  O   UNL     1       5.295   6.474  15.268  0.00  0.00    +0.000 OA
ENDBRANCH   4  19
BRANCH   6  23
ATOM     23  O   UNL     1       2.706   4.825  20.652  0.00  0.00    +0.000 OA
BRANCH  23  24
ATOM     24  C   UNL     1       1.465   4.111  20.627  0.00  0.00    +0.000 C 
BRANCH  24  25
ATOM     25  C   UNL     1       1.702   2.697  21.141  0.00  0.00    +0.000 C 
ATOM     26  F   UNL     1       0.953   2.497  22.262  0.00  0.00    +0.000 F 
ENDBRANCH  24  25
ENDBRANCH  23  24
ENDBRANCH   6  23
TORSDOF 6
ENDMDL
MODEL 6
REMARK VINA RESULT:      -7.2      4.385      6.548
REMARK  Name = 
REMARK  8 active torsions:
REMARK  status: ('A' for Active; 'I' for Inactive)
REMARK    1  A    between atoms: C_1  and  N_2
REMARK    2  A    between atoms: N_2  and  C_3
REMARK    3  A    between atoms: N_6  and  C_7
REMARK    4  A    between atoms: C_10  and  S_11
REMARK    5  A    between atoms: S_11  and  C_12
REMARK    6  A    between atoms: C_16  and  O_17
REMARK    7  A    between atoms: O_17  and  C_18
REMARK    8  A    between atoms: C_18  and  C_19
REMARK                            x       y       z     vdW  Elec       q    Type
REMARK                         _______ _______ _______ _____ _____    ______ ____
ROOT
ATOM      1  C   UNL     1       2.524   6.481  18.786  0.00  0.00    +0.000 A 
ATOM      2  C   UNL     1       2.401   7.682  18.050  0.00  0.00    +0.000 A 
ATOM      3  C   UNL     1       1.851   8.832  18.605  0.00  0.00    +0.000 A 
ATOM      4  C   UNL     1       1.376   8.786  19.911  0.00  0.00    +0.000 A 
ATOM      5  C   UNL     1       1.486   7.619  20.670  0.00  0.00    +0.000 A 
ATOM      6  C   UNL     1       2.058   6.463  20.115  0.00  0.00    +0.000 A 
ENDROOT
BRANCH   1  10
ATOM      7  C   UNL     1       6.135   6.131  16.592  0.00  0.00    +0.000 A 
ATOM      8  N   UNL     1       5.034   6.215  17.356  0.00  0.00    +0.000 NA
ATOM      9  C   UNL     1       4.087   5.269  17.264  0.00  0.00    +0.000 A 
ATOM     10  N   UNL     1       3.003   5.328  18.141  0.00  0.00    +0.000 N 
ATOM     11  N   UNL     1       4.160   4.233  16.421  0.00  0.00    +0.000 NA
ATOM     12  C   UNL     1       5.269   4.168  15.650  0.00  0.00    +0.000 A 
ATOM     13  C   UNL     1       6.296   5.090  15.693  0.00  0.00    +0.000 A 
ATOM     14 CL   UNL     1       7.706   4.880  14.737  0.00  0.00    +0.000 Cl
ATOM     15  H   UNL     1       2.288   4.676  17.849  0.00  0.00    +0.000 HD
BRANCH   7  17
ATOM     16  C   UNL     1       7.754   7.223  17.981  0.00  0.00    +0.000 C 
ATOM     17  N   UNL     1       7.087   7.167  16.685  0.00  0.00    +0.000 N 
ATOM     18  H   UNL     1       7.747   7.099  15.914  0.00  0.00    +0.000 HD
ENDBRANCH   7  17
ENDBRANCH   1  10
BRANCH   4  19
ATOM     19  S   UNL     1       0.618  10.233  20.608  0.00  0.00    +0.000 S 
ATOM     20  C   UNL     1       1.202  11.525  19.545  0.00  0.00    +0.000 C 
ATOM     21  O   UNL     1      -0.815  10.102  20.435  0.00  0.00    +0.000 OA
ATOM     22  O   UNL     1       1.194  10.435  21.924  0.00  0.00    +0.000 OA
ENDBRANCH   4  19
BRANCH   6  23
ATOM     23  O   UNL     1       2.062   5.396  20.978  0.00  0.00    +0.000 OA
BRANCH  23  24
ATOM     24  C   UNL     1       1.178   4.307  20.692  0.00  0.00    +0.000 C 
BRANCH  24  25
ATOM     25  C   UNL     1       1.745   3.039  21.318  0.00  0.00    +0.000 C 
ATOM     26  F   UNL     1       2.267   2.250  20.335  0.00  0.00    +0.000 F 
ENDBRANCH  24  25
ENDBRANCH  23  24
ENDBRANCH   6  23
TORSDOF 6
ENDMDL
MODEL 7
REMARK VINA RESULT:      -7.2      1.198      1.381
REMARK  Name = 
REMARK  8 active torsions:
REMARK  status: ('A' for Active; 'I' for Inactive)
REMARK    1  A    between atoms: C_1  and  N_2
REMARK    2  A    between atoms: N_2  and  C_3
REMARK    3  A    between atoms: N_6  and  C_7
REMARK    4  A    between atoms: C_10  and  S_11
REMARK    5  A    between atoms: S_11  and  C_12
REMARK    6  A    between atoms: C_16  and  O_17
REMARK    7  A    between atoms: O_17  and  C_18
REMARK    8  A    between atoms: C_18  and  C_19
REMARK                            x       y       z     vdW  Elec       q    Type
REMARK                         _______ _______ _______ _____ _____    ______ ____
ROOT
ATOM      1  C   UNL     1       2.832   6.304  19.469  0.00  0.00    +0.000 A 
ATOM      2  C   UNL     1       3.186   7.117  18.368  0.00  0.00    +0.000 A 
ATOM      3  C   UNL     1       4.100   6.700  17.409  0.00  0.00    +0.000 A 
ATOM      4  C   UNL     1       4.710   5.459  17.557  0.00  0.00    +0.000 A 
ATOM      5  C   UNL     1       4.380   4.625  18.629  0.00  0.00    +0.000 A 
ATOM      6  C   UNL     1       3.443   5.041  19.589  0.00  0.00    +0.000 A 
ENDROOT
BRANCH   1  10
ATOM      7  C   UNL     1       0.985  10.120  19.460  0.00  0.00    +0.000 A 
ATOM      8  N   UNL     1       1.500   8.880  19.424  0.00  0.00    +0.000 NA
ATOM      9  C   UNL     1       1.524   8.139  20.542  0.00  0.00    +0.000 A 
ATOM     10  N   UNL     1       1.972   6.821  20.454  0.00  0.00    +0.000 N 
ATOM     11  N   UNL     1       1.080   8.575  21.726  0.00  0.00    +0.000 NA
ATOM     12  C   UNL     1       0.574   9.830  21.748  0.00  0.00    +0.000 A 
ATOM     13  C   UNL     1       0.498  10.652  20.642  0.00  0.00    +0.000 A 
ATOM     14 CL   UNL     1      -0.237  12.200  20.746  0.00  0.00    +0.000 Cl
ATOM     15  H   UNL     1       2.110   6.440  21.381  0.00  0.00    +0.000 HD
BRANCH   7  17
ATOM     16  C   UNL     1       2.218  11.700  18.146  0.00  0.00    +0.000 C 
ATOM     17  N   UNL     1       1.016  10.885  18.275  0.00  0.00    +0.000 N 
ATOM     18  H   UNL     1       0.872  10.280  17.470  0.00  0.00    +0.000 HD
ENDBRANCH   7  17
ENDBRANCH   1  10
BRANCH   4  19
ATOM     19  S   UNL     1       5.922   4.941  16.368  0.00  0.00    +0.000 S 
ATOM     20  C   UNL     1       7.360   4.681  17.370  0.00  0.00    +0.000 C 
ATOM     21  O   UNL     1       5.493   3.664  15.834  0.00  0.00    +0.000 OA
ATOM     22  O   UNL     1       6.180   6.067  15.490  0.00  0.00    +0.000 OA
ENDBRANCH   4  19
BRANCH   6  23
ATOM     23  O   UNL     1       3.256   4.124  20.591  0.00  0.00    +0.000 OA
BRANCH  23  24
ATOM     24  C   UNL     1       2.622   2.886  20.251  0.00  0.00    +0.000 C 
BRANCH  24  25
ATOM     25  C   UNL     1       1.175   2.931  20.723  0.00  0.00    +0.000 C 
ATOM     26  F   UNL     1       0.348   2.840  19.642  0.00  0.00    +0.000 F 
ENDBRANCH  24  25
ENDBRANCH  23  24
ENDBRANCH   6  23
TORSDOF 6
ENDMDL
MODEL 8
REMARK VINA RESULT:      -7.1      1.034      1.050
REMARK  Name = 
REMARK  8 active torsions:
REMARK  status: ('A' for Active; 'I' for Inactive)
REMARK    1  A    between atoms: C_1  and  N_2
REMARK    2  A    between atoms: N_2  and  C_3
REMARK    3  A    between atoms: N_6  and  C_7
REMARK    4  A    between atoms: C_10  and  S_11
REMARK    5  A    between atoms: S_11  and  C_12
REMARK    6  A    between atoms: C_16  and  O_17
REMARK    7  A    between atoms: O_17  and  C_18
REMARK    8  A    between atoms: C_18  and  C_19
REMARK                            x       y       z     vdW  Elec       q    Type
REMARK                         _______ _______ _______ _____ _____    ______ ____
ROOT
ATOM      1  C   UNL     1       3.012   6.323  19.201  0.00  0.00    +0.000 A 
ATOM      2  C   UNL     1       3.377   7.246  18.195  0.00  0.00    +0.000 A 
ATOM      3  C   UNL     1       4.319   6.937  17.220  0.00  0.00    +0.000 A 
ATOM      4  C   UNL     1       4.944   5.696  17.260  0.00  0.00    +0.000 A 
ATOM      5  C   UNL     1       4.605   4.757  18.236  0.00  0.00    +0.000 A 
ATOM      6  C   UNL     1       3.641   5.063  19.211  0.00  0.00    +0.000 A 
ENDROOT
BRANCH   1  10
ATOM      7  C   UNL     1       0.977  10.034  19.437  0.00  0.00    +0.000 A 
ATOM      8  N   UNL     1       1.553   8.827  19.322  0.00  0.00    +0.000 NA
ATOM      9  C   UNL     1       1.609   8.013  20.386  0.00  0.00    +0.000 A 
ATOM     10  N   UNL     1       2.123   6.727  20.212  0.00  0.00    +0.000 N 
ATOM     11  N   UNL     1       1.138   8.345  21.593  0.00  0.00    +0.000 NA
ATOM     12  C   UNL     1       0.570   9.568  21.697  0.00  0.00    +0.000 A 
ATOM     13  C   UNL     1       0.458  10.459  20.649  0.00  0.00    +0.000 A 
ATOM     14 CL   UNL     1      -0.354  11.957  20.852  0.00  0.00    +0.000 Cl
ATOM     15  H   UNL     1       2.275   6.292  21.112  0.00  0.00    +0.000 HD
BRANCH   7  17
ATOM     16  C   UNL     1       2.105  11.799  18.274  0.00  0.00    +0.000 C 
ATOM     17  N   UNL     1       0.975  10.879  18.307  0.00  0.00    +0.000 N 
ATOM     18  H   UNL     1       0.907  10.321  17.460  0.00  0.00    +0.000 HD
ENDBRANCH   7  17
ENDBRANCH   1  10
BRANCH   4  19
ATOM     19  S   UNL     1       6.191   5.316  16.054  0.00  0.00    +0.000 S 
ATOM     20  C   UNL     1       5.834   3.628  15.649  0.00  0.00    +0.000 C 
ATOM     21  O   UNL     1       5.935   6.136  14.888  0.00  0.00    +0.000 OA
ATOM     22  O   UNL     1       7.476   5.358  16.727  0.00  0.00    +0.000 OA
ENDBRANCH   4  19
BRANCH   6  23
ATOM     23  O   UNL     1       3.447   4.048  20.113  0.00  0.00    +0.000 OA
BRANCH  23  24
ATOM     24  C   UNL     1       2.360   3.147  19.877  0.00  0.00    +0.000 C 
BRANCH  24  25
ATOM     25  C   UNL     1       1.676   2.845  21.205  0.00  0.00    +0.000 C 
ATOM     26  F   UNL     1       2.180   3.672  22.165  0.00  0.00    +0.000 F 
ENDBRANCH  24  25
ENDBRANCH  23  24
ENDBRANCH   6  23
TORSDOF 6
ENDMDL
MODEL 9
REMARK VINA RESULT:      -7.1      1.571      1.814
REMARK  Name = 
REMARK  8 active torsions:
REMARK  status: ('A' for Active; 'I' for Inactive)
REMARK    1  A    between atoms: C_1  and  N_2
REMARK    2  A    between atoms: N_2  and  C_3
REMARK    3  A    between atoms: N_6  and  C_7
REMARK    4  A    between atoms: C_10  and  S_11
REMARK    5  A    between atoms: S_11  and  C_12
REMARK    6  A    between atoms: C_16  and  O_17
REMARK    7  A    between atoms: O_17  and  C_18
REMARK    8  A    between atoms: C_18  and  C_19
REMARK                            x       y       z     vdW  Elec       q    Type
REMARK                         _______ _______ _______ _____ _____    ______ ____
ROOT
ATOM      1  C   UNL     1       2.762   6.531  19.383  0.00  0.00    +0.000 A 
ATOM      2  C   UNL     1       3.293   7.451  18.451  0.00  0.00    +0.000 A 
ATOM      3  C   UNL     1       4.091   7.045  17.388  0.00  0.00    +0.000 A 
ATOM      4  C   UNL     1       4.405   5.696  17.262  0.00  0.00    +0.000 A 
ATOM      5  C   UNL     1       3.894   4.757  18.161  0.00  0.00    +0.000 A 
ATOM      6  C   UNL     1       3.074   5.166  19.225  0.00  0.00    +0.000 A 
ENDROOT
BRANCH   1  10
ATOM      7  C   UNL     1       0.361  10.022  19.498  0.00  0.00    +0.000 A 
ATOM      8  N   UNL     1       1.051   8.872  19.442  0.00  0.00    +0.000 NA
ATOM      9  C   UNL     1       1.411   8.256  20.577  0.00  0.00    +0.000 A 
ATOM     10  N   UNL     1       2.040   7.014  20.488  0.00  0.00    +0.000 N 
ATOM     11  N   UNL     1       1.142   8.740  21.795  0.00  0.00    +0.000 NA
ATOM     12  C   UNL     1       0.455   9.905  21.836  0.00  0.00    +0.000 A 
ATOM     13  C   UNL     1       0.034  10.594  20.717  0.00  0.00    +0.000 A 
ATOM     14 CL   UNL     1      -0.906  12.022  20.866  0.00  0.00    +0.000 Cl
ATOM     15  H   UNL     1       2.415   6.751  21.390  0.00  0.00    +0.000 HD
BRANCH   7  17
ATOM     16  C   UNL     1      -1.227  10.212  17.713  0.00  0.00    +0.000 C 
ATOM     17  N   UNL     1       0.037  10.662  18.283  0.00  0.00    +0.000 N 
ATOM     18  H   UNL     1       0.067  11.671  18.407  0.00  0.00    +0.000 HD
ENDBRANCH   7  17
ENDBRANCH   1  10
BRANCH   4  19
ATOM     19  S   UNL     1       5.472   5.176  15.942  0.00  0.00    +0.000 S 
ATOM     20  C   UNL     1       6.989   4.822  16.788  0.00  0.00    +0.000 C 
ATOM     21  O   UNL     1       4.938   3.938  15.411  0.00  0.00    +0.000 OA
ATOM     22  O   UNL     1       5.691   6.323  15.081  0.00  0.00    +0.000 OA
ENDBRANCH   4  19
BRANCH   6  23
ATOM     23  O   UNL     1       2.683   4.130  20.033  0.00  0.00    +0.000 OA
BRANCH  23  24
ATOM     24  C   UNL     1       1.413   3.525  19.772  0.00  0.00    +0.000 C 
BRANCH  24  25
ATOM     25  C   UNL     1       1.639   2.093  19.301  0.00  0.00    +0.000 C 
ATOM     26  F   UNL     1       1.802   2.088  17.948  0.00  0.00    +0.000 F 
ENDBRANCH  24  25
ENDBRANCH  23  24
ENDBRANCH   6  23
TORSDOF 6
ENDMDL
