MODEL 1
REMARK VINA RESULT:      -8.0      0.000      0.000
REMARK  Name = 
REMARK  13 active torsions:
REMARK  status: ('A' for Active; 'I' for Inactive)
REMARK    1  A    between atoms: C_1  and  C_2
REMARK    2  A    between atoms: C_2  and  O_3
REMARK    3  A    between atoms: O_3  and  C_4
REMARK    4  A    between atoms: C_4  and  C_5
REMARK    5  A    between atoms: C_5  and  N_6
REMARK    6  A    between atoms: N_8  and  C_9
REMARK    7  A    between atoms: C_9  and  C_11
REMARK    8  A    between atoms: C_15  and  C_16
REMARK    9  A    between atoms: C_23  and  C_24
REMARK   10  A    between atoms: C_24  and  C_25
REMARK   11  A    between atoms: C_24  and  C_26
REMARK   12  A    between atoms: C_24  and  C_27
REMARK   13  A    between atoms: N_28  and  C_29
REMARK                            x       y       z     vdW  Elec       q    Type
REMARK                         _______ _______ _______ _____ _____    ______ ____
ROOT
ATOM      1  N   UNL     1       2.804   5.327  17.839  0.00  0.00    +0.000 N 
ATOM      2  C   UNL     1       2.814   6.718  17.929  0.00  0.00    +0.000 A 
ATOM      3  N   UNL     1       1.767   7.480  17.976  0.00  0.00    +0.000 NA
ATOM      4  C   UNL     1       4.249   7.139  17.957  0.00  0.00    +0.000 A 
ATOM      5  C   UNL     1       4.973   6.002  17.821  0.00  0.00    +0.000 A 
ATOM      6  N   UNL     1       4.119   4.895  17.694  0.00  0.00    +0.000 N 
ATOM      7  C   UNL     1       4.462   3.488  17.607  0.00  0.00    +0.000 C 
ENDROOT
BRANCH   5   8
ATOM      8  C   UNL     1       6.500   5.945  17.812  0.00  0.00    +0.000 C 
ATOM      9  C   UNL     1       7.092   7.323  17.424  0.00  0.00    +0.000 C 
ATOM     10  C   UNL     1       7.057   5.524  19.190  0.00  0.00    +0.000 C 
ATOM     11  C   UNL     1       7.032   4.944  16.764  0.00  0.00    +0.000 C 
ENDBRANCH   5   8
BRANCH   3  12
ATOM     12  C   UNL     1       1.896   8.846  18.012  0.00  0.00    +0.000 C 
ATOM     13  O   UNL     1       2.672   9.520  17.354  0.00  0.00    +0.000 OA
BRANCH  12  14
ATOM     14  C   UNL     1       0.972   9.564  18.939  0.00  0.00    +0.000 A 
ATOM     15  C   UNL     1       0.164  10.591  18.417  0.00  0.00    +0.000 A 
ATOM     16  C   UNL     1      -0.718  11.284  19.242  0.00  0.00    +0.000 A 
ATOM     17  C   UNL     1      -0.810  10.950  20.591  0.00  0.00    +0.000 A 
ATOM     18  C   UNL     1      -0.013   9.928  21.131  0.00  0.00    +0.000 A 
ATOM     19  C   UNL     1       0.874   9.240  20.298  0.00  0.00    +0.000 A 
ATOM     20  F   UNL     1       1.609   8.253  20.826  0.00  0.00    +0.000 F 
BRANCH  18  21
ATOM     21  C   UNL     1      -0.108   9.573  22.585  0.00  0.00    +0.000 C 
ATOM     22  F   UNL     1      -0.711  10.556  23.322  0.00  0.00    +0.000 F 
ATOM     23  F   UNL     1      -0.836   8.451  22.821  0.00  0.00    +0.000 F 
ATOM     24  F   UNL     1       1.103   9.380  23.176  0.00  0.00    +0.000 F 
ENDBRANCH  18  21
ENDBRANCH  12  14
ENDBRANCH   3  12
BRANCH   1  25
ATOM     25  C   UNL     1       1.617   4.491  17.797  0.00  0.00    +0.000 C 
BRANCH  25  26
ATOM     26  C   UNL     1       1.336   3.799  19.134  0.00  0.00    +0.000 C 
BRANCH  26  27
ATOM     27  O   UNL     1       1.371   4.706  20.238  0.00  0.00    +0.000 OA
BRANCH  27  29
ATOM     28  C   UNL     1       1.683   2.747  21.578  0.00  0.00    +0.000 C 
ATOM     29  C   UNL     1       2.136   4.165  21.310  0.00  0.00    +0.000 C 
ENDBRANCH  27  29
ENDBRANCH  26  27
ENDBRANCH  25  26
ENDBRANCH   1  25
TORSDOF 8
ENDMDL
MODEL 2
REMARK VINA RESULT:      -7.9      0.553      1.252
REMARK  Name = 
REMARK  13 active torsions:
REMARK  status: ('A' for Active; 'I' for Inactive)
REMARK    1  A    between atoms: C_1  and  C_2
REMARK    2  A    between atoms: C_2  and  O_3
REMARK    3  A    between atoms: O_3  and  C_4
REMARK    4  A    between atoms: C_4  and  C_5
REMARK    5  A    between atoms: C_5  and  N_6
REMARK    6  A    between atoms: N_8  and  C_9
REMARK    7  A    between atoms: C_9  and  C_11
REMARK    8  A    between atoms: C_15  and  C_16
REMARK    9  A    between atoms: C_23  and  C_24
REMARK   10  A    between atoms: C_24  and  C_25
REMARK   11  A    between atoms: C_24  and  C_26
REMARK   12  A    between atoms: C_24  and  C_27
REMARK   13  A    between atoms: N_28  and  C_29
REMARK                            x       y       z     vdW  Elec       q    Type
REMARK                         _______ _______ _______ _____ _____    ______ ____
ROOT
ATOM      1  N   UNL     1       2.852   5.305  18.005  0.00  0.00    +0.000 N 
ATOM      2  C   UNL     1       2.829   6.699  17.984  0.00  0.00    +0.000 A 
ATOM      3  N   UNL     1       1.778   7.439  18.144  0.00  0.00    +0.000 NA
ATOM      4  C   UNL     1       4.234   7.151  17.740  0.00  0.00    +0.000 A 
ATOM      5  C   UNL     1       4.965   6.022  17.575  0.00  0.00    +0.000 A 
ATOM      6  N   UNL     1       4.140   4.890  17.678  0.00  0.00    +0.000 N 
ATOM      7  C   UNL     1       4.514   3.489  17.645  0.00  0.00    +0.000 C 
ENDROOT
BRANCH   5   8
ATOM      8  C   UNL     1       6.471   5.997  17.317  0.00  0.00    +0.000 C 
ATOM      9  C   UNL     1       7.200   5.212  18.436  0.00  0.00    +0.000 C 
ATOM     10  C   UNL     1       6.799   5.354  15.951  0.00  0.00    +0.000 C 
ATOM     11  C   UNL     1       7.079   7.416  17.327  0.00  0.00    +0.000 C 
ENDBRANCH   5   8
BRANCH   3  12
ATOM     12  C   UNL     1       1.864   8.806  18.052  0.00  0.00    +0.000 C 
ATOM     13  O   UNL     1       2.563   9.440  17.278  0.00  0.00    +0.000 OA
BRANCH  12  14
ATOM     14  C   UNL     1       0.991   9.579  18.984  0.00  0.00    +0.000 A 
ATOM     15  C   UNL     1       0.295  10.694  18.482  0.00  0.00    +0.000 A 
ATOM     16  C   UNL     1      -0.536  11.440  19.313  0.00  0.00    +0.000 A 
ATOM     17  C   UNL     1      -0.691  11.073  20.647  0.00  0.00    +0.000 A 
ATOM     18  C   UNL     1      -0.006   9.964  21.167  0.00  0.00    +0.000 A 
ATOM     19  C   UNL     1       0.831   9.222  20.330  0.00  0.00    +0.000 A 
ATOM     20  F   UNL     1       1.458   8.153  20.838  0.00  0.00    +0.000 F 
BRANCH  18  21
ATOM     21  C   UNL     1      -0.167   9.573  22.607  0.00  0.00    +0.000 C 
ATOM     22  F   UNL     1      -0.860   8.403  22.753  0.00  0.00    +0.000 F 
ATOM     23  F   UNL     1       1.013   9.372  23.248  0.00  0.00    +0.000 F 
ATOM     24  F   UNL     1      -0.857  10.488  23.342  0.00  0.00    +0.000 F 
ENDBRANCH  18  21
ENDBRANCH  12  14
ENDBRANCH   3  12
BRANCH   1  25
ATOM     25  C   UNL     1       1.704   4.443  18.225  0.00  0.00    +0.000 C 
BRANCH  25  26
ATOM     26  C   UNL     1       1.286   4.384  19.697  0.00  0.00    +0.000 C 
BRANCH  26  27
ATOM     27  O   UNL     1       0.846   3.082  20.089  0.00  0.00    +0.000 OA
BRANCH  27  29
ATOM     28  C   UNL     1       2.836   2.658  21.350  0.00  0.00    +0.000 C 
ATOM     29  C   UNL     1       1.328   2.758  21.389  0.00  0.00    +0.000 C 
ENDBRANCH  27  29
ENDBRANCH  26  27
ENDBRANCH  25  26
ENDBRANCH   1  25
TORSDOF 8
ENDMDL
MODEL 3
REMARK VINA RESULT:      -7.7      2.500      3.064
REMARK  Name = 
REMARK  13 active torsions:
REMARK  status: ('A' for Active; 'I' for Inactive)
REMARK    1  A    between atoms: C_1  and  C_2
REMARK    2  A    between atoms: C_2  and  O_3
REMARK    3  A    between atoms: O_3  and  C_4
REMARK    4  A    between atoms: C_4  and  C_5
REMARK    5  A    between atoms: C_5  and  N_6
REMARK    6  A    between atoms: N_8  and  C_9
REMARK    7  A    between atoms: C_9  and  C_11
REMARK    8  A    between atoms: C_15  and  C_16
REMARK    9  A    between atoms: C_23  and  C_24
REMARK   10  A    between atoms: C_24  and  C_25
REMARK   11  A    between atoms: C_24  and  C_26
REMARK   12  A    between atoms: C_24  and  C_27
REMARK   13  A    between atoms: N_28  and  C_29
REMARK                            x       y       z     vdW  Elec       q    Type
REMARK                         _______ _______ _______ _____ _____    ______ ____
ROOT
ATOM      1  N   UNL     1       3.084   5.775  19.529  0.00  0.00    +0.000 N 
ATOM      2  C   UNL     1       2.784   6.962  18.862  0.00  0.00    +0.000 A 
ATOM      3  N   UNL     1       1.896   7.830  19.229  0.00  0.00    +0.000 NA
ATOM      4  C   UNL     1       3.676   7.021  17.663  0.00  0.00    +0.000 A 
ATOM      5  C   UNL     1       4.381   5.864  17.665  0.00  0.00    +0.000 A 
ATOM      6  N   UNL     1       4.002   5.067  18.758  0.00  0.00    +0.000 N 
ATOM      7  C   UNL     1       4.551   3.795  19.187  0.00  0.00    +0.000 C 
ENDROOT
BRANCH   5   8
ATOM      8  C   UNL     1       5.438   5.493  16.625  0.00  0.00    +0.000 C 
ATOM      9  C   UNL     1       5.305   6.393  15.372  0.00  0.00    +0.000 C 
ATOM     10  C   UNL     1       6.866   5.630  17.198  0.00  0.00    +0.000 C 
ATOM     11  C   UNL     1       5.269   4.042  16.127  0.00  0.00    +0.000 C 
ENDBRANCH   5   8
BRANCH   3  12
ATOM     12  C   UNL     1       1.648   8.943  18.465  0.00  0.00    +0.000 C 
ATOM     13  O   UNL     1       2.201   9.245  17.419  0.00  0.00    +0.000 OA
BRANCH  12  14
ATOM     14  C   UNL     1       0.576   9.854  18.967  0.00  0.00    +0.000 A 
ATOM     15  C   UNL     1       0.790  10.539  20.176  0.00  0.00    +0.000 A 
ATOM     16  C   UNL     1      -0.178  11.405  20.678  0.00  0.00    +0.000 A 
ATOM     17  C   UNL     1      -1.362  11.602  19.973  0.00  0.00    +0.000 A 
ATOM     18  C   UNL     1      -1.594  10.928  18.764  0.00  0.00    +0.000 A 
ATOM     19  C   UNL     1      -0.621  10.057  18.267  0.00  0.00    +0.000 A 
ATOM     20  F   UNL     1      -0.850   9.441  17.101  0.00  0.00    +0.000 F 
BRANCH  18  21
ATOM     21  C   UNL     1      -2.873  11.136  18.007  0.00  0.00    +0.000 C 
ATOM     22  F   UNL     1      -3.716  12.008  18.640  0.00  0.00    +0.000 F 
ATOM     23  F   UNL     1      -2.688  11.655  16.766  0.00  0.00    +0.000 F 
ATOM     24  F   UNL     1      -3.598   9.996  17.845  0.00  0.00    +0.000 F 
ENDBRANCH  18  21
ENDBRANCH  12  14
ENDBRANCH   3  12
BRANCH   1  25
ATOM     25  C   UNL     1       2.462   5.315  20.758  0.00  0.00    +0.000 C 
BRANCH  25  26
ATOM     26  C   UNL     1       1.258   4.404  20.503  0.00  0.00    +0.000 C 
BRANCH  26  27
ATOM     27  O   UNL     1       1.492   3.058  20.920  0.00  0.00    +0.000 OA
BRANCH  27  29
ATOM     28  C   UNL     1       0.962   2.941  18.588  0.00  0.00    +0.000 C 
ATOM     29  C   UNL     1       1.347   2.159  19.824  0.00  0.00    +0.000 C 
ENDBRANCH  27  29
ENDBRANCH  26  27
ENDBRANCH  25  26
ENDBRANCH   1  25
TORSDOF 8
ENDMDL
MODEL 4
REMARK VINA RESULT:      -7.6      1.497      2.243
REMARK  Name = 
REMARK  13 active torsions:
REMARK  status: ('A' for Active; 'I' for Inactive)
REMARK    1  A    between atoms: C_1  and  C_2
REMARK    2  A    between atoms: C_2  and  O_3
REMARK    3  A    between atoms: O_3  and  C_4
REMARK    4  A    between atoms: C_4  and  C_5
REMARK    5  A    between atoms: C_5  and  N_6
REMARK    6  A    between atoms: N_8  and  C_9
REMARK    7  A    between atoms: C_9  and  C_11
REMARK    8  A    between atoms: C_15  and  C_16
REMARK    9  A    between atoms: C_23  and  C_24
REMARK   10  A    between atoms: C_24  and  C_25
REMARK   11  A    between atoms: C_24  and  C_26
REMARK   12  A    between atoms: C_24  and  C_27
REMARK   13  A    between atoms: N_28  and  C_29
REMARK                            x       y       z     vdW  Elec       q    Type
REMARK                         _______ _______ _______ _____ _____    ______ ____
ROOT
ATOM      1  N   UNL     1       3.102   4.952  17.546  0.00  0.00    +0.000 N 
ATOM      2  C   UNL     1       3.030   6.323  17.790  0.00  0.00    +0.000 A 
ATOM      3  N   UNL     1       1.948   6.991  18.033  0.00  0.00    +0.000 NA
ATOM      4  C   UNL     1       4.428   6.850  17.709  0.00  0.00    +0.000 A 
ATOM      5  C   UNL     1       5.205   5.793  17.369  0.00  0.00    +0.000 A 
ATOM      6  N   UNL     1       4.417   4.642  17.212  0.00  0.00    +0.000 N 
ATOM      7  C   UNL     1       4.841   3.283  16.932  0.00  0.00    +0.000 C 
ENDROOT
BRANCH   5   8
ATOM      8  C   UNL     1       6.721   5.857  17.189  0.00  0.00    +0.000 C 
ATOM      9  C   UNL     1       7.432   4.999  18.266  0.00  0.00    +0.000 C 
ATOM     10  C   UNL     1       7.144   5.363  15.788  0.00  0.00    +0.000 C 
ATOM     11  C   UNL     1       7.261   7.293  17.364  0.00  0.00    +0.000 C 
ENDBRANCH   5   8
BRANCH   3  12
ATOM     12  C   UNL     1       1.989   8.352  18.209  0.00  0.00    +0.000 C 
ATOM     13  O   UNL     1       2.478   9.168  17.444  0.00  0.00    +0.000 OA
BRANCH  12  14
ATOM     14  C   UNL     1       1.348   8.870  19.453  0.00  0.00    +0.000 A 
ATOM     15  C   UNL     1       1.624   8.221  20.670  0.00  0.00    +0.000 A 
ATOM     16  C   UNL     1       1.055   8.674  21.857  0.00  0.00    +0.000 A 
ATOM     17  C   UNL     1       0.215   9.784  21.842  0.00  0.00    +0.000 A 
ATOM     18  C   UNL     1      -0.073  10.446  20.638  0.00  0.00    +0.000 A 
ATOM     19  C   UNL     1       0.498   9.983  19.449  0.00  0.00    +0.000 A 
ATOM     20  F   UNL     1       0.230  10.642  18.314  0.00  0.00    +0.000 F 
BRANCH  18  21
ATOM     21  C   UNL     1      -0.984  11.638  20.620  0.00  0.00    +0.000 C 
ATOM     22  F   UNL     1      -1.572  11.861  21.835  0.00  0.00    +0.000 F 
ATOM     23  F   UNL     1      -0.349  12.798  20.312  0.00  0.00    +0.000 F 
ATOM     24  F   UNL     1      -2.017  11.518  19.742  0.00  0.00    +0.000 F 
ENDBRANCH  18  21
ENDBRANCH  12  14
ENDBRANCH   3  12
BRANCH   1  25
ATOM     25  C   UNL     1       1.976   4.035  17.539  0.00  0.00    +0.000 C 
BRANCH  25  26
ATOM     26  C   UNL     1       1.821   3.282  18.863  0.00  0.00    +0.000 C 
BRANCH  26  27
ATOM     27  O   UNL     1       0.875   3.901  19.737  0.00  0.00    +0.000 OA
BRANCH  27  29
ATOM     28  C   UNL     1       2.151   3.420  21.705  0.00  0.00    +0.000 C 
ATOM     29  C   UNL     1       1.534   4.502  20.847  0.00  0.00    +0.000 C 
ENDBRANCH  27  29
ENDBRANCH  26  27
ENDBRANCH  25  26
ENDBRANCH   1  25
TORSDOF 8
ENDMDL
MODEL 5
REMARK VINA RESULT:      -7.4      1.469      1.986
REMARK  Name = 
REMARK  13 active torsions:
REMARK  status: ('A' for Active; 'I' for Inactive)
REMARK    1  A    between atoms: C_1  and  C_2
REMARK    2  A    between atoms: C_2  and  O_3
REMARK    3  A    between atoms: O_3  and  C_4
REMARK    4  A    between atoms: C_4  and  C_5
REMARK    5  A    between atoms: C_5  and  N_6
REMARK    6  A    between atoms: N_8  and  C_9
REMARK    7  A    between atoms: C_9  and  C_11
REMARK    8  A    between atoms: C_15  and  C_16
REMARK    9  A    between atoms: C_23  and  C_24
REMARK   10  A    between atoms: C_24  and  C_25
REMARK   11  A    between atoms: C_24  and  C_26
REMARK   12  A    between atoms: C_24  and  C_27
REMARK   13  A    between atoms: N_28  and  C_29
REMARK                            x       y       z     vdW  Elec       q    Type
REMARK                         _______ _______ _______ _____ _____    ______ ____
ROOT
ATOM      1  N   UNL     1       3.002   5.861  19.508  0.00  0.00    +0.000 N 
ATOM      2  C   UNL     1       2.720   7.051  18.839  0.00  0.00    +0.000 A 
ATOM      3  N   UNL     1       1.837   7.928  19.198  0.00  0.00    +0.000 NA
ATOM      4  C   UNL     1       3.625   7.103  17.649  0.00  0.00    +0.000 A 
ATOM      5  C   UNL     1       4.319   5.939  17.658  0.00  0.00    +0.000 A 
ATOM      6  N   UNL     1       3.921   5.145  18.745  0.00  0.00    +0.000 N 
ATOM      7  C   UNL     1       4.453   3.867  19.180  0.00  0.00    +0.000 C 
ENDROOT
BRANCH   5   8
ATOM      8  C   UNL     1       5.382   5.558  16.628  0.00  0.00    +0.000 C 
ATOM      9  C   UNL     1       5.302   6.492  15.395  0.00  0.00    +0.000 C 
ATOM     10  C   UNL     1       6.803   5.635  17.230  0.00  0.00    +0.000 C 
ATOM     11  C   UNL     1       5.176   4.126  16.092  0.00  0.00    +0.000 C 
ENDBRANCH   5   8
BRANCH   3  12
ATOM     12  C   UNL     1       1.608   9.044  18.433  0.00  0.00    +0.000 C 
ATOM     13  O   UNL     1       2.249   9.400  17.457  0.00  0.00    +0.000 OA
BRANCH  12  14
ATOM     14  C   UNL     1       0.440   9.883  18.835  0.00  0.00    +0.000 A 
ATOM     15  C   UNL     1      -0.612  10.053  17.917  0.00  0.00    +0.000 A 
ATOM     16  C   UNL     1      -1.724  10.820  18.251  0.00  0.00    +0.000 A 
ATOM     17  C   UNL     1      -1.802  11.414  19.507  0.00  0.00    +0.000 A 
ATOM     18  C   UNL     1      -0.763  11.257  20.439  0.00  0.00    +0.000 A 
ATOM     19  C   UNL     1       0.353  10.489  20.095  0.00  0.00    +0.000 A 
ATOM     20  F   UNL     1       1.323  10.330  21.005  0.00  0.00    +0.000 F 
BRANCH  18  21
ATOM     21  C   UNL     1      -0.845  11.902  21.791  0.00  0.00    +0.000 C 
ATOM     22  F   UNL     1       0.172  12.792  22.004  0.00  0.00    +0.000 F 
ATOM     23  F   UNL     1      -1.987  12.611  21.983  0.00  0.00    +0.000 F 
ATOM     24  F   UNL     1      -0.762  11.015  22.820  0.00  0.00    +0.000 F 
ENDBRANCH  18  21
ENDBRANCH  12  14
ENDBRANCH   3  12
BRANCH   1  25
ATOM     25  C   UNL     1       2.363   5.406  20.730  0.00  0.00    +0.000 C 
BRANCH  25  26
ATOM     26  C   UNL     1       1.124   4.548  20.463  0.00  0.00    +0.000 C 
BRANCH  26  27
ATOM     27  O   UNL     1       1.200   3.266  21.089  0.00  0.00    +0.000 OA
BRANCH  27  29
ATOM     28  C   UNL     1       0.865   2.637  18.804  0.00  0.00    +0.000 C 
ATOM     29  C   UNL     1       1.482   2.253  20.129  0.00  0.00    +0.000 C 
ENDBRANCH  27  29
ENDBRANCH  26  27
ENDBRANCH  25  26
ENDBRANCH   1  25
TORSDOF 8
ENDMDL
MODEL 6
REMARK VINA RESULT:      -7.4      2.473      3.074
REMARK  Name = 
REMARK  13 active torsions:
REMARK  status: ('A' for Active; 'I' for Inactive)
REMARK    1  A    between atoms: C_1  and  C_2
REMARK    2  A    between atoms: C_2  and  O_3
REMARK    3  A    between atoms: O_3  and  C_4
REMARK    4  A    between atoms: C_4  and  C_5
REMARK    5  A    between atoms: C_5  and  N_6
REMARK    6  A    between atoms: N_8  and  C_9
REMARK    7  A    between atoms: C_9  and  C_11
REMARK    8  A    between atoms: C_15  and  C_16
REMARK    9  A    between atoms: C_23  and  C_24
REMARK   10  A    between atoms: C_24  and  C_25
REMARK   11  A    between atoms: C_24  and  C_26
REMARK   12  A    between atoms: C_24  and  C_27
REMARK   13  A    between atoms: N_28  and  C_29
REMARK                            x       y       z     vdW  Elec       q    Type
REMARK                         _______ _______ _______ _____ _____    ______ ____
ROOT
ATOM      1  N   UNL     1       3.167   5.831  19.398  0.00  0.00    +0.000 N 
ATOM      2  C   UNL     1       2.835   7.023  18.755  0.00  0.00    +0.000 A 
ATOM      3  N   UNL     1       1.945   7.874  19.156  0.00  0.00    +0.000 NA
ATOM      4  C   UNL     1       3.695   7.110  17.535  0.00  0.00    +0.000 A 
ATOM      5  C   UNL     1       4.415   5.962  17.504  0.00  0.00    +0.000 A 
ATOM      6  N   UNL     1       4.074   5.146  18.595  0.00  0.00    +0.000 N 
ATOM      7  C   UNL     1       4.650   3.876  18.993  0.00  0.00    +0.000 C 
ENDROOT
BRANCH   5   8
ATOM      8  C   UNL     1       5.450   5.619  16.433  0.00  0.00    +0.000 C 
ATOM      9  C   UNL     1       5.260   4.161  15.943  0.00  0.00    +0.000 C 
ATOM     10  C   UNL     1       5.350   6.576  15.225  0.00  0.00    +0.000 C 
ATOM     11  C   UNL     1       6.891   5.700  16.979  0.00  0.00    +0.000 C 
ENDBRANCH   5   8
BRANCH   3  12
ATOM     12  C   UNL     1       1.663   8.994  18.414  0.00  0.00    +0.000 C 
ATOM     13  O   UNL     1       2.194   9.323  17.364  0.00  0.00    +0.000 OA
BRANCH  12  14
ATOM     14  C   UNL     1       0.582   9.875  18.946  0.00  0.00    +0.000 A 
ATOM     15  C   UNL     1       0.806  10.554  20.158  0.00  0.00    +0.000 A 
ATOM     16  C   UNL     1      -0.170  11.393  20.689  0.00  0.00    +0.000 A 
ATOM     17  C   UNL     1      -1.372  11.571  20.010  0.00  0.00    +0.000 A 
ATOM     18  C   UNL     1      -1.615  10.903  18.799  0.00  0.00    +0.000 A 
ATOM     19  C   UNL     1      -0.633  10.059  18.274  0.00  0.00    +0.000 A 
ATOM     20  F   UNL     1      -0.873   9.448  17.106  0.00  0.00    +0.000 F 
BRANCH  18  21
ATOM     21  C   UNL     1      -2.913  11.090  18.070  0.00  0.00    +0.000 C 
ATOM     22  F   UNL     1      -3.764  11.933  18.731  0.00  0.00    +0.000 F 
ATOM     23  F   UNL     1      -2.766  11.628  16.832  0.00  0.00    +0.000 F 
ATOM     24  F   UNL     1      -3.615   9.934  17.909  0.00  0.00    +0.000 F 
ENDBRANCH  18  21
ENDBRANCH  12  14
ENDBRANCH   3  12
BRANCH   1  25
ATOM     25  C   UNL     1       2.583   5.347  20.637  0.00  0.00    +0.000 C 
BRANCH  25  26
ATOM     26  C   UNL     1       1.178   4.770  20.438  0.00  0.00    +0.000 C 
BRANCH  26  27
ATOM     27  O   UNL     1       1.178   3.592  19.630  0.00  0.00    +0.000 OA
BRANCH  27  29
ATOM     28  C   UNL     1       1.348   2.539  21.773  0.00  0.00    +0.000 C 
ATOM     29  C   UNL     1       1.782   2.506  20.325  0.00  0.00    +0.000 C 
ENDBRANCH  27  29
ENDBRANCH  26  27
ENDBRANCH  25  26
ENDBRANCH   1  25
TORSDOF 8
ENDMDL
MODEL 7
REMARK VINA RESULT:      -7.4      2.457      3.072
REMARK  Name = 
REMARK  13 active torsions:
REMARK  status: ('A' for Active; 'I' for Inactive)
REMARK    1  A    between atoms: C_1  and  C_2
REMARK    2  A    between atoms: C_2  and  O_3
REMARK    3  A    between atoms: O_3  and  C_4
REMARK    4  A    between atoms: C_4  and  C_5
REMARK    5  A    between atoms: C_5  and  N_6
REMARK    6  A    between atoms: N_8  and  C_9
REMARK    7  A    between atoms: C_9  and  C_11
REMARK    8  A    between atoms: C_15  and  C_16
REMARK    9  A    between atoms: C_23  and  C_24
REMARK   10  A    between atoms: C_24  and  C_25
REMARK   11  A    between atoms: C_24  and  C_26
REMARK   12  A    between atoms: C_24  and  C_27
REMARK   13  A    between atoms: N_28  and  C_29
REMARK                            x       y       z     vdW  Elec       q    Type
REMARK                         _______ _______ _______ _____ _____    ______ ____
ROOT
ATOM      1  N   UNL     1       3.219   5.768  19.505  0.00  0.00    +0.000 N 
ATOM      2  C   UNL     1       2.877   6.944  18.839  0.00  0.00    +0.000 A 
ATOM      3  N   UNL     1       1.973   7.790  19.218  0.00  0.00    +0.000 NA
ATOM      4  C   UNL     1       3.747   7.022  17.625  0.00  0.00    +0.000 A 
ATOM      5  C   UNL     1       4.482   5.883  17.620  0.00  0.00    +0.000 A 
ATOM      6  N   UNL     1       4.143   5.082  18.722  0.00  0.00    +0.000 N 
ATOM      7  C   UNL     1       4.732   3.826  19.147  0.00  0.00    +0.000 C 
ENDROOT
BRANCH   5   8
ATOM      8  C   UNL     1       5.531   5.535  16.564  0.00  0.00    +0.000 C 
ATOM      9  C   UNL     1       6.958   5.792  17.111  0.00  0.00    +0.000 C 
ATOM     10  C   UNL     1       5.416   4.060  16.120  0.00  0.00    +0.000 C 
ATOM     11  C   UNL     1       5.393   6.417  15.305  0.00  0.00    +0.000 C 
ENDBRANCH   5   8
BRANCH   3  12
ATOM     12  C   UNL     1       1.683   8.893  18.454  0.00  0.00    +0.000 C 
ATOM     13  O   UNL     1       2.189   9.189  17.383  0.00  0.00    +0.000 OA
BRANCH  12  14
ATOM     14  C   UNL     1       0.624   9.799  18.990  0.00  0.00    +0.000 A 
ATOM     15  C   UNL     1       0.855  10.448  20.217  0.00  0.00    +0.000 A 
ATOM     16  C   UNL     1      -0.101  11.308  20.752  0.00  0.00    +0.000 A 
ATOM     17  C   UNL     1      -1.289  11.536  20.062  0.00  0.00    +0.000 A 
ATOM     18  C   UNL     1      -1.538  10.899  18.836  0.00  0.00    +0.000 A 
ATOM     19  C   UNL     1      -0.577  10.033  18.307  0.00  0.00    +0.000 A 
ATOM     20  F   UNL     1      -0.822   9.452  17.126  0.00  0.00    +0.000 F 
BRANCH  18  21
ATOM     21  C   UNL     1      -2.821  11.140  18.097  0.00  0.00    +0.000 C 
ATOM     22  F   UNL     1      -3.536   9.989  17.906  0.00  0.00    +0.000 F 
ATOM     23  F   UNL     1      -3.667  11.984  18.742  0.00  0.00    +0.000 F 
ATOM     24  F   UNL     1      -2.638  11.655  16.849  0.00  0.00    +0.000 F 
ENDBRANCH  18  21
ENDBRANCH  12  14
ENDBRANCH   3  12
BRANCH   1  25
ATOM     25  C   UNL     1       2.630   5.298  20.747  0.00  0.00    +0.000 C 
BRANCH  25  26
ATOM     26  C   UNL     1       1.650   4.141  20.532  0.00  0.00    +0.000 C 
BRANCH  26  27
ATOM     27  O   UNL     1       0.976   4.222  19.274  0.00  0.00    +0.000 OA
BRANCH  27  29
ATOM     28  C   UNL     1       1.682   1.942  19.458  0.00  0.00    +0.000 C 
ATOM     29  C   UNL     1       1.134   3.011  18.541  0.00  0.00    +0.000 C 
ENDBRANCH  27  29
ENDBRANCH  26  27
ENDBRANCH  25  26
ENDBRANCH   1  25
TORSDOF 8
ENDMDL
MODEL 8
REMARK VINA RESULT:      -7.4      1.527      2.055
REMARK  Name = 
REMARK  13 active torsions:
REMARK  status: ('A' for Active; 'I' for Inactive)
REMARK    1  A    between atoms: C_1  and  C_2
REMARK    2  A    between atoms: C_2  and  O_3
REMARK    3  A    between atoms: O_3  and  C_4
REMARK    4  A    between atoms: C_4  and  C_5
REMARK    5  A    between atoms: C_5  and  N_6
REMARK    6  A    between atoms: N_8  and  C_9
REMARK    7  A    between atoms: C_9  and  C_11
REMARK    8  A    between atoms: C_15  and  C_16
REMARK    9  A    between atoms: C_23  and  C_24
REMARK   10  A    between atoms: C_24  and  C_25
REMARK   11  A    between atoms: C_24  and  C_26
REMARK   12  A    between atoms: C_24  and  C_27
REMARK   13  A    between atoms: N_28  and  C_29
REMARK                            x       y       z     vdW  Elec       q    Type
REMARK                         _______ _______ _______ _____ _____    ______ ____
ROOT
ATOM      1  N   UNL     1       3.082   5.118  17.562  0.00  0.00    +0.000 N 
ATOM      2  C   UNL     1       3.017   6.485  17.831  0.00  0.00    +0.000 A 
ATOM      3  N   UNL     1       1.935   7.158  18.063  0.00  0.00    +0.000 NA
ATOM      4  C   UNL     1       4.421   7.000  17.794  0.00  0.00    +0.000 A 
ATOM      5  C   UNL     1       5.196   5.942  17.451  0.00  0.00    +0.000 A 
ATOM      6  N   UNL     1       4.402   4.802  17.253  0.00  0.00    +0.000 N 
ATOM      7  C   UNL     1       4.819   3.445  16.956  0.00  0.00    +0.000 C 
ENDROOT
BRANCH   5   8
ATOM      8  C   UNL     1       6.717   5.995  17.308  0.00  0.00    +0.000 C 
ATOM      9  C   UNL     1       7.212   7.463  17.326  0.00  0.00    +0.000 C 
ATOM     10  C   UNL     1       7.418   5.210  18.439  0.00  0.00    +0.000 C 
ATOM     11  C   UNL     1       7.188   5.403  15.963  0.00  0.00    +0.000 C 
ENDBRANCH   5   8
BRANCH   3  12
ATOM     12  C   UNL     1       1.985   8.515  18.267  0.00  0.00    +0.000 C 
ATOM     13  O   UNL     1       2.534   9.337  17.550  0.00  0.00    +0.000 OA
BRANCH  12  14
ATOM     14  C   UNL     1       1.273   9.020  19.477  0.00  0.00    +0.000 A 
ATOM     15  C   UNL     1       1.536   8.406  20.715  0.00  0.00    +0.000 A 
ATOM     16  C   UNL     1       0.900   8.849  21.873  0.00  0.00    +0.000 A 
ATOM     17  C   UNL     1       0.008   9.915  21.806  0.00  0.00    +0.000 A 
ATOM     18  C   UNL     1      -0.268  10.542  20.580  0.00  0.00    +0.000 A 
ATOM     19  C   UNL     1       0.369  10.090  19.422  0.00  0.00    +0.000 A 
ATOM     20  F   UNL     1       0.112  10.715  18.266  0.00  0.00    +0.000 F 
BRANCH  18  21
ATOM     21  C   UNL     1      -1.235  11.687  20.508  0.00  0.00    +0.000 C 
ATOM     22  F   UNL     1      -2.228  11.472  19.592  0.00  0.00    +0.000 F 
ATOM     23  F   UNL     1      -1.876  11.928  21.681  0.00  0.00    +0.000 F 
ATOM     24  F   UNL     1      -0.656  12.862  20.135  0.00  0.00    +0.000 F 
ENDBRANCH  18  21
ENDBRANCH  12  14
ENDBRANCH   3  12
BRANCH   1  25
ATOM     25  C   UNL     1       1.948   4.212  17.511  0.00  0.00    +0.000 C 
BRANCH  25  26
ATOM     26  C   UNL     1       1.912   3.245  18.698  0.00  0.00    +0.000 C 
BRANCH  26  27
ATOM     27  O   UNL     1       2.421   3.833  19.897  0.00  0.00    +0.000 OA
BRANCH  27  29
ATOM     28  C   UNL     1       1.490   2.613  21.735  0.00  0.00    +0.000 C 
ATOM     29  C   UNL     1       1.414   3.874  20.903  0.00  0.00    +0.000 C 
ENDBRANCH  27  29
ENDBRANCH  26  27
ENDBRANCH  25  26
ENDBRANCH   1  25
TORSDOF 8
ENDMDL
MODEL 9
REMARK VINA RESULT:      -7.3      1.399      1.964
REMARK  Name = 
REMARK  13 active torsions:
REMARK  status: ('A' for Active; 'I' for Inactive)
REMARK    1  A    between atoms: C_1  and  C_2
REMARK    2  A    between atoms: C_2  and  O_3
REMARK    3  A    between atoms: O_3  and  C_4
REMARK    4  A    between atoms: C_4  and  C_5
REMARK    5  A    between atoms: C_5  and  N_6
REMARK    6  A    between atoms: N_8  and  C_9
REMARK    7  A    between atoms: C_9  and  C_11
REMARK    8  A    between atoms: C_15  and  C_16
REMARK    9  A    between atoms: C_23  and  C_24
REMARK   10  A    between atoms: C_24  and  C_25
REMARK   11  A    between atoms: C_24  and  C_26
REMARK   12  A    between atoms: C_24  and  C_27
REMARK   13  A    between atoms: N_28  and  C_29
REMARK                            x       y       z     vdW  Elec       q    Type
REMARK                         _______ _______ _______ _____ _____    ______ ____
ROOT
ATOM      1  N   UNL     1       3.113   5.636  19.605  0.00  0.00    +0.000 N 
ATOM      2  C   UNL     1       2.839   6.811  18.906  0.00  0.00    +0.000 A 
ATOM      3  N   UNL     1       1.947   7.692  19.232  0.00  0.00    +0.000 NA
ATOM      4  C   UNL     1       3.762   6.840  17.730  0.00  0.00    +0.000 A 
ATOM      5  C   UNL     1       4.459   5.678  17.775  0.00  0.00    +0.000 A 
ATOM      6  N   UNL     1       4.046   4.907  18.873  0.00  0.00    +0.000 N 
ATOM      7  C   UNL     1       4.575   3.640  19.343  0.00  0.00    +0.000 C 
ENDROOT
BRANCH   5   8
ATOM      8  C   UNL     1       5.540   5.279  16.771  0.00  0.00    +0.000 C 
ATOM      9  C   UNL     1       6.944   5.371  17.421  0.00  0.00    +0.000 C 
ATOM     10  C   UNL     1       5.318   3.844  16.245  0.00  0.00    +0.000 C 
ATOM     11  C   UNL     1       5.572   6.227  15.554  0.00  0.00    +0.000 C 
ENDBRANCH   5   8
BRANCH   3  12
ATOM     12  C   UNL     1       1.727   8.791  18.439  0.00  0.00    +0.000 C 
ATOM     13  O   UNL     1       2.368   9.115  17.452  0.00  0.00    +0.000 OA
BRANCH  12  14
ATOM     14  C   UNL     1       0.571   9.653  18.825  0.00  0.00    +0.000 A 
ATOM     15  C   UNL     1      -0.411   9.930  17.856  0.00  0.00    +0.000 A 
ATOM     16  C   UNL     1      -1.511  10.723  18.172  0.00  0.00    +0.000 A 
ATOM     17  C   UNL     1      -1.647  11.235  19.459  0.00  0.00    +0.000 A 
ATOM     18  C   UNL     1      -0.679  10.970  20.441  0.00  0.00    +0.000 A 
ATOM     19  C   UNL     1       0.425  10.177  20.116  0.00  0.00    +0.000 A 
ATOM     20  F   UNL     1       1.326   9.915  21.071  0.00  0.00    +0.000 F 
BRANCH  18  21
ATOM     21  C   UNL     1      -0.823  11.527  21.826  0.00  0.00    +0.000 C 
ATOM     22  F   UNL     1      -2.029  12.144  22.016  0.00  0.00    +0.000 F 
ATOM     23  F   UNL     1      -0.747  10.583  22.799  0.00  0.00    +0.000 F 
ATOM     24  F   UNL     1       0.110  12.471  22.129  0.00  0.00    +0.000 F 
ENDBRANCH  18  21
ENDBRANCH  12  14
ENDBRANCH   3  12
BRANCH   1  25
ATOM     25  C   UNL     1       2.456   5.205  20.826  0.00  0.00    +0.000 C 
BRANCH  25  26
ATOM     26  C   UNL     1       1.120   4.503  20.561  0.00  0.00    +0.000 C 
BRANCH  26  27
ATOM     27  O   UNL     1       1.270   3.095  20.376  0.00  0.00    +0.000 OA
BRANCH  27  29
ATOM     28  C   UNL     1       1.847   2.025  18.313  0.00  0.00    +0.000 C 
ATOM     29  C   UNL     1       0.751   2.695  19.111  0.00  0.00    +0.000 C 
ENDBRANCH  27  29
ENDBRANCH  26  27
ENDBRANCH  25  26
ENDBRANCH   1  25
TORSDOF 8
ENDMDL
