MODEL 1
REMARK VINA RESULT:      -8.4      0.000      0.000
REMARK  Name = 
REMARK  8 active torsions:
REMARK  status: ('A' for Active; 'I' for Inactive)
REMARK    1  A    between atoms: C_1  and  O_2
REMARK    2  A    between atoms: O_2  and  C_3
REMARK    3  A    between atoms: C_6  and  C_7
REMARK    4  A    between atoms: C_8  and  C_9
REMARK    5  A    between atoms: C_10  and  C_11
REMARK    6  A    between atoms: C_14  and  O_15
REMARK    7  A    between atoms: O_15  and  C_16
REMARK    8  A    between atoms: C_23  and  N_24
REMARK                            x       y       z     vdW  Elec       q    Type
REMARK                         _______ _______ _______ _____ _____    ______ ____
ROOT
ATOM      1  C   UNL     1       1.051  10.569  19.709  0.00  0.00    +0.000 A 
ATOM      2  C   UNL     1       0.336  11.227  18.694  0.00  0.00    +0.000 A 
ATOM      3  S   UNL     1       1.164  12.738  18.631  0.00  0.00    +0.000 S 
ATOM      4  C   UNL     1       0.970  12.757  20.374  0.00  0.00    +0.000 A 
ATOM      5  C   UNL     1       0.988  13.903  21.176  0.00  0.00    +0.000 A 
ATOM      6  C   UNL     1       0.080  13.955  22.225  0.00  0.00    +0.000 A 
ATOM      7  C   UNL     1      -0.791  12.894  22.532  0.00  0.00    +0.000 A 
ATOM      8  C   UNL     1      -0.485  11.608  21.881  0.00  0.00    +0.000 A 
ATOM      9  C   UNL     1       0.506  11.479  20.787  0.00  0.00    +0.000 A 
ENDROOT
BRANCH   2  10
ATOM     10  C   UNL     1      -1.059  10.943  18.334  0.00  0.00    +0.000 A 
ATOM     11  C   UNL     1      -2.060  11.835  18.806  0.00  0.00    +0.000 A 
ATOM     12  C   UNL     1      -3.376  11.755  18.378  0.00  0.00    +0.000 A 
ATOM     13  C   UNL     1      -3.727  10.768  17.474  0.00  0.00    +0.000 A 
ATOM     14  C   UNL     1      -2.764   9.847  17.036  0.00  0.00    +0.000 A 
ATOM     15  C   UNL     1      -1.433   9.937  17.457  0.00  0.00    +0.000 A 
BRANCH  13  16
ATOM     16  O   UNL     1      -5.041  10.784  17.098  0.00  0.00    +0.000 OA
ATOM     17  C   UNL     1      -5.949  11.092  18.145  0.00  0.00    +0.000 C 
ENDBRANCH  13  16
ENDBRANCH   2  10
BRANCH   7  18
ATOM     18  N   UNL     1      -1.937  13.221  23.297  0.00  0.00    +0.000 N 
ATOM     19  C   UNL     1      -2.207  14.580  23.805  0.00  0.00    +0.000 C 
ATOM     20  C   UNL     1      -3.148  14.563  25.041  0.00  0.00    +0.000 C 
ATOM     21  O   UNL     1      -4.385  13.892  24.763  0.00  0.00    +0.000 OA
ATOM     22  C   UNL     1      -4.109  12.523  24.464  0.00  0.00    +0.000 C 
ATOM     23  C   UNL     1      -3.175  12.370  23.234  0.00  0.00    +0.000 C 
ENDBRANCH   7  18
BRANCH   1  25
ATOM     24  C   UNL     1       2.062   8.739  17.950  0.00  0.00    +0.000 C 
ATOM     25  C   UNL     1       1.561   9.320  19.081  0.00  0.00    +0.000 C 
BRANCH  24  29
ATOM     26  C   UNL     1       3.765   4.564  17.690  0.00  0.00    +0.000 A 
ATOM     27  C   UNL     1       2.471   4.783  18.163  0.00  0.00    +0.000 A 
ATOM     28  C   UNL     1       1.910   6.094  18.256  0.00  0.00    +0.000 A 
ATOM     29  C   UNL     1       2.621   7.259  17.888  0.00  0.00    +0.000 A 
ATOM     30  C   UNL     1       3.953   7.004  17.472  0.00  0.00    +0.000 A 
ATOM     31  C   UNL     1       4.515   5.686  17.365  0.00  0.00    +0.000 A 
BRANCH  26  33
ATOM     32  C   UNL     1       3.208   2.226  17.922  0.00  0.00    +0.000 C 
ATOM     33  O   UNL     1       4.164   3.254  17.662  0.00  0.00    +0.000 OA
ENDBRANCH  26  33
ENDBRANCH  24  29
ENDBRANCH   1  25
TORSDOF 6
ENDMDL
MODEL 2
REMARK VINA RESULT:      -8.3      1.043      1.316
REMARK  Name = 
REMARK  8 active torsions:
REMARK  status: ('A' for Active; 'I' for Inactive)
REMARK    1  A    between atoms: C_1  and  O_2
REMARK    2  A    between atoms: O_2  and  C_3
REMARK    3  A    between atoms: C_6  and  C_7
REMARK    4  A    between atoms: C_8  and  C_9
REMARK    5  A    between atoms: C_10  and  C_11
REMARK    6  A    between atoms: C_14  and  O_15
REMARK    7  A    between atoms: O_15  and  C_16
REMARK    8  A    between atoms: C_23  and  N_24
REMARK                            x       y       z     vdW  Elec       q    Type
REMARK                         _______ _______ _______ _____ _____    ______ ____
ROOT
ATOM      1  C   UNL     1       0.802  10.305  20.359  0.00  0.00    +0.000 A 
ATOM      2  C   UNL     1       0.390  10.946  19.177  0.00  0.00    +0.000 A 
ATOM      3  S   UNL     1       1.383  12.354  19.200  0.00  0.00    +0.000 S 
ATOM      4  C   UNL     1       0.841  12.538  20.859  0.00  0.00    +0.000 A 
ATOM      5  C   UNL     1       0.829  13.738  21.576  0.00  0.00    +0.000 A 
ATOM      6  C   UNL     1      -0.262  13.970  22.404  0.00  0.00    +0.000 A 
ATOM      7  C   UNL     1      -1.294  13.031  22.583  0.00  0.00    +0.000 A 
ATOM      8  C   UNL     1      -1.013  11.671  22.090  0.00  0.00    +0.000 A 
ATOM      9  C   UNL     1       0.158  11.352  21.241  0.00  0.00    +0.000 A 
ENDROOT
BRANCH   2  10
ATOM     10  C   UNL     1      -0.926  10.775  18.549  0.00  0.00    +0.000 A 
ATOM     11  C   UNL     1      -1.934  11.730  18.852  0.00  0.00    +0.000 A 
ATOM     12  C   UNL     1      -3.145  11.758  18.178  0.00  0.00    +0.000 A 
ATOM     13  C   UNL     1      -3.383  10.819  17.190  0.00  0.00    +0.000 A 
ATOM     14  C   UNL     1      -2.420   9.837  16.912  0.00  0.00    +0.000 A 
ATOM     15  C   UNL     1      -1.193   9.818  17.582  0.00  0.00    +0.000 A 
BRANCH  13  16
ATOM     16  O   UNL     1      -4.595  10.941  16.571  0.00  0.00    +0.000 OA
ATOM     17  C   UNL     1      -5.417  11.980  17.084  0.00  0.00    +0.000 C 
ENDBRANCH  13  16
ENDBRANCH   2  10
BRANCH   7  18
ATOM     18  N   UNL     1      -2.525  13.534  23.067  0.00  0.00    +0.000 N 
ATOM     19  C   UNL     1      -2.768  14.968  23.319  0.00  0.00    +0.000 C 
ATOM     20  C   UNL     1      -3.911  15.194  24.348  0.00  0.00    +0.000 C 
ATOM     21  O   UNL     1      -5.130  14.557  23.942  0.00  0.00    +0.000 OA
ATOM     22  C   UNL     1      -4.919  13.145  23.896  0.00  0.00    +0.000 C 
ATOM     23  C   UNL     1      -3.799  12.753  22.896  0.00  0.00    +0.000 C 
ENDBRANCH   7  18
BRANCH   1  25
ATOM     24  C   UNL     1       1.970   8.250  18.990  0.00  0.00    +0.000 C 
ATOM     25  C   UNL     1       1.281   8.963  19.929  0.00  0.00    +0.000 C 
BRANCH  24  29
ATOM     26  C   UNL     1       2.951   3.873  19.522  0.00  0.00    +0.000 A 
ATOM     27  C   UNL     1       3.232   4.531  18.325  0.00  0.00    +0.000 A 
ATOM     28  C   UNL     1       2.930   5.914  18.132  0.00  0.00    +0.000 A 
ATOM     29  C   UNL     1       2.320   6.712  19.127  0.00  0.00    +0.000 A 
ATOM     30  C   UNL     1       1.992   5.995  20.306  0.00  0.00    +0.000 A 
ATOM     31  C   UNL     1       2.306   4.607  20.508  0.00  0.00    +0.000 A 
BRANCH  26  33
ATOM     32  C   UNL     1       3.326   1.802  18.340  0.00  0.00    +0.000 C 
ATOM     33  O   UNL     1       3.294   2.548  19.556  0.00  0.00    +0.000 OA
ENDBRANCH  26  33
ENDBRANCH  24  29
ENDBRANCH   1  25
TORSDOF 6
ENDMDL
MODEL 3
REMARK VINA RESULT:      -8.2      0.979      1.282
REMARK  Name = 
REMARK  8 active torsions:
REMARK  status: ('A' for Active; 'I' for Inactive)
REMARK    1  A    between atoms: C_1  and  O_2
REMARK    2  A    between atoms: O_2  and  C_3
REMARK    3  A    between atoms: C_6  and  C_7
REMARK    4  A    between atoms: C_8  and  C_9
REMARK    5  A    between atoms: C_10  and  C_11
REMARK    6  A    between atoms: C_14  and  O_15
REMARK    7  A    between atoms: O_15  and  C_16
REMARK    8  A    between atoms: C_23  and  N_24
REMARK                            x       y       z     vdW  Elec       q    Type
REMARK                         _______ _______ _______ _____ _____    ______ ____
ROOT
ATOM      1  C   UNL     1       0.834  10.371  20.288  0.00  0.00    +0.000 A 
ATOM      2  C   UNL     1       0.398  11.025  19.123  0.00  0.00    +0.000 A 
ATOM      3  S   UNL     1       1.343  12.465  19.179  0.00  0.00    +0.000 S 
ATOM      4  C   UNL     1       0.799  12.591  20.841  0.00  0.00    +0.000 A 
ATOM      5  C   UNL     1       0.749  13.773  21.587  0.00  0.00    +0.000 A 
ATOM      6  C   UNL     1      -0.348  13.948  22.422  0.00  0.00    +0.000 A 
ATOM      7  C   UNL     1      -1.348  12.971  22.580  0.00  0.00    +0.000 A 
ATOM      8  C   UNL     1      -1.022  11.633  22.054  0.00  0.00    +0.000 A 
ATOM      9  C   UNL     1       0.157  11.374  21.195  0.00  0.00    +0.000 A 
ENDROOT
BRANCH   2  10
ATOM     10  C   UNL     1      -0.912  10.826  18.492  0.00  0.00    +0.000 A 
ATOM     11  C   UNL     1      -1.950  11.741  18.816  0.00  0.00    +0.000 A 
ATOM     12  C   UNL     1      -3.163  11.745  18.145  0.00  0.00    +0.000 A 
ATOM     13  C   UNL     1      -3.372  10.820  17.137  0.00  0.00    +0.000 A 
ATOM     14  C   UNL     1      -2.379   9.876  16.836  0.00  0.00    +0.000 A 
ATOM     15  C   UNL     1      -1.151   9.882  17.504  0.00  0.00    +0.000 A 
BRANCH  13  16
ATOM     16  O   UNL     1      -4.589  10.917  16.521  0.00  0.00    +0.000 OA
ATOM     17  C   UNL     1      -5.422  11.951  17.024  0.00  0.00    +0.000 C 
ENDBRANCH  13  16
ENDBRANCH   2  10
BRANCH   7  18
ATOM     18  N   UNL     1      -2.594  13.421  23.077  0.00  0.00    +0.000 N 
ATOM     19  C   UNL     1      -3.549  12.543  23.780  0.00  0.00    +0.000 C 
ATOM     20  C   UNL     1      -5.004  13.081  23.701  0.00  0.00    +0.000 C 
ATOM     21  O   UNL     1      -5.108  14.419  24.210  0.00  0.00    +0.000 OA
ATOM     22  C   UNL     1      -4.326  15.286  23.387  0.00  0.00    +0.000 C 
ATOM     23  C   UNL     1      -2.829  14.879  23.366  0.00  0.00    +0.000 C 
ENDBRANCH   7  18
BRANCH   1  25
ATOM     24  C   UNL     1       1.961   8.366  18.815  0.00  0.00    +0.000 C 
ATOM     25  C   UNL     1       1.355   9.056  19.826  0.00  0.00    +0.000 C 
BRANCH  24  29
ATOM     26  C   UNL     1       3.394   4.087  19.021  0.00  0.00    +0.000 A 
ATOM     27  C   UNL     1       2.654   4.647  20.062  0.00  0.00    +0.000 A 
ATOM     28  C   UNL     1       2.191   5.998  20.021  0.00  0.00    +0.000 A 
ATOM     29  C   UNL     1       2.453   6.866  18.936  0.00  0.00    +0.000 A 
ATOM     30  C   UNL     1       3.260   6.283  17.926  0.00  0.00    +0.000 A 
ATOM     31  C   UNL     1       3.717   4.921  17.959  0.00  0.00    +0.000 A 
BRANCH  26  33
ATOM     32  C   UNL     1       3.294   1.784  18.306  0.00  0.00    +0.000 C 
ATOM     33  O   UNL     1       3.771   2.784  19.206  0.00  0.00    +0.000 OA
ENDBRANCH  26  33
ENDBRANCH  24  29
ENDBRANCH   1  25
TORSDOF 6
ENDMDL
MODEL 4
REMARK VINA RESULT:      -8.2      0.299      1.212
REMARK  Name = 
REMARK  8 active torsions:
REMARK  status: ('A' for Active; 'I' for Inactive)
REMARK    1  A    between atoms: C_1  and  O_2
REMARK    2  A    between atoms: O_2  and  C_3
REMARK    3  A    between atoms: C_6  and  C_7
REMARK    4  A    between atoms: C_8  and  C_9
REMARK    5  A    between atoms: C_10  and  C_11
REMARK    6  A    between atoms: C_14  and  O_15
REMARK    7  A    between atoms: O_15  and  C_16
REMARK    8  A    between atoms: C_23  and  N_24
REMARK                            x       y       z     vdW  Elec       q    Type
REMARK                         _______ _______ _______ _____ _____    ______ ____
ROOT
ATOM      1  C   UNL     1       1.063  10.446  19.692  0.00  0.00    +0.000 A 
ATOM      2  C   UNL     1       0.401  11.127  18.655  0.00  0.00    +0.000 A 
ATOM      3  S   UNL     1       1.273  12.613  18.626  0.00  0.00    +0.000 S 
ATOM      4  C   UNL     1       1.020  12.634  20.361  0.00  0.00    +0.000 A 
ATOM      5  C   UNL     1       1.044  13.777  21.167  0.00  0.00    +0.000 A 
ATOM      6  C   UNL     1       0.101  13.852  22.185  0.00  0.00    +0.000 A 
ATOM      7  C   UNL     1      -0.809  12.815  22.458  0.00  0.00    +0.000 A 
ATOM      8  C   UNL     1      -0.516  11.523  21.814  0.00  0.00    +0.000 A 
ATOM      9  C   UNL     1       0.507  11.369  20.754  0.00  0.00    +0.000 A 
ENDROOT
BRANCH   2  10
ATOM     10  C   UNL     1      -0.987  10.883  18.247  0.00  0.00    +0.000 A 
ATOM     11  C   UNL     1      -1.977  11.807  18.679  0.00  0.00    +0.000 A 
ATOM     12  C   UNL     1      -3.279  11.764  18.205  0.00  0.00    +0.000 A 
ATOM     13  C   UNL     1      -3.627  10.784  17.293  0.00  0.00    +0.000 A 
ATOM     14  C   UNL     1      -2.677   9.831  16.893  0.00  0.00    +0.000 A 
ATOM     15  C   UNL     1      -1.361   9.884  17.361  0.00  0.00    +0.000 A 
BRANCH  13  16
ATOM     16  O   UNL     1      -4.926  10.837  16.870  0.00  0.00    +0.000 OA
ATOM     17  C   UNL     1      -5.832  11.378  17.820  0.00  0.00    +0.000 C 
ENDBRANCH  13  16
ENDBRANCH   2  10
BRANCH   7  18
ATOM     18  N   UNL     1      -1.970  13.173  23.184  0.00  0.00    +0.000 N 
ATOM     19  C   UNL     1      -3.045  12.216  23.511  0.00  0.00    +0.000 C 
ATOM     20  C   UNL     1      -4.401  12.928  23.770  0.00  0.00    +0.000 C 
ATOM     21  O   UNL     1      -4.298  13.916  24.804  0.00  0.00    +0.000 OA
ATOM     22  C   UNL     1      -3.396  14.938  24.377  0.00  0.00    +0.000 C 
ATOM     23  C   UNL     1      -1.978  14.380  24.082  0.00  0.00    +0.000 C 
ENDBRANCH   7  18
BRANCH   1  25
ATOM     24  C   UNL     1       1.991   8.570  17.937  0.00  0.00    +0.000 C 
ATOM     25  C   UNL     1       1.559   9.185  19.078  0.00  0.00    +0.000 C 
BRANCH  24  29
ATOM     26  C   UNL     1       3.570   4.338  17.884  0.00  0.00    +0.000 A 
ATOM     27  C   UNL     1       4.383   5.412  17.520  0.00  0.00    +0.000 A 
ATOM     28  C   UNL     1       3.906   6.759  17.528  0.00  0.00    +0.000 A 
ATOM     29  C   UNL     1       2.584   7.103  17.891  0.00  0.00    +0.000 A 
ATOM     30  C   UNL     1       1.769   5.982  18.194  0.00  0.00    +0.000 A 
ATOM     31  C   UNL     1       2.249   4.627  18.201  0.00  0.00    +0.000 A 
BRANCH  26  33
ATOM     32  C   UNL     1       3.379   1.937  18.047  0.00  0.00    +0.000 C 
ATOM     33  O   UNL     1       4.165   3.107  17.824  0.00  0.00    +0.000 OA
ENDBRANCH  26  33
ENDBRANCH  24  29
ENDBRANCH   1  25
TORSDOF 6
ENDMDL
MODEL 5
REMARK VINA RESULT:      -8.2      1.481      1.721
REMARK  Name = 
REMARK  8 active torsions:
REMARK  status: ('A' for Active; 'I' for Inactive)
REMARK    1  A    between atoms: C_1  and  O_2
REMARK    2  A    between atoms: O_2  and  C_3
REMARK    3  A    between atoms: C_6  and  C_7
REMARK    4  A    between atoms: C_8  and  C_9
REMARK    5  A    between atoms: C_10  and  C_11
REMARK    6  A    between atoms: C_14  and  O_15
REMARK    7  A    between atoms: O_15  and  C_16
REMARK    8  A    between atoms: C_23  and  N_24
REMARK                            x       y       z     vdW  Elec       q    Type
REMARK                         _______ _______ _______ _____ _____    ______ ____
ROOT
ATOM      1  C   UNL     1       0.488  10.485  20.886  0.00  0.00    +0.000 A 
ATOM      2  C   UNL     1       0.309  11.097  19.633  0.00  0.00    +0.000 A 
ATOM      3  S   UNL     1       1.232  12.539  19.835  0.00  0.00    +0.000 S 
ATOM      4  C   UNL     1       0.354  12.723  21.342  0.00  0.00    +0.000 A 
ATOM      5  C   UNL     1       0.157  13.930  22.019  0.00  0.00    +0.000 A 
ATOM      6  C   UNL     1      -1.088  14.134  22.601  0.00  0.00    +0.000 A 
ATOM      7  C   UNL     1      -2.106  13.162  22.581  0.00  0.00    +0.000 A 
ATOM      8  C   UNL     1      -1.687  11.808  22.181  0.00  0.00    +0.000 A 
ATOM      9  C   UNL     1      -0.356  11.519  21.597  0.00  0.00    +0.000 A 
ENDROOT
BRANCH   2  10
ATOM     10  C   UNL     1      -0.842  10.875  18.750  0.00  0.00    +0.000 A 
ATOM     11  C   UNL     1      -1.865  11.862  18.733  0.00  0.00    +0.000 A 
ATOM     12  C   UNL     1      -2.899  11.832  17.811  0.00  0.00    +0.000 A 
ATOM     13  C   UNL     1      -2.943  10.803  16.887  0.00  0.00    +0.000 A 
ATOM     14  C   UNL     1      -1.971   9.791  16.921  0.00  0.00    +0.000 A 
ATOM     15  C   UNL     1      -0.920   9.830  17.842  0.00  0.00    +0.000 A 
BRANCH  13  16
ATOM     16  O   UNL     1      -3.987  10.872  16.008  0.00  0.00    +0.000 OA
ATOM     17  C   UNL     1      -3.726  10.295  14.737  0.00  0.00    +0.000 C 
ENDBRANCH  13  16
ENDBRANCH   2  10
BRANCH   7  18
ATOM     18  N   UNL     1      -3.425  13.629  22.791  0.00  0.00    +0.000 N 
ATOM     19  C   UNL     1      -3.745  15.039  23.087  0.00  0.00    +0.000 C 
ATOM     20  C   UNL     1      -5.105  15.186  23.825  0.00  0.00    +0.000 C 
ATOM     21  O   UNL     1      -6.181  14.586  23.089  0.00  0.00    +0.000 OA
ATOM     22  C   UNL     1      -5.942  13.182  22.986  0.00  0.00    +0.000 C 
ATOM     23  C   UNL     1      -4.608  12.867  22.258  0.00  0.00    +0.000 C 
ENDBRANCH   7  18
BRANCH   1  25
ATOM     24  C   UNL     1       1.306   7.883  21.035  0.00  0.00    +0.000 C 
ATOM     25  C   UNL     1       1.086   9.155  20.588  0.00  0.00    +0.000 C 
BRANCH  24  29
ATOM     26  C   UNL     1       3.116   4.688  18.404  0.00  0.00    +0.000 A 
ATOM     27  C   UNL     1       2.573   4.370  19.649  0.00  0.00    +0.000 A 
ATOM     28  C   UNL     1       1.996   5.363  20.500  0.00  0.00    +0.000 A 
ATOM     29  C   UNL     1       1.941   6.732  20.152  0.00  0.00    +0.000 A 
ATOM     30  C   UNL     1       2.558   7.027  18.909  0.00  0.00    +0.000 A 
ATOM     31  C   UNL     1       3.127   6.029  18.046  0.00  0.00    +0.000 A 
BRANCH  26  33
ATOM     32  C   UNL     1       3.277   2.301  18.079  0.00  0.00    +0.000 C 
ATOM     33  O   UNL     1       3.635   3.631  17.705  0.00  0.00    +0.000 OA
ENDBRANCH  26  33
ENDBRANCH  24  29
ENDBRANCH   1  25
TORSDOF 6
ENDMDL
MODEL 6
REMARK VINA RESULT:      -8.1      1.303      1.840
REMARK  Name = 
REMARK  8 active torsions:
REMARK  status: ('A' for Active; 'I' for Inactive)
REMARK    1  A    between atoms: C_1  and  O_2
REMARK    2  A    between atoms: O_2  and  C_3
REMARK    3  A    between atoms: C_6  and  C_7
REMARK    4  A    between atoms: C_8  and  C_9
REMARK    5  A    between atoms: C_10  and  C_11
REMARK    6  A    between atoms: C_14  and  O_15
REMARK    7  A    between atoms: O_15  and  C_16
REMARK    8  A    between atoms: C_23  and  N_24
REMARK                            x       y       z     vdW  Elec       q    Type
REMARK                         _______ _______ _______ _____ _____    ______ ____
ROOT
ATOM      1  C   UNL     1       0.525  10.516  20.906  0.00  0.00    +0.000 A 
ATOM      2  C   UNL     1       0.240  11.131  19.675  0.00  0.00    +0.000 A 
ATOM      3  S   UNL     1       1.182  12.569  19.796  0.00  0.00    +0.000 S 
ATOM      4  C   UNL     1       0.441  12.754  21.375  0.00  0.00    +0.000 A 
ATOM      5  C   UNL     1       0.309  13.962  22.068  0.00  0.00    +0.000 A 
ATOM      6  C   UNL     1      -0.880  14.169  22.756  0.00  0.00    +0.000 A 
ATOM      7  C   UNL     1      -1.899  13.202  22.824  0.00  0.00    +0.000 A 
ATOM      8  C   UNL     1      -1.522  11.846  22.388  0.00  0.00    +0.000 A 
ATOM      9  C   UNL     1      -0.249  11.553  21.689  0.00  0.00    +0.000 A 
ENDROOT
BRANCH   2  10
ATOM     10  C   UNL     1      -0.985  10.915  18.896  0.00  0.00    +0.000 A 
ATOM     11  C   UNL     1      -2.040  11.856  19.044  0.00  0.00    +0.000 A 
ATOM     12  C   UNL     1      -3.160  11.839  18.228  0.00  0.00    +0.000 A 
ATOM     13  C   UNL     1      -3.258  10.868  17.246  0.00  0.00    +0.000 A 
ATOM     14  C   UNL     1      -2.251   9.900  17.117  0.00  0.00    +0.000 A 
ATOM     15  C   UNL     1      -1.115   9.926  17.932  0.00  0.00    +0.000 A 
BRANCH  13  16
ATOM     16  O   UNL     1      -4.387  10.947  16.480  0.00  0.00    +0.000 OA
ATOM     17  C   UNL     1      -5.426  11.736  17.041  0.00  0.00    +0.000 C 
ENDBRANCH  13  16
ENDBRANCH   2  10
BRANCH   7  18
ATOM     18  N   UNL     1      -3.194  13.674  23.150  0.00  0.00    +0.000 N 
ATOM     19  C   UNL     1      -4.262  12.802  23.674  0.00  0.00    +0.000 C 
ATOM     20  C   UNL     1      -5.677  13.386  23.404  0.00  0.00    +0.000 C 
ATOM     21  O   UNL     1      -5.820  14.709  23.939  0.00  0.00    +0.000 OA
ATOM     22  C   UNL     1      -4.905  15.578  23.271  0.00  0.00    +0.000 C 
ATOM     23  C   UNL     1      -3.431  15.127  23.454  0.00  0.00    +0.000 C 
ENDBRANCH   7  18
BRANCH   1  25
ATOM     24  C   UNL     1       1.496   7.965  21.020  0.00  0.00    +0.000 C 
ATOM     25  C   UNL     1       1.089   9.185  20.556  0.00  0.00    +0.000 C 
BRANCH  24  29
ATOM     26  C   UNL     1       2.709   4.440  18.469  0.00  0.00    +0.000 A 
ATOM     27  C   UNL     1       2.841   5.746  17.998  0.00  0.00    +0.000 A 
ATOM     28  C   UNL     1       2.464   6.878  18.785  0.00  0.00    +0.000 A 
ATOM     29  C   UNL     1       1.922   6.760  20.086  0.00  0.00    +0.000 A 
ATOM     30  C   UNL     1       1.743   5.418  20.507  0.00  0.00    +0.000 A 
ATOM     31  C   UNL     1       2.134   4.278  19.722  0.00  0.00    +0.000 A 
BRANCH  26  33
ATOM     32  C   UNL     1       3.387   2.153  18.099  0.00  0.00    +0.000 C 
ATOM     33  O   UNL     1       3.109   3.461  17.600  0.00  0.00    +0.000 OA
ENDBRANCH  26  33
ENDBRANCH  24  29
ENDBRANCH   1  25
TORSDOF 6
ENDMDL
MODEL 7
REMARK VINA RESULT:      -8.1      1.567      2.174
REMARK  Name = 
REMARK  8 active torsions:
REMARK  status: ('A' for Active; 'I' for Inactive)
REMARK    1  A    between atoms: C_1  and  O_2
REMARK    2  A    between atoms: O_2  and  C_3
REMARK    3  A    between atoms: C_6  and  C_7
REMARK    4  A    between atoms: C_8  and  C_9
REMARK    5  A    between atoms: C_10  and  C_11
REMARK    6  A    between atoms: C_14  and  O_15
REMARK    7  A    between atoms: O_15  and  C_16
REMARK    8  A    between atoms: C_23  and  N_24
REMARK                            x       y       z     vdW  Elec       q    Type
REMARK                         _______ _______ _______ _____ _____    ______ ____
ROOT
ATOM      1  C   UNL     1      -0.015  10.755  21.495  0.00  0.00    +0.000 A 
ATOM      2  C   UNL     1      -0.272  11.419  20.283  0.00  0.00    +0.000 A 
ATOM      3  S   UNL     1       0.553  12.910  20.540  0.00  0.00    +0.000 S 
ATOM      4  C   UNL     1      -0.291  12.950  22.077  0.00  0.00    +0.000 A 
ATOM      5  C   UNL     1      -0.552  14.103  22.824  0.00  0.00    +0.000 A 
ATOM      6  C   UNL     1      -1.791  14.186  23.447  0.00  0.00    +0.000 A 
ATOM      7  C   UNL     1      -2.738  13.147  23.400  0.00  0.00    +0.000 A 
ATOM      8  C   UNL     1      -2.238  11.849  22.915  0.00  0.00    +0.000 A 
ATOM      9  C   UNL     1      -0.908  11.687  22.282  0.00  0.00    +0.000 A 
ENDROOT
BRANCH   2  10
ATOM     10  C   UNL     1      -1.430  11.162  19.418  0.00  0.00    +0.000 A 
ATOM     11  C   UNL     1      -2.496  12.103  19.441  0.00  0.00    +0.000 A 
ATOM     12  C   UNL     1      -3.546  12.045  18.539  0.00  0.00    +0.000 A 
ATOM     13  C   UNL     1      -3.564  11.032  17.596  0.00  0.00    +0.000 A 
ATOM     14  C   UNL     1      -2.547  10.064  17.590  0.00  0.00    +0.000 A 
ATOM     15  C   UNL     1      -1.481  10.132  18.491  0.00  0.00    +0.000 A 
BRANCH  13  16
ATOM     16  O   UNL     1      -4.628  11.072  16.739  0.00  0.00    +0.000 OA
ATOM     17  C   UNL     1      -5.732  11.833  17.206  0.00  0.00    +0.000 C 
ENDBRANCH  13  16
ENDBRANCH   2  10
BRANCH   7  18
ATOM     18  N   UNL     1      -4.081  13.507  23.669  0.00  0.00    +0.000 N 
ATOM     19  C   UNL     1      -5.049  12.593  24.305  0.00  0.00    +0.000 C 
ATOM     20  C   UNL     1      -6.518  12.975  23.969  0.00  0.00    +0.000 C 
ATOM     21  O   UNL     1      -6.815  14.331  24.332  0.00  0.00    +0.000 OA
ATOM     22  C   UNL     1      -5.997  15.206  23.555  0.00  0.00    +0.000 C 
ATOM     23  C   UNL     1      -4.483  14.951  23.787  0.00  0.00    +0.000 C 
ENDBRANCH   7  18
BRANCH   1  25
ATOM     24  C   UNL     1       0.710   8.131  21.259  0.00  0.00    +0.000 C 
ATOM     25  C   UNL     1       0.666   9.489  21.109  0.00  0.00    +0.000 C 
BRANCH  24  29
ATOM     26  C   UNL     1       3.374   5.498  18.735  0.00  0.00    +0.000 A 
ATOM     27  C   UNL     1       2.830   5.032  19.932  0.00  0.00    +0.000 A 
ATOM     28  C   UNL     1       1.986   5.846  20.748  0.00  0.00    +0.000 A 
ATOM     29  C   UNL     1       1.648   7.177  20.413  0.00  0.00    +0.000 A 
ATOM     30  C   UNL     1       2.269   7.638  19.224  0.00  0.00    +0.000 A 
ATOM     31  C   UNL     1       3.108   6.817  18.394  0.00  0.00    +0.000 A 
BRANCH  26  33
ATOM     32  C   UNL     1       3.566   3.682  17.156  0.00  0.00    +0.000 C 
ATOM     33  O   UNL     1       4.166   4.605  18.065  0.00  0.00    +0.000 OA
ENDBRANCH  26  33
ENDBRANCH  24  29
ENDBRANCH   1  25
TORSDOF 6
ENDMDL
MODEL 8
REMARK VINA RESULT:      -8.1      1.747      2.820
REMARK  Name = 
REMARK  8 active torsions:
REMARK  status: ('A' for Active; 'I' for Inactive)
REMARK    1  A    between atoms: C_1  and  O_2
REMARK    2  A    between atoms: O_2  and  C_3
REMARK    3  A    between atoms: C_6  and  C_7
REMARK    4  A    between atoms: C_8  and  C_9
REMARK    5  A    between atoms: C_10  and  C_11
REMARK    6  A    between atoms: C_14  and  O_15
REMARK    7  A    between atoms: O_15  and  C_16
REMARK    8  A    between atoms: C_23  and  N_24
REMARK                            x       y       z     vdW  Elec       q    Type
REMARK                         _______ _______ _______ _____ _____    ______ ____
ROOT
ATOM      1  C   UNL     1      -0.252  11.020  21.708  0.00  0.00    +0.000 A 
ATOM      2  C   UNL     1      -0.379  11.858  20.587  0.00  0.00    +0.000 A 
ATOM      3  S   UNL     1       0.386  13.294  21.159  0.00  0.00    +0.000 S 
ATOM      4  C   UNL     1      -0.632  13.104  22.575  0.00  0.00    +0.000 A 
ATOM      5  C   UNL     1      -0.997  14.131  23.450  0.00  0.00    +0.000 A 
ATOM      6  C   UNL     1      -2.301  14.121  23.928  0.00  0.00    +0.000 A 
ATOM      7  C   UNL     1      -3.219  13.101  23.615  0.00  0.00    +0.000 A 
ATOM      8  C   UNL     1      -2.644  11.890  23.005  0.00  0.00    +0.000 A 
ATOM      9  C   UNL     1      -1.247  11.824  22.516  0.00  0.00    +0.000 A 
ENDROOT
BRANCH   2  10
ATOM     10  C   UNL     1      -1.424  11.735  19.564  0.00  0.00    +0.000 A 
ATOM     11  C   UNL     1      -1.186  10.854  18.475  0.00  0.00    +0.000 A 
ATOM     12  C   UNL     1      -2.174  10.536  17.557  0.00  0.00    +0.000 A 
ATOM     13  C   UNL     1      -3.428  11.104  17.699  0.00  0.00    +0.000 A 
ATOM     14  C   UNL     1      -3.668  12.016  18.739  0.00  0.00    +0.000 A 
ATOM     15  C   UNL     1      -2.675  12.325  19.672  0.00  0.00    +0.000 A 
BRANCH  13  16
ATOM     16  O   UNL     1      -4.339  10.713  16.759  0.00  0.00    +0.000 OA
ATOM     17  C   UNL     1      -3.824  10.634  15.438  0.00  0.00    +0.000 C 
ENDBRANCH  13  16
ENDBRANCH   2  10
BRANCH   7  18
ATOM     18  N   UNL     1      -4.589  13.418  23.776  0.00  0.00    +0.000 N 
ATOM     19  C   UNL     1      -5.562  12.501  24.402  0.00  0.00    +0.000 C 
ATOM     20  C   UNL     1      -7.019  12.799  23.950  0.00  0.00    +0.000 C 
ATOM     21  O   UNL     1      -7.392  14.159  24.212  0.00  0.00    +0.000 OA
ATOM     22  C   UNL     1      -6.559  15.023  23.437  0.00  0.00    +0.000 C 
ATOM     23  C   UNL     1      -5.056  14.848  23.781  0.00  0.00    +0.000 C 
ENDBRANCH   7  18
BRANCH   1  25
ATOM     24  C   UNL     1       0.721   8.489  21.381  0.00  0.00    +0.000 C 
ATOM     25  C   UNL     1       0.489   9.826  21.221  0.00  0.00    +0.000 C 
BRANCH  24  29
ATOM     26  C   UNL     1       3.231   5.906  18.655  0.00  0.00    +0.000 A 
ATOM     27  C   UNL     1       2.874   7.203  18.286  0.00  0.00    +0.000 A 
ATOM     28  C   UNL     1       2.080   8.039  19.131  0.00  0.00    +0.000 A 
ATOM     29  C   UNL     1       1.592   7.616  20.388  0.00  0.00    +0.000 A 
ATOM     30  C   UNL     1       1.921   6.272  20.702  0.00  0.00    +0.000 A 
ATOM     31  C   UNL     1       2.730   5.434  19.860  0.00  0.00    +0.000 A 
BRANCH  26  33
ATOM     32  C   UNL     1       5.413   5.331  17.797  0.00  0.00    +0.000 C 
ATOM     33  O   UNL     1       3.991   5.227  17.741  0.00  0.00    +0.000 OA
ENDBRANCH  26  33
ENDBRANCH  24  29
ENDBRANCH   1  25
TORSDOF 6
ENDMDL
MODEL 9
REMARK VINA RESULT:      -8.0      1.642      2.363
REMARK  Name = 
REMARK  8 active torsions:
REMARK  status: ('A' for Active; 'I' for Inactive)
REMARK    1  A    between atoms: C_1  and  O_2
REMARK    2  A    between atoms: O_2  and  C_3
REMARK    3  A    between atoms: C_6  and  C_7
REMARK    4  A    between atoms: C_8  and  C_9
REMARK    5  A    between atoms: C_10  and  C_11
REMARK    6  A    between atoms: C_14  and  O_15
REMARK    7  A    between atoms: O_15  and  C_16
REMARK    8  A    between atoms: C_23  and  N_24
REMARK                            x       y       z     vdW  Elec       q    Type
REMARK                         _______ _______ _______ _____ _____    ______ ____
ROOT
ATOM      1  C   UNL     1       0.193  10.711  21.180  0.00  0.00    +0.000 A 
ATOM      2  C   UNL     1       0.153  11.444  19.981  0.00  0.00    +0.000 A 
ATOM      3  S   UNL     1       1.032  12.858  20.428  0.00  0.00    +0.000 S 
ATOM      4  C   UNL     1      -0.016  12.894  21.834  0.00  0.00    +0.000 A 
ATOM      5  C   UNL     1      -0.302  14.029  22.599  0.00  0.00    +0.000 A 
ATOM      6  C   UNL     1      -1.608  14.175  23.050  0.00  0.00    +0.000 A 
ATOM      7  C   UNL     1      -2.606  13.212  22.817  0.00  0.00    +0.000 A 
ATOM      8  C   UNL     1      -2.130  11.902  22.337  0.00  0.00    +0.000 A 
ATOM      9  C   UNL     1      -0.738  11.671  21.886  0.00  0.00    +0.000 A 
ENDROOT
BRANCH   2  10
ATOM     10  C   UNL     1      -0.886  11.311  18.953  0.00  0.00    +0.000 A 
ATOM     11  C   UNL     1      -0.779  10.228  18.039  0.00  0.00    +0.000 A 
ATOM     12  C   UNL     1      -1.795   9.915  17.150  0.00  0.00    +0.000 A 
ATOM     13  C   UNL     1      -2.942  10.689  17.144  0.00  0.00    +0.000 A 
ATOM     14  C   UNL     1      -3.045  11.793  18.004  0.00  0.00    +0.000 A 
ATOM     15  C   UNL     1      -2.026  12.100  18.910  0.00  0.00    +0.000 A 
BRANCH  13  16
ATOM     16  O   UNL     1      -3.893  10.289  16.248  0.00  0.00    +0.000 OA
ATOM     17  C   UNL     1      -3.440  10.210  14.904  0.00  0.00    +0.000 C 
ENDBRANCH  13  16
ENDBRANCH   2  10
BRANCH   7  18
ATOM     18  N   UNL     1      -3.946  13.657  22.917  0.00  0.00    +0.000 N 
ATOM     19  C   UNL     1      -5.081  12.950  22.293  0.00  0.00    +0.000 C 
ATOM     20  C   UNL     1      -6.292  13.893  22.049  0.00  0.00    +0.000 C 
ATOM     21  O   UNL     1      -6.723  14.534  23.258  0.00  0.00    +0.000 OA
ATOM     22  C   UNL     1      -5.668  15.369  23.737  0.00  0.00    +0.000 C 
ATOM     23  C   UNL     1      -4.376  14.565  24.037  0.00  0.00    +0.000 C 
ENDBRANCH   7  18
BRANCH   1  25
ATOM     24  C   UNL     1       1.143   8.151  21.236  0.00  0.00    +0.000 C 
ATOM     25  C   UNL     1       0.835   9.416  20.825  0.00  0.00    +0.000 C 
BRANCH  24  29
ATOM     26  C   UNL     1       2.949   5.087  18.450  0.00  0.00    +0.000 A 
ATOM     27  C   UNL     1       2.435   4.713  19.692  0.00  0.00    +0.000 A 
ATOM     28  C   UNL     1       1.860   5.664  20.591  0.00  0.00    +0.000 A 
ATOM     29  C   UNL     1       1.778   7.044  20.298  0.00  0.00    +0.000 A 
ATOM     30  C   UNL     1       2.366   7.396  19.056  0.00  0.00    +0.000 A 
ATOM     31  C   UNL     1       2.933   6.441  18.144  0.00  0.00    +0.000 A 
BRANCH  26  33
ATOM     32  C   UNL     1       4.823   4.147  17.254  0.00  0.00    +0.000 C 
ATOM     33  O   UNL     1       3.470   4.066  17.702  0.00  0.00    +0.000 OA
ENDBRANCH  26  33
ENDBRANCH  24  29
ENDBRANCH   1  25
TORSDOF 6
ENDMDL
