MODEL 1
REMARK VINA RESULT:      -7.1      0.000      0.000
REMARK  Name = 
REMARK  10 active torsions:
REMARK  status: ('A' for Active; 'I' for Inactive)
REMARK    1  A    between atoms: C_1  and  O_2
REMARK    2  A    between atoms: O_2  and  C_3
REMARK    3  A    between atoms: C_5  and  C_6
REMARK    4  A    between atoms: C_8  and  C_9
REMARK    5  A    between atoms: N_12  and  C_13
REMARK    6  A    between atoms: C_16  and  O_17
REMARK    7  A    between atoms: O_17  and  C_18
REMARK    8  A    between atoms: C_19  and  C_20
REMARK    9  A    between atoms: C_20  and  N_21
REMARK   10  A    between atoms: C_23  and  O_24
REMARK                            x       y       z     vdW  Elec       q    Type
REMARK                         _______ _______ _______ _____ _____    ______ ____
ROOT
ATOM      1  C   UNL     1       1.555   9.511  19.084  0.00  0.00    +0.000 A 
ATOM      2  C   UNL     1       2.239   8.284  19.097  0.00  0.00    +0.000 A 
ATOM      3  C   UNL     1       1.947   7.326  20.079  0.00  0.00    +0.000 A 
ATOM      4  C   UNL     1       1.093   7.661  21.133  0.00  0.00    +0.000 A 
ATOM      5  C   UNL     1       0.413   8.882  21.138  0.00  0.00    +0.000 A 
ATOM      6  C   UNL     1       0.609   9.820  20.095  0.00  0.00    +0.000 A 
ENDROOT
BRANCH   3   7
ATOM      7  C   UNL     1       2.311   5.924  19.902  0.00  0.00    +0.000 A 
ATOM      8  C   UNL     1       1.817   4.874  20.803  0.00  0.00    +0.000 A 
ATOM      9  C   UNL     1       2.176   3.589  20.675  0.00  0.00    +0.000 A 
ATOM     10  C   UNL     1       1.704   2.488  21.576  0.00  0.00    +0.000 C 
ATOM     11  C   UNL     1       3.113   3.203  19.572  0.00  0.00    +0.000 A 
ATOM     12  O   UNL     1       3.448   2.025  19.435  0.00  0.00    +0.000 OA
ATOM     13  N   UNL     1       3.562   4.243  18.750  0.00  0.00    +0.000 N 
ATOM     14  C   UNL     1       4.482   3.946  17.672  0.00  0.00    +0.000 C 
ATOM     15  C   UNL     1       3.156   5.566  18.935  0.00  0.00    +0.000 A 
ENDBRANCH   3   7
BRANCH   1  17
ATOM     16  C   UNL     1       2.282  11.331  17.748  0.00  0.00    +0.000 C 
ATOM     17  O   UNL     1       1.495  10.150  17.869  0.00  0.00    +0.000 OA
ENDBRANCH   1  17
BRANCH   5  18
ATOM     18  O   UNL     1      -0.566   9.169  22.066  0.00  0.00    +0.000 OA
ATOM     19  C   UNL     1      -0.128   9.560  23.368  0.00  0.00    +0.000 C 
ENDBRANCH   5  18
BRANCH   6  20
ATOM     20  C   UNL     1      -0.454  10.893  19.856  0.00  0.00    +0.000 C 
BRANCH  20  21
ATOM     21  N   UNL     1      -1.796  10.567  19.332  0.00  0.00    +0.000 NA
ATOM     22  C   UNL     1      -1.929  10.361  17.868  0.00  0.00    +0.000 C 
ATOM     23  C   UNL     1      -2.166  11.871  17.661  0.00  0.00    +0.000 C 
ATOM     24  C   UNL     1      -2.513  11.876  19.168  0.00  0.00    +0.000 C 
BRANCH  23  25
ATOM     25  O   UNL     1      -1.045  12.669  17.227  0.00  0.00    +0.000 OA
ATOM     26  H   UNL     1      -0.508  12.774  18.035  0.00  0.00    +0.000 HD
ENDBRANCH  23  25
ENDBRANCH  20  21
ENDBRANCH   6  20
TORSDOF 6
ENDMDL
MODEL 2
REMARK VINA RESULT:      -7.0      1.413      1.795
REMARK  Name = 
REMARK  10 active torsions:
REMARK  status: ('A' for Active; 'I' for Inactive)
REMARK    1  A    between atoms: C_1  and  O_2
REMARK    2  A    between atoms: O_2  and  C_3
REMARK    3  A    between atoms: C_5  and  C_6
REMARK    4  A    between atoms: C_8  and  C_9
REMARK    5  A    between atoms: N_12  and  C_13
REMARK    6  A    between atoms: C_16  and  O_17
REMARK    7  A    between atoms: O_17  and  C_18
REMARK    8  A    between atoms: C_19  and  C_20
REMARK    9  A    between atoms: C_20  and  N_21
REMARK   10  A    between atoms: C_23  and  O_24
REMARK                            x       y       z     vdW  Elec       q    Type
REMARK                         _______ _______ _______ _____ _____    ______ ____
ROOT
ATOM      1  C   UNL     1       0.798  10.011  18.883  0.00  0.00    +0.000 A 
ATOM      2  C   UNL     1       1.481   8.797  18.700  0.00  0.00    +0.000 A 
ATOM      3  C   UNL     1       1.836   8.015  19.809  0.00  0.00    +0.000 A 
ATOM      4  C   UNL     1       1.652   8.525  21.096  0.00  0.00    +0.000 A 
ATOM      5  C   UNL     1       0.983   9.737  21.293  0.00  0.00    +0.000 A 
ATOM      6  C   UNL     1       0.515  10.489  20.188  0.00  0.00    +0.000 A 
ENDROOT
BRANCH   3   7
ATOM      7  C   UNL     1       2.162   6.600  19.665  0.00  0.00    +0.000 A 
ATOM      8  C   UNL     1       1.793   5.611  20.686  0.00  0.00    +0.000 A 
ATOM      9  C   UNL     1       2.121   4.315  20.584  0.00  0.00    +0.000 A 
ATOM     10  C   UNL     1       1.773   3.274  21.606  0.00  0.00    +0.000 C 
ATOM     11  C   UNL     1       2.891   3.853  19.385  0.00  0.00    +0.000 A 
ATOM     12  O   UNL     1       3.195   2.664  19.272  0.00  0.00    +0.000 OA
ATOM     13  N   UNL     1       3.226   4.838  18.449  0.00  0.00    +0.000 N 
ATOM     14  C   UNL     1       3.983   4.465  17.272  0.00  0.00    +0.000 C 
ATOM     15  C   UNL     1       2.860   6.175  18.612  0.00  0.00    +0.000 A 
ENDBRANCH   3   7
BRANCH   1  17
ATOM     16  C   UNL     1      -1.139   9.702  17.550  0.00  0.00    +0.000 C 
ATOM     17  O   UNL     1       0.048  10.443  17.815  0.00  0.00    +0.000 OA
ENDBRANCH   1  17
BRANCH   5  18
ATOM     18  O   UNL     1       0.631  10.180  22.550  0.00  0.00    +0.000 OA
ATOM     19  C   UNL     1      -0.307   9.385  23.278  0.00  0.00    +0.000 C 
ENDBRANCH   5  18
BRANCH   6  20
ATOM     20  C   UNL     1      -0.594  11.518  20.410  0.00  0.00    +0.000 C 
BRANCH  20  21
ATOM     21  N   UNL     1      -0.305  12.942  20.676  0.00  0.00    +0.000 NA
ATOM     22  C   UNL     1      -1.211  13.950  20.072  0.00  0.00    +0.000 C 
ATOM     23  C   UNL     1      -0.357  13.970  18.788  0.00  0.00    +0.000 C 
ATOM     24  C   UNL     1       0.742  13.351  19.682  0.00  0.00    +0.000 C 
BRANCH  23  25
ATOM     25  O   UNL     1      -0.825  13.196  17.663  0.00  0.00    +0.000 OA
ATOM     26  H   UNL     1      -1.621  13.676  17.366  0.00  0.00    +0.000 HD
ENDBRANCH  23  25
ENDBRANCH  20  21
ENDBRANCH   6  20
TORSDOF 6
ENDMDL
MODEL 3
REMARK VINA RESULT:      -7.0      0.941      1.181
REMARK  Name = 
REMARK  10 active torsions:
REMARK  status: ('A' for Active; 'I' for Inactive)
REMARK    1  A    between atoms: C_1  and  O_2
REMARK    2  A    between atoms: O_2  and  C_3
REMARK    3  A    between atoms: C_5  and  C_6
REMARK    4  A    between atoms: C_8  and  C_9
REMARK    5  A    between atoms: N_12  and  C_13
REMARK    6  A    between atoms: C_16  and  O_17
REMARK    7  A    between atoms: O_17  and  C_18
REMARK    8  A    between atoms: C_19  and  C_20
REMARK    9  A    between atoms: C_20  and  N_21
REMARK   10  A    between atoms: C_23  and  O_24
REMARK                            x       y       z     vdW  Elec       q    Type
REMARK                         _______ _______ _______ _____ _____    ______ ____
ROOT
ATOM      1  C   UNL     1       1.361   9.462  19.160  0.00  0.00    +0.000 A 
ATOM      2  C   UNL     1       2.139   8.293  19.221  0.00  0.00    +0.000 A 
ATOM      3  C   UNL     1       1.921   7.354  20.240  0.00  0.00    +0.000 A 
ATOM      4  C   UNL     1       1.041   7.662  21.280  0.00  0.00    +0.000 A 
ATOM      5  C   UNL     1       0.267   8.826  21.238  0.00  0.00    +0.000 A 
ATOM      6  C   UNL     1       0.392   9.735  20.159  0.00  0.00    +0.000 A 
ENDROOT
BRANCH   3   7
ATOM      7  C   UNL     1       2.394   5.980  20.118  0.00  0.00    +0.000 A 
ATOM      8  C   UNL     1       1.769   4.875  20.857  0.00  0.00    +0.000 A 
ATOM      9  C   UNL     1       2.219   3.615  20.784  0.00  0.00    +0.000 A 
ATOM     10  C   UNL     1       1.618   2.460  21.527  0.00  0.00    +0.000 C 
ATOM     11  C   UNL     1       3.402   3.316  19.915  0.00  0.00    +0.000 A 
ATOM     12  O   UNL     1       3.825   2.161  19.831  0.00  0.00    +0.000 OA
ATOM     13  N   UNL     1       3.966   4.406  19.242  0.00  0.00    +0.000 N 
ATOM     14  C   UNL     1       5.122   4.193  18.396  0.00  0.00    +0.000 C 
ATOM     15  C   UNL     1       3.455   5.699  19.361  0.00  0.00    +0.000 A 
ENDBRANCH   3   7
BRANCH   1  17
ATOM     16  C   UNL     1       2.205  11.066  17.631  0.00  0.00    +0.000 C 
ATOM     17  O   UNL     1       1.255  10.046  17.921  0.00  0.00    +0.000 OA
ENDBRANCH   1  17
BRANCH   5  18
ATOM     18  O   UNL     1      -0.733   9.071  22.155  0.00  0.00    +0.000 OA
ATOM     19  C   UNL     1      -0.354   9.724  23.367  0.00  0.00    +0.000 C 
ENDBRANCH   5  18
BRANCH   6  20
ATOM     20  C   UNL     1      -0.752  10.711  19.879  0.00  0.00    +0.000 C 
BRANCH  20  21
ATOM     21  N   UNL     1      -0.839  12.030  20.539  0.00  0.00    +0.000 NA
ATOM     22  C   UNL     1      -1.833  12.997  20.009  0.00  0.00    +0.000 C 
ATOM     23  C   UNL     1      -0.799  13.525  18.992  0.00  0.00    +0.000 C 
ATOM     24  C   UNL     1       0.243  12.876  19.933  0.00  0.00    +0.000 C 
BRANCH  23  25
ATOM     25  O   UNL     1      -0.882  13.031  17.639  0.00  0.00    +0.000 OA
ATOM     26  H   UNL     1      -0.070  12.501  17.535  0.00  0.00    +0.000 HD
ENDBRANCH  23  25
ENDBRANCH  20  21
ENDBRANCH   6  20
TORSDOF 6
ENDMDL
MODEL 4
REMARK VINA RESULT:      -6.9      2.575      7.448
REMARK  Name = 
REMARK  10 active torsions:
REMARK  status: ('A' for Active; 'I' for Inactive)
REMARK    1  A    between atoms: C_1  and  O_2
REMARK    2  A    between atoms: O_2  and  C_3
REMARK    3  A    between atoms: C_5  and  C_6
REMARK    4  A    between atoms: C_8  and  C_9
REMARK    5  A    between atoms: N_12  and  C_13
REMARK    6  A    between atoms: C_16  and  O_17
REMARK    7  A    between atoms: O_17  and  C_18
REMARK    8  A    between atoms: C_19  and  C_20
REMARK    9  A    between atoms: C_20  and  N_21
REMARK   10  A    between atoms: C_23  and  O_24
REMARK                            x       y       z     vdW  Elec       q    Type
REMARK                         _______ _______ _______ _____ _____    ______ ____
ROOT
ATOM      1  C   UNL     1       3.987   6.516  17.249  0.00  0.00    +0.000 A 
ATOM      2  C   UNL     1       3.071   7.484  17.692  0.00  0.00    +0.000 A 
ATOM      3  C   UNL     1       2.375   7.296  18.895  0.00  0.00    +0.000 A 
ATOM      4  C   UNL     1       2.478   6.073  19.564  0.00  0.00    +0.000 A 
ATOM      5  C   UNL     1       3.378   5.096  19.128  0.00  0.00    +0.000 A 
ATOM      6  C   UNL     1       4.174   5.313  17.977  0.00  0.00    +0.000 A 
ENDROOT
BRANCH   3   7
ATOM      7  C   UNL     1       1.747   8.414  19.590  0.00  0.00    +0.000 A 
ATOM      8  C   UNL     1       1.338   8.322  20.998  0.00  0.00    +0.000 A 
ATOM      9  C   UNL     1       0.725   9.328  21.637  0.00  0.00    +0.000 A 
ATOM     10  C   UNL     1       0.283   9.274  23.069  0.00  0.00    +0.000 C 
ATOM     11  C   UNL     1       0.446  10.598  20.892  0.00  0.00    +0.000 A 
ATOM     12  O   UNL     1      -0.111  11.536  21.465  0.00  0.00    +0.000 OA
ATOM     13  N   UNL     1       0.846  10.628  19.551  0.00  0.00    +0.000 N 
ATOM     14  C   UNL     1       0.594  11.819  18.766  0.00  0.00    +0.000 C 
ATOM     15  C   UNL     1       1.478   9.545  18.939  0.00  0.00    +0.000 A 
ENDBRANCH   3   7
BRANCH   1  17
ATOM     16  C   UNL     1       5.162   6.211  15.211  0.00  0.00    +0.000 C 
ATOM     17  O   UNL     1       4.973   6.967  16.403  0.00  0.00    +0.000 OA
ENDBRANCH   1  17
BRANCH   5  18
ATOM     18  O   UNL     1       3.630   3.957  19.862  0.00  0.00    +0.000 OA
ATOM     19  C   UNL     1       2.725   2.865  19.693  0.00  0.00    +0.000 C 
ENDBRANCH   5  18
BRANCH   6  20
ATOM     20  C   UNL     1       5.450   4.489  17.794  0.00  0.00    +0.000 C 
BRANCH  20  21
ATOM     21  N   UNL     1       6.496   4.420  18.835  0.00  0.00    +0.000 NA
ATOM     22  C   UNL     1       6.821   5.672  19.565  0.00  0.00    +0.000 C 
ATOM     23  C   UNL     1       7.855   6.051  18.485  0.00  0.00    +0.000 C 
ATOM     24  C   UNL     1       7.809   4.549  18.119  0.00  0.00    +0.000 C 
BRANCH  23  25
ATOM     25  O   UNL     1       7.451   7.002  17.478  0.00  0.00    +0.000 OA
ATOM     26  H   UNL     1       6.522   6.765  17.295  0.00  0.00    +0.000 HD
ENDBRANCH  23  25
ENDBRANCH  20  21
ENDBRANCH   6  20
TORSDOF 6
ENDMDL
MODEL 5
REMARK VINA RESULT:      -6.9      1.850      3.706
REMARK  Name = 
REMARK  10 active torsions:
REMARK  status: ('A' for Active; 'I' for Inactive)
REMARK    1  A    between atoms: C_1  and  O_2
REMARK    2  A    between atoms: O_2  and  C_3
REMARK    3  A    between atoms: C_5  and  C_6
REMARK    4  A    between atoms: C_8  and  C_9
REMARK    5  A    between atoms: N_12  and  C_13
REMARK    6  A    between atoms: C_16  and  O_17
REMARK    7  A    between atoms: O_17  and  C_18
REMARK    8  A    between atoms: C_19  and  C_20
REMARK    9  A    between atoms: C_20  and  N_21
REMARK   10  A    between atoms: C_23  and  O_24
REMARK                            x       y       z     vdW  Elec       q    Type
REMARK                         _______ _______ _______ _____ _____    ______ ____
ROOT
ATOM      1  C   UNL     1       0.911   9.534  21.291  0.00  0.00    +0.000 A 
ATOM      2  C   UNL     1       1.361   8.322  20.738  0.00  0.00    +0.000 A 
ATOM      3  C   UNL     1       1.782   8.272  19.401  0.00  0.00    +0.000 A 
ATOM      4  C   UNL     1       1.600   9.388  18.582  0.00  0.00    +0.000 A 
ATOM      5  C   UNL     1       1.145  10.598  19.115  0.00  0.00    +0.000 A 
ATOM      6  C   UNL     1       0.821  10.701  20.490  0.00  0.00    +0.000 A 
ENDROOT
BRANCH   3   7
ATOM      7  C   UNL     1       2.618   7.182  18.911  0.00  0.00    +0.000 A 
ATOM      8  C   UNL     1       3.482   7.335  17.733  0.00  0.00    +0.000 A 
ATOM      9  C   UNL     1       4.225   6.330  17.250  0.00  0.00    +0.000 A 
ATOM     10  C   UNL     1       5.112   6.440  16.046  0.00  0.00    +0.000 C 
ATOM     11  C   UNL     1       4.179   4.999  17.935  0.00  0.00    +0.000 A 
ATOM     12  O   UNL     1       4.861   4.065  17.507  0.00  0.00    +0.000 OA
ATOM     13  N   UNL     1       3.332   4.904  19.045  0.00  0.00    +0.000 N 
ATOM     14  C   UNL     1       3.226   3.641  19.747  0.00  0.00    +0.000 C 
ATOM     15  C   UNL     1       2.578   5.986  19.499  0.00  0.00    +0.000 A 
ENDBRANCH   3   7
BRANCH   1  17
ATOM     16  C   UNL     1      -0.194   9.475  23.388  0.00  0.00    +0.000 C 
ATOM     17  O   UNL     1       1.016   9.644  22.657  0.00  0.00    +0.000 OA
ENDBRANCH   1  17
BRANCH   5  18
ATOM     18  O   UNL     1       1.123  11.760  18.375  0.00  0.00    +0.000 OA
ATOM     19  C   UNL     1       2.383  12.371  18.091  0.00  0.00    +0.000 C 
ENDBRANCH   5  18
BRANCH   6  20
ATOM     20  C   UNL     1       0.794  12.084  21.142  0.00  0.00    +0.000 C 
BRANCH  20  21
ATOM     21  N   UNL     1      -0.424  12.634  21.771  0.00  0.00    +0.000 NA
ATOM     22  C   UNL     1      -1.719  12.387  21.088  0.00  0.00    +0.000 C 
ATOM     23  C   UNL     1      -1.530  13.659  20.236  0.00  0.00    +0.000 C 
ATOM     24  C   UNL     1      -0.515  14.066  21.330  0.00  0.00    +0.000 C 
BRANCH  23  25
ATOM     25  O   UNL     1      -1.038  13.493  18.890  0.00  0.00    +0.000 OA
ATOM     26  H   UNL     1      -0.071  13.433  19.002  0.00  0.00    +0.000 HD
ENDBRANCH  23  25
ENDBRANCH  20  21
ENDBRANCH   6  20
TORSDOF 6
ENDMDL
MODEL 6
REMARK VINA RESULT:      -6.8      1.103      2.090
REMARK  Name = 
REMARK  10 active torsions:
REMARK  status: ('A' for Active; 'I' for Inactive)
REMARK    1  A    between atoms: C_1  and  O_2
REMARK    2  A    between atoms: O_2  and  C_3
REMARK    3  A    between atoms: C_5  and  C_6
REMARK    4  A    between atoms: C_8  and  C_9
REMARK    5  A    between atoms: N_12  and  C_13
REMARK    6  A    between atoms: C_16  and  O_17
REMARK    7  A    between atoms: O_17  and  C_18
REMARK    8  A    between atoms: C_19  and  C_20
REMARK    9  A    between atoms: C_20  and  N_21
REMARK   10  A    between atoms: C_23  and  O_24
REMARK                            x       y       z     vdW  Elec       q    Type
REMARK                         _______ _______ _______ _____ _____    ______ ____
ROOT
ATOM      1  C   UNL     1       1.388   9.462  19.122  0.00  0.00    +0.000 A 
ATOM      2  C   UNL     1       2.134   8.271  19.088  0.00  0.00    +0.000 A 
ATOM      3  C   UNL     1       1.915   7.276  20.053  0.00  0.00    +0.000 A 
ATOM      4  C   UNL     1       1.072   7.543  21.135  0.00  0.00    +0.000 A 
ATOM      5  C   UNL     1       0.331   8.727  21.186  0.00  0.00    +0.000 A 
ATOM      6  C   UNL     1       0.453   9.697  20.162  0.00  0.00    +0.000 A 
ENDROOT
BRANCH   3   7
ATOM      7  C   UNL     1       2.346   5.900  19.833  0.00  0.00    +0.000 A 
ATOM      8  C   UNL     1       2.989   5.479  18.582  0.00  0.00    +0.000 A 
ATOM      9  C   UNL     1       3.354   4.210  18.352  0.00  0.00    +0.000 A 
ATOM     10  C   UNL     1       4.004   3.735  17.087  0.00  0.00    +0.000 C 
ATOM     11  C   UNL     1       3.102   3.179  19.409  0.00  0.00    +0.000 A 
ATOM     12  O   UNL     1       3.436   2.008  19.217  0.00  0.00    +0.000 OA
ATOM     13  N   UNL     1       2.476   3.631  20.577  0.00  0.00    +0.000 N 
ATOM     14  C   UNL     1       2.187   2.686  21.635  0.00  0.00    +0.000 C 
ATOM     15  C   UNL     1       2.115   4.967  20.757  0.00  0.00    +0.000 A 
ENDBRANCH   3   7
BRANCH   1  17
ATOM     16  C   UNL     1       2.272  11.092  17.644  0.00  0.00    +0.000 C 
ATOM     17  O   UNL     1       1.266  10.125  17.924  0.00  0.00    +0.000 OA
ENDBRANCH   1  17
BRANCH   5  18
ATOM     18  O   UNL     1      -0.637   8.941  22.144  0.00  0.00    +0.000 OA
ATOM     19  C   UNL     1      -0.218   9.563  23.360  0.00  0.00    +0.000 C 
ENDBRANCH   5  18
BRANCH   6  20
ATOM     20  C   UNL     1      -0.668  10.720  19.975  0.00  0.00    +0.000 C 
BRANCH  20  21
ATOM     21  N   UNL     1      -0.656  12.033  20.651  0.00  0.00    +0.000 NA
ATOM     22  C   UNL     1      -1.653  13.041  20.209  0.00  0.00    +0.000 C 
ATOM     23  C   UNL     1      -0.683  13.543  19.119  0.00  0.00    +0.000 C 
ATOM     24  C   UNL     1       0.405  12.847  19.970  0.00  0.00    +0.000 C 
BRANCH  23  25
ATOM     25  O   UNL     1      -0.890  13.068  17.772  0.00  0.00    +0.000 OA
ATOM     26  H   UNL     1      -1.859  13.094  17.663  0.00  0.00    +0.000 HD
ENDBRANCH  23  25
ENDBRANCH  20  21
ENDBRANCH   6  20
TORSDOF 6
ENDMDL
MODEL 7
REMARK VINA RESULT:      -6.7      1.440      2.424
REMARK  Name = 
REMARK  10 active torsions:
REMARK  status: ('A' for Active; 'I' for Inactive)
REMARK    1  A    between atoms: C_1  and  O_2
REMARK    2  A    between atoms: O_2  and  C_3
REMARK    3  A    between atoms: C_5  and  C_6
REMARK    4  A    between atoms: C_8  and  C_9
REMARK    5  A    between atoms: N_12  and  C_13
REMARK    6  A    between atoms: C_16  and  O_17
REMARK    7  A    between atoms: O_17  and  C_18
REMARK    8  A    between atoms: C_19  and  C_20
REMARK    9  A    between atoms: C_20  and  N_21
REMARK   10  A    between atoms: C_23  and  O_24
REMARK                            x       y       z     vdW  Elec       q    Type
REMARK                         _______ _______ _______ _____ _____    ______ ____
ROOT
ATOM      1  C   UNL     1       0.921   9.859  18.842  0.00  0.00    +0.000 A 
ATOM      2  C   UNL     1       1.596   8.638  18.673  0.00  0.00    +0.000 A 
ATOM      3  C   UNL     1       1.918   7.852  19.790  0.00  0.00    +0.000 A 
ATOM      4  C   UNL     1       1.709   8.363  21.073  0.00  0.00    +0.000 A 
ATOM      5  C   UNL     1       1.048   9.581  21.256  0.00  0.00    +0.000 A 
ATOM      6  C   UNL     1       0.613  10.339  20.141  0.00  0.00    +0.000 A 
ENDROOT
BRANCH   3   7
ATOM      7  C   UNL     1       2.234   6.434  19.652  0.00  0.00    +0.000 A 
ATOM      8  C   UNL     1       2.852   5.891  18.435  0.00  0.00    +0.000 A 
ATOM      9  C   UNL     1       3.111   4.586  18.280  0.00  0.00    +0.000 A 
ATOM     10  C   UNL     1       3.731   3.988  17.053  0.00  0.00    +0.000 C 
ATOM     11  C   UNL     1       2.763   3.640  19.389  0.00  0.00    +0.000 A 
ATOM     12  O   UNL     1       3.000   2.437  19.267  0.00  0.00    +0.000 OA
ATOM     13  N   UNL     1       2.166   4.208  20.521  0.00  0.00    +0.000 N 
ATOM     14  C   UNL     1       1.788   3.351  21.626  0.00  0.00    +0.000 C 
ATOM     15  C   UNL     1       1.917   5.577  20.622  0.00  0.00    +0.000 A 
ENDBRANCH   3   7
BRANCH   1  17
ATOM     16  C   UNL     1      -1.046   9.644  17.535  0.00  0.00    +0.000 C 
ATOM     17  O   UNL     1       0.199  10.298  17.758  0.00  0.00    +0.000 OA
ENDBRANCH   1  17
BRANCH   5  18
ATOM     18  O   UNL     1       0.672  10.027  22.505  0.00  0.00    +0.000 OA
ATOM     19  C   UNL     1      -0.420   9.351  23.132  0.00  0.00    +0.000 C 
ENDBRANCH   5  18
BRANCH   6  20
ATOM     20  C   UNL     1      -0.491  11.378  20.339  0.00  0.00    +0.000 C 
BRANCH  20  21
ATOM     21  N   UNL     1      -0.194  12.798  20.618  0.00  0.00    +0.000 NA
ATOM     22  C   UNL     1      -1.140  13.813  20.089  0.00  0.00    +0.000 C 
ATOM     23  C   UNL     1      -0.362  13.866  18.758  0.00  0.00    +0.000 C 
ATOM     24  C   UNL     1       0.791  13.235  19.573  0.00  0.00    +0.000 C 
BRANCH  23  25
ATOM     25  O   UNL     1      -0.890  13.113  17.646  0.00  0.00    +0.000 OA
ATOM     26  H   UNL     1      -0.571  12.205  17.809  0.00  0.00    +0.000 HD
ENDBRANCH  23  25
ENDBRANCH  20  21
ENDBRANCH   6  20
TORSDOF 6
ENDMDL
MODEL 8
REMARK VINA RESULT:      -6.6      1.906      3.344
REMARK  Name = 
REMARK  10 active torsions:
REMARK  status: ('A' for Active; 'I' for Inactive)
REMARK    1  A    between atoms: C_1  and  O_2
REMARK    2  A    between atoms: O_2  and  C_3
REMARK    3  A    between atoms: C_5  and  C_6
REMARK    4  A    between atoms: C_8  and  C_9
REMARK    5  A    between atoms: N_12  and  C_13
REMARK    6  A    between atoms: C_16  and  O_17
REMARK    7  A    between atoms: O_17  and  C_18
REMARK    8  A    between atoms: C_19  and  C_20
REMARK    9  A    between atoms: C_20  and  N_21
REMARK   10  A    between atoms: C_23  and  O_24
REMARK                            x       y       z     vdW  Elec       q    Type
REMARK                         _______ _______ _______ _____ _____    ______ ____
ROOT
ATOM      1  C   UNL     1       0.830   9.673  21.204  0.00  0.00    +0.000 A 
ATOM      2  C   UNL     1       1.248   8.449  20.654  0.00  0.00    +0.000 A 
ATOM      3  C   UNL     1       1.703   8.393  19.328  0.00  0.00    +0.000 A 
ATOM      4  C   UNL     1       1.588   9.522  18.514  0.00  0.00    +0.000 A 
ATOM      5  C   UNL     1       1.166  10.744  19.045  0.00  0.00    +0.000 A 
ATOM      6  C   UNL     1       0.807  10.849  20.411  0.00  0.00    +0.000 A 
ENDROOT
BRANCH   3   7
ATOM      7  C   UNL     1       2.511   7.275  18.852  0.00  0.00    +0.000 A 
ATOM      8  C   UNL     1       2.494   5.966  19.519  0.00  0.00    +0.000 A 
ATOM      9  C   UNL     1       3.260   4.943  19.115  0.00  0.00    +0.000 A 
ATOM     10  C   UNL     1       3.282   3.595  19.772  0.00  0.00    +0.000 C 
ATOM     11  C   UNL     1       4.166   5.135  17.938  0.00  0.00    +0.000 A 
ATOM     12  O   UNL     1       4.873   4.203  17.549  0.00  0.00    +0.000 OA
ATOM     13  N   UNL     1       4.151   6.404  17.347  0.00  0.00    +0.000 N 
ATOM     14  C   UNL     1       5.014   6.665  16.213  0.00  0.00    +0.000 C 
ATOM     15  C   UNL     1       3.334   7.433  17.816  0.00  0.00    +0.000 A 
ENDBRANCH   3   7
BRANCH   1  17
ATOM     16  C   UNL     1      -0.314   9.525  23.276  0.00  0.00    +0.000 C 
ATOM     17  O   UNL     1       0.901   9.768  22.573  0.00  0.00    +0.000 OA
ENDBRANCH   1  17
BRANCH   5  18
ATOM     18  O   UNL     1       1.209  11.912  18.315  0.00  0.00    +0.000 OA
ATOM     19  C   UNL     1       2.500  12.468  18.059  0.00  0.00    +0.000 C 
ENDBRANCH   5  18
BRANCH   6  20
ATOM     20  C   UNL     1       0.816  12.227  21.074  0.00  0.00    +0.000 C 
BRANCH  20  21
ATOM     21  N   UNL     1      -0.389  12.804  21.705  0.00  0.00    +0.000 NA
ATOM     22  C   UNL     1      -1.699  12.524  21.065  0.00  0.00    +0.000 C 
ATOM     23  C   UNL     1      -1.533  13.755  20.151  0.00  0.00    +0.000 C 
ATOM     24  C   UNL     1      -0.494  14.214  21.201  0.00  0.00    +0.000 C 
BRANCH  23  25
ATOM     25  O   UNL     1      -1.071  13.529  18.802  0.00  0.00    +0.000 OA
ATOM     26  H   UNL     1      -0.103  13.633  18.868  0.00  0.00    +0.000 HD
ENDBRANCH  23  25
ENDBRANCH  20  21
ENDBRANCH   6  20
TORSDOF 6
ENDMDL
MODEL 9
REMARK VINA RESULT:      -6.6      1.962      7.798
REMARK  Name = 
REMARK  10 active torsions:
REMARK  status: ('A' for Active; 'I' for Inactive)
REMARK    1  A    between atoms: C_1  and  O_2
REMARK    2  A    between atoms: O_2  and  C_3
REMARK    3  A    between atoms: C_5  and  C_6
REMARK    4  A    between atoms: C_8  and  C_9
REMARK    5  A    between atoms: N_12  and  C_13
REMARK    6  A    between atoms: C_16  and  O_17
REMARK    7  A    between atoms: O_17  and  C_18
REMARK    8  A    between atoms: C_19  and  C_20
REMARK    9  A    between atoms: C_20  and  N_21
REMARK   10  A    between atoms: C_23  and  O_24
REMARK                            x       y       z     vdW  Elec       q    Type
REMARK                         _______ _______ _______ _____ _____    ______ ____
ROOT
ATOM      1  C   UNL     1       1.983   5.413  19.907  0.00  0.00    +0.000 A 
ATOM      2  C   UNL     1       1.544   6.595  20.527  0.00  0.00    +0.000 A 
ATOM      3  C   UNL     1       1.822   7.840  19.943  0.00  0.00    +0.000 A 
ATOM      4  C   UNL     1       2.671   7.905  18.835  0.00  0.00    +0.000 A 
ATOM      5  C   UNL     1       3.123   6.737  18.214  0.00  0.00    +0.000 A 
ATOM      6  C   UNL     1       2.761   5.466  18.723  0.00  0.00    +0.000 A 
ENDROOT
BRANCH   3   7
ATOM      7  C   UNL     1       1.064   9.032  20.305  0.00  0.00    +0.000 A 
ATOM      8  C   UNL     1       0.398   9.163  21.609  0.00  0.00    +0.000 A 
ATOM      9  C   UNL     1      -0.334  10.236  21.939  0.00  0.00    +0.000 A 
ATOM     10  C   UNL     1      -1.037  10.406  23.252  0.00  0.00    +0.000 C 
ATOM     11  C   UNL     1      -0.480  11.348  20.946  0.00  0.00    +0.000 A 
ATOM     12  O   UNL     1      -1.144  12.346  21.235  0.00  0.00    +0.000 OA
ATOM     13  N   UNL     1       0.165  11.168  19.717  0.00  0.00    +0.000 N 
ATOM     14  C   UNL     1       0.054  12.197  18.703  0.00  0.00    +0.000 C 
ATOM     15  C   UNL     1       0.911  10.025  19.429  0.00  0.00    +0.000 A 
ENDBRANCH   3   7
BRANCH   1  17
ATOM     16  C   UNL     1       1.647   3.609  21.410  0.00  0.00    +0.000 C 
ATOM     17  O   UNL     1       1.270   4.278  20.211  0.00  0.00    +0.000 OA
ENDBRANCH   1  17
BRANCH   5  18
ATOM     18  O   UNL     1       3.813   6.765  17.022  0.00  0.00    +0.000 OA
ATOM     19  C   UNL     1       5.236   6.859  17.100  0.00  0.00    +0.000 C 
ENDBRANCH   5  18
BRANCH   6  20
ATOM     20  C   UNL     1       2.846   4.249  17.800  0.00  0.00    +0.000 C 
BRANCH  20  21
ATOM     21  N   UNL     1       4.036   3.374  17.760  0.00  0.00    +0.000 NA
ATOM     22  C   UNL     1       3.851   1.989  17.259  0.00  0.00    +0.000 C 
ATOM     23  C   UNL     1       3.489   1.508  18.680  0.00  0.00    +0.000 C 
ATOM     24  C   UNL     1       4.188   2.808  19.141  0.00  0.00    +0.000 C 
BRANCH  23  25
ATOM     25  O   UNL     1       2.090   1.348  18.994  0.00  0.00    +0.000 OA
ATOM     26  H   UNL     1       2.043   1.545  19.949  0.00  0.00    +0.000 HD
ENDBRANCH  23  25
ENDBRANCH  20  21
ENDBRANCH   6  20
TORSDOF 6
ENDMDL
