MODEL 1
REMARK VINA RESULT:      -7.5      0.000      0.000
REMARK  Name = 
REMARK  8 active torsions:
REMARK  status: ('A' for Active; 'I' for Inactive)
REMARK    1  A    between atoms: C_1  and  C_2
REMARK    2  A    between atoms: C_2  and  C_3
REMARK    3  A    between atoms: C_2  and  C_4
REMARK    4  A    between atoms: C_4  and  C_5
REMARK    5  A    between atoms: C_5  and  N_6
REMARK    6  A    between atoms: C_8  and  C_9
REMARK    7  A    between atoms: N_11  and  C_12
REMARK    8  A    between atoms: C_12  and  C_13
REMARK                            x       y       z     vdW  Elec       q    Type
REMARK                         _______ _______ _______ _____ _____    ______ ____
ROOT
ATOM      1  N   UNL     1       5.909   4.468  14.964  0.00  0.00    +0.000 N 
ATOM      2  C   UNL     1       5.272   3.833  16.092  0.00  0.00    +0.000 C 
ATOM      3  C   UNL     1       6.039   4.365  17.289  0.00  0.00    +0.000 C 
ATOM      4  C   UNL     1       7.424   4.677  16.718  0.00  0.00    +0.000 C 
ATOM      5  C   UNL     1       7.158   4.968  15.269  0.00  0.00    +0.000 C 
ATOM      6  O   UNL     1       7.950   5.506  14.515  0.00  0.00    +0.000 OA
ENDROOT
BRANCH   3   7
ATOM      7  C   UNL     1       5.394   5.583  17.924  0.00  0.00    +0.000 C 
ATOM      8  O   UNL     1       5.331   6.684  17.378  0.00  0.00    +0.000 OA
ATOM      9  N   UNL     1       4.813   5.428  19.151  0.00  0.00    +0.000 N 
ATOM     10  H   UNL     1       4.364   6.264  19.498  0.00  0.00    +0.000 HD
BRANCH   9  11
ATOM     11  C   UNL     1       4.590   4.194  19.879  0.00  0.00    +0.000 C 
BRANCH  11  12
ATOM     12  C   UNL     1       3.192   3.703  19.673  0.00  0.00    +0.000 A 
ATOM     13  C   UNL     1       2.123   4.283  20.375  0.00  0.00    +0.000 A 
ATOM     14  C   UNL     1       0.829   3.802  20.199  0.00  0.00    +0.000 A 
ATOM     15  C   UNL     1       0.597   2.741  19.324  0.00  0.00    +0.000 A 
ATOM     16  C   UNL     1       1.653   2.164  18.622  0.00  0.00    +0.000 A 
ATOM     17  C   UNL     1       2.947   2.641  18.798  0.00  0.00    +0.000 A 
ENDBRANCH  11  12
ENDBRANCH   9  11
ENDBRANCH   3   7
BRANCH   1  18
ATOM     18  C   UNL     1       5.375   4.403  13.620  0.00  0.00    +0.000 C 
BRANCH  18  19
ATOM     19  C   UNL     1       6.200   3.510  12.696  0.00  0.00    +0.000 C 
BRANCH  19  21
ATOM     20  C   UNL     1       4.246   3.061  11.127  0.00  0.00    +0.000 C 
ATOM     21  C   UNL     1       5.376   2.443  11.949  0.00  0.00    +0.000 C 
ATOM     22  C   UNL     1       6.293   1.616  11.048  0.00  0.00    +0.000 C 
ENDBRANCH  19  21
ENDBRANCH  18  19
ENDBRANCH   1  18
TORSDOF 6
ENDMDL
MODEL 2
REMARK VINA RESULT:      -7.5      1.429      1.866
REMARK  Name = 
REMARK  8 active torsions:
REMARK  status: ('A' for Active; 'I' for Inactive)
REMARK    1  A    between atoms: C_1  and  C_2
REMARK    2  A    between atoms: C_2  and  C_3
REMARK    3  A    between atoms: C_2  and  C_4
REMARK    4  A    between atoms: C_4  and  C_5
REMARK    5  A    between atoms: C_5  and  N_6
REMARK    6  A    between atoms: C_8  and  C_9
REMARK    7  A    between atoms: N_11  and  C_12
REMARK    8  A    between atoms: C_12  and  C_13
REMARK                            x       y       z     vdW  Elec       q    Type
REMARK                         _______ _______ _______ _____ _____    ______ ____
ROOT
ATOM      1  N   UNL     1       5.992   4.640  16.252  0.00  0.00    +0.000 N 
ATOM      2  C   UNL     1       5.072   4.412  17.340  0.00  0.00    +0.000 C 
ATOM      3  C   UNL     1       5.075   5.727  18.098  0.00  0.00    +0.000 C 
ATOM      4  C   UNL     1       6.461   6.307  17.806  0.00  0.00    +0.000 C 
ATOM      5  C   UNL     1       6.822   5.720  16.473  0.00  0.00    +0.000 C 
ATOM      6  O   UNL     1       7.728   6.121  15.763  0.00  0.00    +0.000 OA
ENDROOT
BRANCH   3   7
ATOM      7  C   UNL     1       3.960   6.667  17.677  0.00  0.00    +0.000 C 
ATOM      8  O   UNL     1       3.883   7.175  16.560  0.00  0.00    +0.000 OA
ATOM      9  N   UNL     1       2.966   6.920  18.581  0.00  0.00    +0.000 N 
ATOM     10  H   UNL     1       2.234   7.517  18.225  0.00  0.00    +0.000 HD
BRANCH   9  11
ATOM     11  C   UNL     1       2.748   6.280  19.864  0.00  0.00    +0.000 C 
BRANCH  11  12
ATOM     12  C   UNL     1       2.096   4.946  19.684  0.00  0.00    +0.000 A 
ATOM     13  C   UNL     1       1.626   4.546  18.423  0.00  0.00    +0.000 A 
ATOM     14  C   UNL     1       0.995   3.315  18.270  0.00  0.00    +0.000 A 
ATOM     15  C   UNL     1       0.831   2.479  19.374  0.00  0.00    +0.000 A 
ATOM     16  C   UNL     1       1.298   2.868  20.627  0.00  0.00    +0.000 A 
ATOM     17  C   UNL     1       1.926   4.098  20.783  0.00  0.00    +0.000 A 
ENDBRANCH  11  12
ENDBRANCH   9  11
ENDBRANCH   3   7
BRANCH   1  18
ATOM     18  C   UNL     1       6.153   3.713  15.152  0.00  0.00    +0.000 C 
BRANCH  18  19
ATOM     19  C   UNL     1       5.459   4.181  13.874  0.00  0.00    +0.000 C 
BRANCH  19  21
ATOM     20  C   UNL     1       4.635   3.264  11.647  0.00  0.00    +0.000 C 
ATOM     21  C   UNL     1       5.805   3.347  12.626  0.00  0.00    +0.000 C 
ATOM     22  C   UNL     1       7.034   3.934  11.932  0.00  0.00    +0.000 C 
ENDBRANCH  19  21
ENDBRANCH  18  19
ENDBRANCH   1  18
TORSDOF 6
ENDMDL
MODEL 3
REMARK VINA RESULT:      -7.5      1.357      1.647
REMARK  Name = 
REMARK  8 active torsions:
REMARK  status: ('A' for Active; 'I' for Inactive)
REMARK    1  A    between atoms: C_1  and  C_2
REMARK    2  A    between atoms: C_2  and  C_3
REMARK    3  A    between atoms: C_2  and  C_4
REMARK    4  A    between atoms: C_4  and  C_5
REMARK    5  A    between atoms: C_5  and  N_6
REMARK    6  A    between atoms: C_8  and  C_9
REMARK    7  A    between atoms: N_11  and  C_12
REMARK    8  A    between atoms: C_12  and  C_13
REMARK                            x       y       z     vdW  Elec       q    Type
REMARK                         _______ _______ _______ _____ _____    ______ ____
ROOT
ATOM      1  N   UNL     1       6.035   4.577  16.294  0.00  0.00    +0.000 N 
ATOM      2  C   UNL     1       5.216   4.384  17.466  0.00  0.00    +0.000 C 
ATOM      3  C   UNL     1       5.284   5.722  18.179  0.00  0.00    +0.000 C 
ATOM      4  C   UNL     1       6.637   6.291  17.747  0.00  0.00    +0.000 C 
ATOM      5  C   UNL     1       6.880   5.662  16.406  0.00  0.00    +0.000 C 
ATOM      6  O   UNL     1       7.718   6.040  15.607  0.00  0.00    +0.000 OA
ENDROOT
BRANCH   3   7
ATOM      7  C   UNL     1       4.134   6.650  17.830  0.00  0.00    +0.000 C 
ATOM      8  O   UNL     1       4.041   7.246  16.758  0.00  0.00    +0.000 OA
ATOM      9  N   UNL     1       3.128   6.788  18.745  0.00  0.00    +0.000 N 
ATOM     10  H   UNL     1       2.374   7.383  18.433  0.00  0.00    +0.000 HD
BRANCH   9  11
ATOM     11  C   UNL     1       2.930   6.036  19.968  0.00  0.00    +0.000 C 
BRANCH  11  12
ATOM     12  C   UNL     1       2.122   4.804  19.706  0.00  0.00    +0.000 A 
ATOM     13  C   UNL     1       1.662   4.013  20.771  0.00  0.00    +0.000 A 
ATOM     14  C   UNL     1       0.936   2.854  20.518  0.00  0.00    +0.000 A 
ATOM     15  C   UNL     1       0.667   2.478  19.202  0.00  0.00    +0.000 A 
ATOM     16  C   UNL     1       1.118   3.260  18.141  0.00  0.00    +0.000 A 
ATOM     17  C   UNL     1       1.846   4.417  18.391  0.00  0.00    +0.000 A 
ENDBRANCH  11  12
ENDBRANCH   9  11
ENDBRANCH   3   7
BRANCH   1  18
ATOM     18  C   UNL     1       6.100   3.616  15.214  0.00  0.00    +0.000 C 
BRANCH  18  19
ATOM     19  C   UNL     1       5.428   4.113  13.936  0.00  0.00    +0.000 C 
BRANCH  19  21
ATOM     20  C   UNL     1       4.715   3.220  11.660  0.00  0.00    +0.000 C 
ATOM     21  C   UNL     1       5.861   3.363  12.662  0.00  0.00    +0.000 C 
ATOM     22  C   UNL     1       7.044   4.081  12.011  0.00  0.00    +0.000 C 
ENDBRANCH  19  21
ENDBRANCH  18  19
ENDBRANCH   1  18
TORSDOF 6
ENDMDL
MODEL 4
REMARK VINA RESULT:      -7.4      1.000      1.037
REMARK  Name = 
REMARK  8 active torsions:
REMARK  status: ('A' for Active; 'I' for Inactive)
REMARK    1  A    between atoms: C_1  and  C_2
REMARK    2  A    between atoms: C_2  and  C_3
REMARK    3  A    between atoms: C_2  and  C_4
REMARK    4  A    between atoms: C_4  and  C_5
REMARK    5  A    between atoms: C_5  and  N_6
REMARK    6  A    between atoms: C_8  and  C_9
REMARK    7  A    between atoms: N_11  and  C_12
REMARK    8  A    between atoms: C_12  and  C_13
REMARK                            x       y       z     vdW  Elec       q    Type
REMARK                         _______ _______ _______ _____ _____    ______ ____
ROOT
ATOM      1  N   UNL     1       6.282   4.200  15.003  0.00  0.00    +0.000 N 
ATOM      2  C   UNL     1       5.625   3.904  16.254  0.00  0.00    +0.000 C 
ATOM      3  C   UNL     1       5.907   5.126  17.109  0.00  0.00    +0.000 C 
ATOM      4  C   UNL     1       7.228   5.658  16.550  0.00  0.00    +0.000 C 
ATOM      5  C   UNL     1       7.223   5.203  15.120  0.00  0.00    +0.000 C 
ATOM      6  O   UNL     1       7.968   5.630  14.255  0.00  0.00    +0.000 OA
ENDROOT
BRANCH   3   7
ATOM      7  C   UNL     1       4.802   6.165  17.058  0.00  0.00    +0.000 C 
ATOM      8  O   UNL     1       4.528   6.818  16.052  0.00  0.00    +0.000 OA
ATOM      9  N   UNL     1       4.045   6.345  18.181  0.00  0.00    +0.000 N 
ATOM     10  H   UNL     1       3.301   7.018  18.068  0.00  0.00    +0.000 HD
BRANCH   9  11
ATOM     11  C   UNL     1       4.056   5.553  19.396  0.00  0.00    +0.000 C 
BRANCH  11  12
ATOM     12  C   UNL     1       2.864   4.651  19.450  0.00  0.00    +0.000 A 
ATOM     13  C   UNL     1       2.284   4.309  20.682  0.00  0.00    +0.000 A 
ATOM     14  C   UNL     1       1.193   3.447  20.726  0.00  0.00    +0.000 A 
ATOM     15  C   UNL     1       0.676   2.923  19.541  0.00  0.00    +0.000 A 
ATOM     16  C   UNL     1       1.243   3.262  18.315  0.00  0.00    +0.000 A 
ATOM     17  C   UNL     1       2.336   4.121  18.269  0.00  0.00    +0.000 A 
ENDBRANCH  11  12
ENDBRANCH   9  11
ENDBRANCH   3   7
BRANCH   1  18
ATOM     18  C   UNL     1       6.110   3.392  13.814  0.00  0.00    +0.000 C 
BRANCH  18  19
ATOM     19  C   UNL     1       5.166   4.029  12.796  0.00  0.00    +0.000 C 
BRANCH  19  21
ATOM     20  C   UNL     1       3.834   3.717  10.649  0.00  0.00    +0.000 C 
ATOM     21  C   UNL     1       4.510   3.023  11.831  0.00  0.00    +0.000 C 
ATOM     22  C   UNL     1       5.554   2.026  11.329  0.00  0.00    +0.000 C 
ENDBRANCH  19  21
ENDBRANCH  18  19
ENDBRANCH   1  18
TORSDOF 6
ENDMDL
MODEL 5
REMARK VINA RESULT:      -7.4      1.317      2.045
REMARK  Name = 
REMARK  8 active torsions:
REMARK  status: ('A' for Active; 'I' for Inactive)
REMARK    1  A    between atoms: C_1  and  C_2
REMARK    2  A    between atoms: C_2  and  C_3
REMARK    3  A    between atoms: C_2  and  C_4
REMARK    4  A    between atoms: C_4  and  C_5
REMARK    5  A    between atoms: C_5  and  N_6
REMARK    6  A    between atoms: C_8  and  C_9
REMARK    7  A    between atoms: N_11  and  C_12
REMARK    8  A    between atoms: C_12  and  C_13
REMARK                            x       y       z     vdW  Elec       q    Type
REMARK                         _______ _______ _______ _____ _____    ______ ____
ROOT
ATOM      1  N   UNL     1       5.860   4.211  15.598  0.00  0.00    +0.000 N 
ATOM      2  C   UNL     1       4.528   4.014  16.118  0.00  0.00    +0.000 C 
ATOM      3  C   UNL     1       4.614   4.537  17.540  0.00  0.00    +0.000 C 
ATOM      4  C   UNL     1       6.084   4.331  17.911  0.00  0.00    +0.000 C 
ATOM      5  C   UNL     1       6.799   4.393  16.592  0.00  0.00    +0.000 C 
ATOM      6  O   UNL     1       8.003   4.529  16.464  0.00  0.00    +0.000 OA
ENDROOT
BRANCH   3   7
ATOM      7  C   UNL     1       4.186   5.987  17.675  0.00  0.00    +0.000 C 
ATOM      8  O   UNL     1       4.951   6.939  17.528  0.00  0.00    +0.000 OA
ATOM      9  N   UNL     1       2.867   6.241  17.928  0.00  0.00    +0.000 N 
ATOM     10  H   UNL     1       2.640   7.224  17.962  0.00  0.00    +0.000 HD
BRANCH   9  11
ATOM     11  C   UNL     1       1.767   5.296  17.935  0.00  0.00    +0.000 C 
BRANCH  11  12
ATOM     12  C   UNL     1       1.803   4.452  19.170  0.00  0.00    +0.000 A 
ATOM     13  C   UNL     1       1.432   3.099  19.119  0.00  0.00    +0.000 A 
ATOM     14  C   UNL     1       1.441   2.328  20.277  0.00  0.00    +0.000 A 
ATOM     15  C   UNL     1       1.819   2.904  21.490  0.00  0.00    +0.000 A 
ATOM     16  C   UNL     1       2.192   4.245  21.547  0.00  0.00    +0.000 A 
ATOM     17  C   UNL     1       2.181   5.018  20.391  0.00  0.00    +0.000 A 
ENDBRANCH  11  12
ENDBRANCH   9  11
ENDBRANCH   3   7
BRANCH   1  18
ATOM     18  C   UNL     1       6.192   4.033  14.200  0.00  0.00    +0.000 C 
BRANCH  18  19
ATOM     19  C   UNL     1       5.001   3.575  13.361  0.00  0.00    +0.000 C 
BRANCH  19  21
ATOM     20  C   UNL     1       6.096   2.031  11.658  0.00  0.00    +0.000 C 
ATOM     21  C   UNL     1       5.332   3.337  11.875  0.00  0.00    +0.000 C 
ATOM     22  C   UNL     1       4.046   3.338  11.049  0.00  0.00    +0.000 C 
ENDBRANCH  19  21
ENDBRANCH  18  19
ENDBRANCH   1  18
TORSDOF 6
ENDMDL
MODEL 6
REMARK VINA RESULT:      -7.4      0.815      1.370
REMARK  Name = 
REMARK  8 active torsions:
REMARK  status: ('A' for Active; 'I' for Inactive)
REMARK    1  A    between atoms: C_1  and  C_2
REMARK    2  A    between atoms: C_2  and  C_3
REMARK    3  A    between atoms: C_2  and  C_4
REMARK    4  A    between atoms: C_4  and  C_5
REMARK    5  A    between atoms: C_5  and  N_6
REMARK    6  A    between atoms: C_8  and  C_9
REMARK    7  A    between atoms: N_11  and  C_12
REMARK    8  A    between atoms: C_12  and  C_13
REMARK                            x       y       z     vdW  Elec       q    Type
REMARK                         _______ _______ _______ _____ _____    ______ ____
ROOT
ATOM      1  N   UNL     1       6.336   4.264  14.706  0.00  0.00    +0.000 N 
ATOM      2  C   UNL     1       5.602   3.828  15.870  0.00  0.00    +0.000 C 
ATOM      3  C   UNL     1       5.934   4.872  16.920  0.00  0.00    +0.000 C 
ATOM      4  C   UNL     1       7.316   5.378  16.499  0.00  0.00    +0.000 C 
ATOM      5  C   UNL     1       7.343   5.157  15.015  0.00  0.00    +0.000 C 
ATOM      6  O   UNL     1       8.156   5.654  14.256  0.00  0.00    +0.000 OA
ENDROOT
BRANCH   3   7
ATOM      7  C   UNL     1       4.913   5.992  16.999  0.00  0.00    +0.000 C 
ATOM      8  O   UNL     1       4.639   6.733  16.056  0.00  0.00    +0.000 OA
ATOM      9  N   UNL     1       4.232   6.150  18.174  0.00  0.00    +0.000 N 
ATOM     10  H   UNL     1       3.537   6.883  18.147  0.00  0.00    +0.000 HD
BRANCH   9  11
ATOM     11  C   UNL     1       4.244   5.277  19.332  0.00  0.00    +0.000 C 
BRANCH  11  12
ATOM     12  C   UNL     1       3.047   4.379  19.329  0.00  0.00    +0.000 A 
ATOM     13  C   UNL     1       2.937   3.341  18.391  0.00  0.00    +0.000 A 
ATOM     14  C   UNL     1       1.808   2.528  18.377  0.00  0.00    +0.000 A 
ATOM     15  C   UNL     1       0.785   2.748  19.298  0.00  0.00    +0.000 A 
ATOM     16  C   UNL     1       0.890   3.774  20.235  0.00  0.00    +0.000 A 
ATOM     17  C   UNL     1       2.015   4.589  20.249  0.00  0.00    +0.000 A 
ENDBRANCH  11  12
ENDBRANCH   9  11
ENDBRANCH   3   7
BRANCH   1  18
ATOM     18  C   UNL     1       6.160   3.671  13.397  0.00  0.00    +0.000 C 
BRANCH  18  19
ATOM     19  C   UNL     1       4.740   3.832  12.860  0.00  0.00    +0.000 C 
BRANCH  19  21
ATOM     20  C   UNL     1       3.831   3.644  10.488  0.00  0.00    +0.000 C 
ATOM     21  C   UNL     1       4.398   2.889  11.690  0.00  0.00    +0.000 C 
ATOM     22  C   UNL     1       5.641   2.099  11.279  0.00  0.00    +0.000 C 
ENDBRANCH  19  21
ENDBRANCH  18  19
ENDBRANCH   1  18
TORSDOF 6
ENDMDL
MODEL 7
REMARK VINA RESULT:      -7.4      1.143      1.794
REMARK  Name = 
REMARK  8 active torsions:
REMARK  status: ('A' for Active; 'I' for Inactive)
REMARK    1  A    between atoms: C_1  and  C_2
REMARK    2  A    between atoms: C_2  and  C_3
REMARK    3  A    between atoms: C_2  and  C_4
REMARK    4  A    between atoms: C_4  and  C_5
REMARK    5  A    between atoms: C_5  and  N_6
REMARK    6  A    between atoms: C_8  and  C_9
REMARK    7  A    between atoms: N_11  and  C_12
REMARK    8  A    between atoms: C_12  and  C_13
REMARK                            x       y       z     vdW  Elec       q    Type
REMARK                         _______ _______ _______ _____ _____    ______ ____
ROOT
ATOM      1  N   UNL     1       6.267   4.149  14.937  0.00  0.00    +0.000 N 
ATOM      2  C   UNL     1       5.486   3.551  15.993  0.00  0.00    +0.000 C 
ATOM      3  C   UNL     1       5.556   4.569  17.117  0.00  0.00    +0.000 C 
ATOM      4  C   UNL     1       6.888   5.282  16.873  0.00  0.00    +0.000 C 
ATOM      5  C   UNL     1       7.099   5.152  15.393  0.00  0.00    +0.000 C 
ATOM      6  O   UNL     1       7.908   5.798  14.750  0.00  0.00    +0.000 OA
ENDROOT
BRANCH   3   7
ATOM      7  C   UNL     1       4.384   5.533  17.130  0.00  0.00    +0.000 C 
ATOM      8  O   UNL     1       4.482   6.729  16.861  0.00  0.00    +0.000 OA
ATOM      9  N   UNL     1       3.146   5.025  17.414  0.00  0.00    +0.000 N 
ATOM     10  H   UNL     1       2.405   5.709  17.363  0.00  0.00    +0.000 HD
BRANCH   9  11
ATOM     11  C   UNL     1       2.769   3.633  17.558  0.00  0.00    +0.000 C 
BRANCH  11  12
ATOM     12  C   UNL     1       2.468   3.312  18.988  0.00  0.00    +0.000 A 
ATOM     13  C   UNL     1       3.475   2.827  19.838  0.00  0.00    +0.000 A 
ATOM     14  C   UNL     1       3.180   2.504  21.158  0.00  0.00    +0.000 A 
ATOM     15  C   UNL     1       1.879   2.664  21.636  0.00  0.00    +0.000 A 
ATOM     16  C   UNL     1       0.876   3.149  20.800  0.00  0.00    +0.000 A 
ATOM     17  C   UNL     1       1.168   3.469  19.479  0.00  0.00    +0.000 A 
ENDBRANCH  11  12
ENDBRANCH   9  11
ENDBRANCH   3   7
BRANCH   1  18
ATOM     18  C   UNL     1       6.313   3.614  13.593  0.00  0.00    +0.000 C 
BRANCH  18  19
ATOM     19  C   UNL     1       5.004   3.810  12.831  0.00  0.00    +0.000 C 
BRANCH  19  21
ATOM     20  C   UNL     1       5.657   1.812  11.395  0.00  0.00    +0.000 C 
ATOM     21  C   UNL     1       4.996   3.190  11.421  0.00  0.00    +0.000 C 
ATOM     22  C   UNL     1       3.561   3.096  10.902  0.00  0.00    +0.000 C 
ENDBRANCH  19  21
ENDBRANCH  18  19
ENDBRANCH   1  18
TORSDOF 6
ENDMDL
MODEL 8
REMARK VINA RESULT:      -7.4      1.853      7.083
REMARK  Name = 
REMARK  8 active torsions:
REMARK  status: ('A' for Active; 'I' for Inactive)
REMARK    1  A    between atoms: C_1  and  C_2
REMARK    2  A    between atoms: C_2  and  C_3
REMARK    3  A    between atoms: C_2  and  C_4
REMARK    4  A    between atoms: C_4  and  C_5
REMARK    5  A    between atoms: C_5  and  N_6
REMARK    6  A    between atoms: C_8  and  C_9
REMARK    7  A    between atoms: N_11  and  C_12
REMARK    8  A    between atoms: C_12  and  C_13
REMARK                            x       y       z     vdW  Elec       q    Type
REMARK                         _______ _______ _______ _____ _____    ______ ____
ROOT
ATOM      1  N   UNL     1       2.804   5.000  18.889  0.00  0.00    +0.000 N 
ATOM      2  C   UNL     1       4.217   5.177  19.125  0.00  0.00    +0.000 C 
ATOM      3  C   UNL     1       4.840   4.976  17.755  0.00  0.00    +0.000 C 
ATOM      4  C   UNL     1       3.854   4.046  17.045  0.00  0.00    +0.000 C 
ATOM      5  C   UNL     1       2.539   4.347  17.704  0.00  0.00    +0.000 C 
ATOM      6  O   UNL     1       1.453   4.011  17.264  0.00  0.00    +0.000 OA
ENDROOT
BRANCH   3   7
ATOM      7  C   UNL     1       5.055   6.273  16.995  0.00  0.00    +0.000 C 
ATOM      8  O   UNL     1       4.409   7.299  17.203  0.00  0.00    +0.000 OA
ATOM      9  N   UNL     1       6.053   6.306  16.063  0.00  0.00    +0.000 N 
ATOM     10  H   UNL     1       6.173   7.208  15.625  0.00  0.00    +0.000 HD
BRANCH   9  11
ATOM     11  C   UNL     1       7.058   5.294  15.801  0.00  0.00    +0.000 C 
BRANCH  11  12
ATOM     12  C   UNL     1       6.942   4.784  14.399  0.00  0.00    +0.000 A 
ATOM     13  C   UNL     1       7.754   5.308  13.381  0.00  0.00    +0.000 A 
ATOM     14  C   UNL     1       7.620   4.849  12.074  0.00  0.00    +0.000 A 
ATOM     15  C   UNL     1       6.677   3.865  11.779  0.00  0.00    +0.000 A 
ATOM     16  C   UNL     1       5.872   3.338  12.785  0.00  0.00    +0.000 A 
ATOM     17  C   UNL     1       6.001   3.797  14.091  0.00  0.00    +0.000 A 
ENDBRANCH  11  12
ENDBRANCH   9  11
ENDBRANCH   3   7
BRANCH   1  18
ATOM     18  C   UNL     1       1.798   5.298  19.887  0.00  0.00    +0.000 C 
BRANCH  18  19
ATOM     19  C   UNL     1       2.146   4.740  21.266  0.00  0.00    +0.000 C 
BRANCH  19  21
ATOM     20  C   UNL     1       0.743   2.777  20.454  0.00  0.00    +0.000 C 
ATOM     21  C   UNL     1       1.803   3.249  21.448  0.00  0.00    +0.000 C 
ATOM     22  C   UNL     1       3.070   2.404  21.310  0.00  0.00    +0.000 C 
ENDBRANCH  19  21
ENDBRANCH  18  19
ENDBRANCH   1  18
TORSDOF 6
ENDMDL
MODEL 9
REMARK VINA RESULT:      -7.4      1.842      7.059
REMARK  Name = 
REMARK  8 active torsions:
REMARK  status: ('A' for Active; 'I' for Inactive)
REMARK    1  A    between atoms: C_1  and  C_2
REMARK    2  A    between atoms: C_2  and  C_3
REMARK    3  A    between atoms: C_2  and  C_4
REMARK    4  A    between atoms: C_4  and  C_5
REMARK    5  A    between atoms: C_5  and  N_6
REMARK    6  A    between atoms: C_8  and  C_9
REMARK    7  A    between atoms: N_11  and  C_12
REMARK    8  A    between atoms: C_12  and  C_13
REMARK                            x       y       z     vdW  Elec       q    Type
REMARK                         _______ _______ _______ _____ _____    ______ ____
ROOT
ATOM      1  N   UNL     1       2.854   5.052  18.915  0.00  0.00    +0.000 N 
ATOM      2  C   UNL     1       4.264   5.255  19.148  0.00  0.00    +0.000 C 
ATOM      3  C   UNL     1       4.891   5.038  17.782  0.00  0.00    +0.000 C 
ATOM      4  C   UNL     1       3.919   4.081  17.089  0.00  0.00    +0.000 C 
ATOM      5  C   UNL     1       2.600   4.373  17.742  0.00  0.00    +0.000 C 
ATOM      6  O   UNL     1       1.519   4.013  17.308  0.00  0.00    +0.000 OA
ENDROOT
BRANCH   3   7
ATOM      7  C   UNL     1       5.086   6.324  16.999  0.00  0.00    +0.000 C 
ATOM      8  O   UNL     1       4.453   7.356  17.215  0.00  0.00    +0.000 OA
ATOM      9  N   UNL     1       6.052   6.339  16.032  0.00  0.00    +0.000 N 
ATOM     10  H   UNL     1       6.161   7.235  15.579  0.00  0.00    +0.000 HD
BRANCH   9  11
ATOM     11  C   UNL     1       7.042   5.318  15.749  0.00  0.00    +0.000 C 
BRANCH  11  12
ATOM     12  C   UNL     1       6.877   4.793  14.358  0.00  0.00    +0.000 A 
ATOM     13  C   UNL     1       5.891   3.836  14.069  0.00  0.00    +0.000 A 
ATOM     14  C   UNL     1       5.763   3.332  12.779  0.00  0.00    +0.000 A 
ATOM     15  C   UNL     1       6.618   3.779  11.772  0.00  0.00    +0.000 A 
ATOM     16  C   UNL     1       7.596   4.732  12.051  0.00  0.00    +0.000 A 
ATOM     17  C   UNL     1       7.727   5.235  13.340  0.00  0.00    +0.000 A 
ENDBRANCH  11  12
ENDBRANCH   9  11
ENDBRANCH   3   7
BRANCH   1  18
ATOM     18  C   UNL     1       1.843   5.352  19.907  0.00  0.00    +0.000 C 
BRANCH  18  19
ATOM     19  C   UNL     1       2.170   4.772  21.282  0.00  0.00    +0.000 C 
BRANCH  19  21
ATOM     20  C   UNL     1       0.738   2.827  20.476  0.00  0.00    +0.000 C 
ATOM     21  C   UNL     1       1.850   3.272  21.425  0.00  0.00    +0.000 C 
ATOM     22  C   UNL     1       3.113   2.445  21.182  0.00  0.00    +0.000 C 
ENDBRANCH  19  21
ENDBRANCH  18  19
ENDBRANCH   1  18
TORSDOF 6
ENDMDL
