MODEL 1
REMARK VINA RESULT:      -9.8      0.000      0.000
REMARK  Name = 
REMARK  8 active torsions:
REMARK  status: ('A' for Active; 'I' for Inactive)
REMARK    1  A    between atoms: C_2  and  C_11
REMARK    2  A    between atoms: N_3  and  C_4
REMARK    3  A    between atoms: C_4  and  C_5
REMARK    4  A    between atoms: C_5  and  C_6
REMARK    5  A    between atoms: C_16  and  N_17
REMARK    6  A    between atoms: N_17  and  C_18
REMARK    7  A    between atoms: C_22  and  C_23
REMARK    8  A    between atoms: C_24  and  C_25
REMARK                            x       y       z     vdW  Elec       q    Type
REMARK                         _______ _______ _______ _____ _____    ______ ____
ROOT
ATOM      1  N   UNL     1       2.643   6.439  20.034  0.00  0.00    +0.000 N 
ATOM      2  H   UNL     1       3.601   6.641  19.740  0.00  0.00    +0.000 HD
ENDROOT
BRANCH   1   3
ATOM      3  C   UNL     1       1.878   7.631  20.040  0.00  0.00    +0.000 A 
ATOM      4  C   UNL     1       1.060   7.888  21.150  0.00  0.00    +0.000 A 
ATOM      5  C   UNL     1       0.264   9.045  21.232  0.00  0.00    +0.000 A 
ATOM      6  C   UNL     1       0.272   9.958  20.160  0.00  0.00    +0.000 A 
ATOM      7  C   UNL     1      -0.302  11.234  19.864  0.00  0.00    +0.000 A 
ATOM      8  N   UNL     1       0.017  11.638  18.623  0.00  0.00    +0.000 NA
ATOM      9  N   UNL     1       0.836  10.681  18.170  0.00  0.00    +0.000 N 
ATOM     10  C   UNL     1       1.066   9.671  19.058  0.00  0.00    +0.000 A 
ATOM     11  C   UNL     1       1.903   8.554  18.984  0.00  0.00    +0.000 A 
ATOM     12  H   UNL     1       1.218  10.782  17.237  0.00  0.00    +0.000 HD
BRANCH   7  13
ATOM     13  C   UNL     1      -1.049  12.037  20.787  0.00  0.00    +0.000 C 
ATOM     14  C   UNL     1      -0.570  12.450  21.972  0.00  0.00    +0.000 C 
BRANCH  14  15
ATOM     15  C   UNL     1      -1.351  13.156  22.991  0.00  0.00    +0.000 A 
ATOM     16  C   UNL     1      -2.653  12.743  23.273  0.00  0.00    +0.000 A 
ATOM     17  C   UNL     1      -3.397  13.456  24.209  0.00  0.00    +0.000 A 
ATOM     18  C   UNL     1      -2.824  14.555  24.833  0.00  0.00    +0.000 A 
ATOM     19  C   UNL     1      -1.526  14.898  24.495  0.00  0.00    +0.000 A 
ATOM     20  N   UNL     1      -0.779  14.225  23.594  0.00  0.00    +0.000 NA
ENDBRANCH  14  15
ENDBRANCH   7  13
ENDBRANCH   1   3
BRANCH   1  26
ATOM     21  C   UNL     1       2.722   4.399  18.628  0.00  0.00    +0.000 A 
ATOM     22  C   UNL     1       2.268   3.092  18.370  0.00  0.00    +0.000 A 
ATOM     23  C   UNL     1       1.406   2.445  19.253  0.00  0.00    +0.000 A 
ATOM     24  C   UNL     1       1.036   3.080  20.429  0.00  0.00    +0.000 A 
ATOM     25  C   UNL     1       1.495   4.371  20.695  0.00  0.00    +0.000 A 
ATOM     26  C   UNL     1       2.265   5.099  19.768  0.00  0.00    +0.000 A 
BRANCH  21  28
ATOM     27  O   UNL     1       3.756   6.168  17.446  0.00  0.00    +0.000 OA
ATOM     28  C   UNL     1       3.695   4.957  17.638  0.00  0.00    +0.000 C 
ATOM     29  N   UNL     1       4.453   4.048  16.923  0.00  0.00    +0.000 N 
ATOM     30  H   UNL     1       4.124   3.082  16.893  0.00  0.00    +0.000 HD
BRANCH  29  31
ATOM     31  C   UNL     1       5.242   4.500  15.787  0.00  0.00    +0.000 C 
BRANCH  31  32
ATOM     32  C   UNL     1       6.748   4.423  16.031  0.00  0.00    +0.000 C 
BRANCH  32  33
ATOM     33  C   UNL     1       7.219   5.447  17.009  0.00  0.00    +0.000 A 
ATOM     34  C   UNL     1       7.559   5.295  18.338  0.00  0.00    +0.000 A 
ATOM     35  N   UNL     1       7.919   6.545  18.762  0.00  0.00    +0.000 N 
ATOM     36  C   UNL     1       7.787   7.393  17.696  0.00  0.00    +0.000 A 
ATOM     37  N   UNL     1       7.350   6.764  16.630  0.00  0.00    +0.000 NA
ATOM     38  H   UNL     1       8.227   6.802  19.689  0.00  0.00    +0.000 HD
ENDBRANCH  32  33
ENDBRANCH  31  32
ENDBRANCH  29  31
ENDBRANCH  21  28
ENDBRANCH   1  26
TORSDOF 8
ENDMDL
MODEL 2
REMARK VINA RESULT:      -9.3      0.985      1.244
REMARK  Name = 
REMARK  8 active torsions:
REMARK  status: ('A' for Active; 'I' for Inactive)
REMARK    1  A    between atoms: C_2  and  C_11
REMARK    2  A    between atoms: N_3  and  C_4
REMARK    3  A    between atoms: C_4  and  C_5
REMARK    4  A    between atoms: C_5  and  C_6
REMARK    5  A    between atoms: C_16  and  N_17
REMARK    6  A    between atoms: N_17  and  C_18
REMARK    7  A    between atoms: C_22  and  C_23
REMARK    8  A    between atoms: C_24  and  C_25
REMARK                            x       y       z     vdW  Elec       q    Type
REMARK                         _______ _______ _______ _____ _____    ______ ____
ROOT
ATOM      1  N   UNL     1       2.633   6.427  19.902  0.00  0.00    +0.000 N 
ATOM      2  H   UNL     1       3.581   6.624  19.574  0.00  0.00    +0.000 HD
ENDROOT
BRANCH   1   3
ATOM      3  C   UNL     1       1.903   7.634  20.024  0.00  0.00    +0.000 A 
ATOM      4  C   UNL     1       1.238   7.887  21.233  0.00  0.00    +0.000 A 
ATOM      5  C   UNL     1       0.486   9.059  21.434  0.00  0.00    +0.000 A 
ATOM      6  C   UNL     1       0.380   9.992  20.384  0.00  0.00    +0.000 A 
ATOM      7  C   UNL     1      -0.196  11.285  20.185  0.00  0.00    +0.000 A 
ATOM      8  N   UNL     1      -0.027  11.706  18.921  0.00  0.00    +0.000 NA
ATOM      9  N   UNL     1       0.706  10.742  18.352  0.00  0.00    +0.000 N 
ATOM     10  C   UNL     1       1.022   9.709  19.187  0.00  0.00    +0.000 A 
ATOM     11  C   UNL     1       1.817   8.577  18.989  0.00  0.00    +0.000 A 
ATOM     12  H   UNL     1       0.970  10.852  17.380  0.00  0.00    +0.000 HD
BRANCH   7  13
ATOM     13  C   UNL     1      -0.803  12.086  21.208  0.00  0.00    +0.000 C 
ATOM     14  C   UNL     1      -2.007  12.668  21.080  0.00  0.00    +0.000 C 
BRANCH  14  15
ATOM     15  C   UNL     1      -2.594  13.599  22.047  0.00  0.00    +0.000 A 
ATOM     16  C   UNL     1      -1.975  13.795  23.280  0.00  0.00    +0.000 A 
ATOM     17  C   UNL     1      -2.573  14.645  24.207  0.00  0.00    +0.000 A 
ATOM     18  C   UNL     1      -3.768  15.271  23.877  0.00  0.00    +0.000 A 
ATOM     19  C   UNL     1      -4.316  15.021  22.631  0.00  0.00    +0.000 A 
ATOM     20  N   UNL     1      -3.759  14.204  21.711  0.00  0.00    +0.000 NA
ENDBRANCH  14  15
ENDBRANCH   7  13
ENDBRANCH   1   3
BRANCH   1  26
ATOM     21  C   UNL     1       2.665   4.446  18.411  0.00  0.00    +0.000 A 
ATOM     22  C   UNL     1       2.163   3.173  18.085  0.00  0.00    +0.000 A 
ATOM     23  C   UNL     1       1.248   2.528  18.915  0.00  0.00    +0.000 A 
ATOM     24  C   UNL     1       0.871   3.129  20.107  0.00  0.00    +0.000 A 
ATOM     25  C   UNL     1       1.378   4.386  20.440  0.00  0.00    +0.000 A 
ATOM     26  C   UNL     1       2.206   5.118  19.568  0.00  0.00    +0.000 A 
BRANCH  21  28
ATOM     27  O   UNL     1       3.798   6.215  17.324  0.00  0.00    +0.000 OA
ATOM     28  C   UNL     1       3.690   5.001  17.474  0.00  0.00    +0.000 C 
ATOM     29  N   UNL     1       4.442   4.090  16.755  0.00  0.00    +0.000 N 
ATOM     30  H   UNL     1       4.082   3.137  16.683  0.00  0.00    +0.000 HD
BRANCH  29  31
ATOM     31  C   UNL     1       5.285   4.550  15.662  0.00  0.00    +0.000 C 
BRANCH  31  32
ATOM     32  C   UNL     1       6.778   4.421  15.958  0.00  0.00    +0.000 C 
BRANCH  32  33
ATOM     33  C   UNL     1       7.198   5.239  17.132  0.00  0.00    +0.000 A 
ATOM     34  C   UNL     1       7.440   6.596  17.211  0.00  0.00    +0.000 A 
ATOM     35  N   UNL     1       7.796   6.822  18.512  0.00  0.00    +0.000 N 
ATOM     36  C   UNL     1       7.759   5.619  19.163  0.00  0.00    +0.000 A 
ATOM     37  N   UNL     1       7.419   4.643  18.353  0.00  0.00    +0.000 NA
ATOM     38  H   UNL     1       8.041   7.712  18.924  0.00  0.00    +0.000 HD
ENDBRANCH  32  33
ENDBRANCH  31  32
ENDBRANCH  29  31
ENDBRANCH  21  28
ENDBRANCH   1  26
TORSDOF 8
ENDMDL
MODEL 3
REMARK VINA RESULT:      -9.2      0.885      1.238
REMARK  Name = 
REMARK  8 active torsions:
REMARK  status: ('A' for Active; 'I' for Inactive)
REMARK    1  A    between atoms: C_2  and  C_11
REMARK    2  A    between atoms: N_3  and  C_4
REMARK    3  A    between atoms: C_4  and  C_5
REMARK    4  A    between atoms: C_5  and  C_6
REMARK    5  A    between atoms: C_16  and  N_17
REMARK    6  A    between atoms: N_17  and  C_18
REMARK    7  A    between atoms: C_22  and  C_23
REMARK    8  A    between atoms: C_24  and  C_25
REMARK                            x       y       z     vdW  Elec       q    Type
REMARK                         _______ _______ _______ _____ _____    ______ ____
ROOT
ATOM      1  N   UNL     1       2.631   6.553  20.047  0.00  0.00    +0.000 N 
ATOM      2  H   UNL     1       3.590   6.737  19.745  0.00  0.00    +0.000 HD
ENDROOT
BRANCH   1   3
ATOM      3  C   UNL     1       1.883   7.755  20.039  0.00  0.00    +0.000 A 
ATOM      4  C   UNL     1       1.247   8.147  21.226  0.00  0.00    +0.000 A 
ATOM      5  C   UNL     1       0.480   9.324  21.302  0.00  0.00    +0.000 A 
ATOM      6  C   UNL     1       0.328  10.117  20.148  0.00  0.00    +0.000 A 
ATOM      7  C   UNL     1      -0.277  11.366  19.807  0.00  0.00    +0.000 A 
ATOM      8  N   UNL     1      -0.150  11.629  18.495  0.00  0.00    +0.000 NA
ATOM      9  N   UNL     1       0.584  10.612  18.029  0.00  0.00    +0.000 N 
ATOM     10  C   UNL     1       0.941   9.696  18.977  0.00  0.00    +0.000 A 
ATOM     11  C   UNL     1       1.751   8.559  18.898  0.00  0.00    +0.000 A 
ATOM     12  H   UNL     1       0.819  10.603  17.044  0.00  0.00    +0.000 HD
BRANCH   7  13
ATOM     13  C   UNL     1      -0.869  12.280  20.739  0.00  0.00    +0.000 C 
ATOM     14  C   UNL     1      -0.322  13.460  21.075  0.00  0.00    +0.000 C 
BRANCH  14  15
ATOM     15  C   UNL     1      -0.830  14.353  22.120  0.00  0.00    +0.000 A 
ATOM     16  C   UNL     1      -1.221  15.649  21.790  0.00  0.00    +0.000 A 
ATOM     17  C   UNL     1      -1.655  16.499  22.804  0.00  0.00    +0.000 A 
ATOM     18  C   UNL     1      -1.684  16.033  24.112  0.00  0.00    +0.000 A 
ATOM     19  C   UNL     1      -1.278  14.732  24.352  0.00  0.00    +0.000 A 
ATOM     20  N   UNL     1      -0.855  13.884  23.390  0.00  0.00    +0.000 NA
ENDBRANCH  14  15
ENDBRANCH   7  13
ENDBRANCH   1   3
BRANCH   1  26
ATOM     21  C   UNL     1       2.666   4.496  18.663  0.00  0.00    +0.000 A 
ATOM     22  C   UNL     1       2.192   3.192  18.425  0.00  0.00    +0.000 A 
ATOM     23  C   UNL     1       1.335   2.565  19.328  0.00  0.00    +0.000 A 
ATOM     24  C   UNL     1       0.989   3.218  20.501  0.00  0.00    +0.000 A 
ATOM     25  C   UNL     1       1.468   4.506  20.746  0.00  0.00    +0.000 A 
ATOM     26  C   UNL     1       2.233   5.214  19.801  0.00  0.00    +0.000 A 
BRANCH  21  28
ATOM     27  O   UNL     1       3.710   6.239  17.452  0.00  0.00    +0.000 OA
ATOM     28  C   UNL     1       3.632   5.030  17.654  0.00  0.00    +0.000 C 
ATOM     29  N   UNL     1       4.363   4.105  16.933  0.00  0.00    +0.000 N 
ATOM     30  H   UNL     1       4.018   3.144  16.915  0.00  0.00    +0.000 HD
BRANCH  29  31
ATOM     31  C   UNL     1       5.141   4.536  15.781  0.00  0.00    +0.000 C 
BRANCH  31  32
ATOM     32  C   UNL     1       6.650   4.415  15.994  0.00  0.00    +0.000 C 
BRANCH  32  33
ATOM     33  C   UNL     1       7.132   5.247  17.134  0.00  0.00    +0.000 A 
ATOM     34  C   UNL     1       7.405   6.600  17.176  0.00  0.00    +0.000 A 
ATOM     35  N   UNL     1       7.815   6.844  18.457  0.00  0.00    +0.000 N 
ATOM     36  C   UNL     1       7.777   5.655  19.134  0.00  0.00    +0.000 A 
ATOM     37  N   UNL     1       7.386   4.671  18.358  0.00  0.00    +0.000 NA
ATOM     38  H   UNL     1       8.095   7.736  18.841  0.00  0.00    +0.000 HD
ENDBRANCH  32  33
ENDBRANCH  31  32
ENDBRANCH  29  31
ENDBRANCH  21  28
ENDBRANCH   1  26
TORSDOF 8
ENDMDL
MODEL 4
REMARK VINA RESULT:      -9.1      1.229      1.832
REMARK  Name = 
REMARK  8 active torsions:
REMARK  status: ('A' for Active; 'I' for Inactive)
REMARK    1  A    between atoms: C_2  and  C_11
REMARK    2  A    between atoms: N_3  and  C_4
REMARK    3  A    between atoms: C_4  and  C_5
REMARK    4  A    between atoms: C_5  and  C_6
REMARK    5  A    between atoms: C_16  and  N_17
REMARK    6  A    between atoms: N_17  and  C_18
REMARK    7  A    between atoms: C_22  and  C_23
REMARK    8  A    between atoms: C_24  and  C_25
REMARK                            x       y       z     vdW  Elec       q    Type
REMARK                         _______ _______ _______ _____ _____    ______ ____
ROOT
ATOM      1  N   UNL     1       2.430   6.484  20.435  0.00  0.00    +0.000 N 
ATOM      2  H   UNL     1       3.429   6.650  20.575  0.00  0.00    +0.000 HD
ENDROOT
BRANCH   1   3
ATOM      3  C   UNL     1       1.741   7.718  20.363  0.00  0.00    +0.000 A 
ATOM      4  C   UNL     1       1.061   8.165  21.506  0.00  0.00    +0.000 A 
ATOM      5  C   UNL     1       0.346   9.377  21.517  0.00  0.00    +0.000 A 
ATOM      6  C   UNL     1       0.294  10.150  20.341  0.00  0.00    +0.000 A 
ATOM      7  C   UNL     1      -0.233  11.418  19.943  0.00  0.00    +0.000 A 
ATOM      8  N   UNL     1      -0.024  11.646  18.636  0.00  0.00    +0.000 NA
ATOM      9  N   UNL     1       0.686  10.587  18.230  0.00  0.00    +0.000 N 
ATOM     10  C   UNL     1       0.949   9.677  19.213  0.00  0.00    +0.000 A 
ATOM     11  C   UNL     1       1.708   8.503  19.202  0.00  0.00    +0.000 A 
ATOM     12  H   UNL     1       0.974  10.547  17.260  0.00  0.00    +0.000 HD
BRANCH   7  13
ATOM     13  C   UNL     1      -0.832  12.378  20.824  0.00  0.00    +0.000 C 
ATOM     14  C   UNL     1      -2.041  12.217  21.389  0.00  0.00    +0.000 C 
BRANCH  14  15
ATOM     15  C   UNL     1      -2.737  13.233  22.182  0.00  0.00    +0.000 A 
ATOM     16  C   UNL     1      -4.109  13.415  22.020  0.00  0.00    +0.000 A 
ATOM     17  C   UNL     1      -4.745  14.419  22.746  0.00  0.00    +0.000 A 
ATOM     18  C   UNL     1      -3.996  15.209  23.608  0.00  0.00    +0.000 A 
ATOM     19  C   UNL     1      -2.637  14.961  23.709  0.00  0.00    +0.000 A 
ATOM     20  N   UNL     1      -1.993  13.995  23.020  0.00  0.00    +0.000 NA
ENDBRANCH  14  15
ENDBRANCH   7  13
ENDBRANCH   1   3
BRANCH   1  26
ATOM     21  C   UNL     1       2.930   4.784  18.700  0.00  0.00    +0.000 A 
ATOM     22  C   UNL     1       2.595   3.575  18.063  0.00  0.00    +0.000 A 
ATOM     23  C   UNL     1       1.550   2.782  18.533  0.00  0.00    +0.000 A 
ATOM     24  C   UNL     1       0.868   3.166  19.678  0.00  0.00    +0.000 A 
ATOM     25  C   UNL     1       1.207   4.358  20.321  0.00  0.00    +0.000 A 
ATOM     26  C   UNL     1       2.172   5.242  19.803  0.00  0.00    +0.000 A 
BRANCH  21  28
ATOM     27  O   UNL     1       4.010   6.146  17.096  0.00  0.00    +0.000 OA
ATOM     28  C   UNL     1       4.113   5.509  18.140  0.00  0.00    +0.000 C 
ATOM     29  N   UNL     1       5.312   5.367  18.813  0.00  0.00    +0.000 N 
ATOM     30  H   UNL     1       5.399   4.581  19.459  0.00  0.00    +0.000 HD
BRANCH  29  31
ATOM     31  C   UNL     1       6.544   5.843  18.202  0.00  0.00    +0.000 C 
BRANCH  31  32
ATOM     32  C   UNL     1       7.367   4.728  17.558  0.00  0.00    +0.000 C 
BRANCH  32  33
ATOM     33  C   UNL     1       6.999   4.501  16.131  0.00  0.00    +0.000 A 
ATOM     34  C   UNL     1       6.129   3.576  15.588  0.00  0.00    +0.000 A 
ATOM     35  N   UNL     1       6.163   3.799  14.240  0.00  0.00    +0.000 N 
ATOM     36  C   UNL     1       7.036   4.830  14.016  0.00  0.00    +0.000 A 
ATOM     37  N   UNL     1       7.568   5.262  15.135  0.00  0.00    +0.000 NA
ATOM     38  H   UNL     1       5.643   3.299  13.532  0.00  0.00    +0.000 HD
ENDBRANCH  32  33
ENDBRANCH  31  32
ENDBRANCH  29  31
ENDBRANCH  21  28
ENDBRANCH   1  26
TORSDOF 8
ENDMDL
MODEL 5
REMARK VINA RESULT:      -9.0      1.091      1.497
REMARK  Name = 
REMARK  8 active torsions:
REMARK  status: ('A' for Active; 'I' for Inactive)
REMARK    1  A    between atoms: C_2  and  C_11
REMARK    2  A    between atoms: N_3  and  C_4
REMARK    3  A    between atoms: C_4  and  C_5
REMARK    4  A    between atoms: C_5  and  C_6
REMARK    5  A    between atoms: C_16  and  N_17
REMARK    6  A    between atoms: N_17  and  C_18
REMARK    7  A    between atoms: C_22  and  C_23
REMARK    8  A    between atoms: C_24  and  C_25
REMARK                            x       y       z     vdW  Elec       q    Type
REMARK                         _______ _______ _______ _____ _____    ______ ____
ROOT
ATOM      1  N   UNL     1       2.733   6.071  19.953  0.00  0.00    +0.000 N 
ATOM      2  H   UNL     1       3.730   6.223  19.787  0.00  0.00    +0.000 HD
ENDROOT
BRANCH   1   3
ATOM      3  C   UNL     1       2.056   7.314  20.005  0.00  0.00    +0.000 A 
ATOM      4  C   UNL     1       1.412   7.668  21.200  0.00  0.00    +0.000 A 
ATOM      5  C   UNL     1       0.712   8.881  21.333  0.00  0.00    +0.000 A 
ATOM      6  C   UNL     1       0.639   9.753  20.230  0.00  0.00    +0.000 A 
ATOM      7  C   UNL     1       0.118  11.056  19.956  0.00  0.00    +0.000 A 
ATOM      8  N   UNL     1       0.296  11.393  18.667  0.00  0.00    +0.000 NA
ATOM      9  N   UNL     1       0.982  10.365  18.154  0.00  0.00    +0.000 N 
ATOM     10  C   UNL     1       1.259   9.372  19.048  0.00  0.00    +0.000 A 
ATOM     11  C   UNL     1       2.003   8.196  18.916  0.00  0.00    +0.000 A 
ATOM     12  H   UNL     1       1.243  10.405  17.176  0.00  0.00    +0.000 HD
BRANCH   7  13
ATOM     13  C   UNL     1      -0.446  11.942  20.931  0.00  0.00    +0.000 C 
ATOM     14  C   UNL     1      -1.297  11.547  21.893  0.00  0.00    +0.000 C 
BRANCH  14  15
ATOM     15  C   UNL     1      -1.993  12.445  22.817  0.00  0.00    +0.000 A 
ATOM     16  C   UNL     1      -1.361  13.607  23.258  0.00  0.00    +0.000 A 
ATOM     17  C   UNL     1      -2.019  14.424  24.174  0.00  0.00    +0.000 A 
ATOM     18  C   UNL     1      -3.281  14.058  24.623  0.00  0.00    +0.000 A 
ATOM     19  C   UNL     1      -3.836  12.888  24.134  0.00  0.00    +0.000 A 
ATOM     20  N   UNL     1      -3.225  12.077  23.244  0.00  0.00    +0.000 NA
ENDBRANCH  14  15
ENDBRANCH   7  13
ENDBRANCH   1   3
BRANCH   1  26
ATOM     21  C   UNL     1       2.974   4.085  18.488  0.00  0.00    +0.000 A 
ATOM     22  C   UNL     1       2.467   2.856  18.028  0.00  0.00    +0.000 A 
ATOM     23  C   UNL     1       1.324   2.294  18.595  0.00  0.00    +0.000 A 
ATOM     24  C   UNL     1       0.713   2.931  19.664  0.00  0.00    +0.000 A 
ATOM     25  C   UNL     1       1.221   4.144  20.132  0.00  0.00    +0.000 A 
ATOM     26  C   UNL     1       2.297   4.800  19.503  0.00  0.00    +0.000 A 
BRANCH  21  28
ATOM     27  O   UNL     1       4.207   5.178  16.791  0.00  0.00    +0.000 OA
ATOM     28  C   UNL     1       4.242   4.548  17.844  0.00  0.00    +0.000 C 
ATOM     29  N   UNL     1       5.427   4.176  18.452  0.00  0.00    +0.000 N 
ATOM     30  H   UNL     1       5.392   3.399  19.112  0.00  0.00    +0.000 HD
BRANCH  29  31
ATOM     31  C   UNL     1       6.691   4.385  17.761  0.00  0.00    +0.000 C 
BRANCH  31  32
ATOM     32  C   UNL     1       7.675   5.243  18.554  0.00  0.00    +0.000 C 
BRANCH  32  33
ATOM     33  C   UNL     1       7.649   6.674  18.135  0.00  0.00    +0.000 A 
ATOM     34  C   UNL     1       6.863   7.292  17.183  0.00  0.00    +0.000 A 
ATOM     35  N   UNL     1       7.244   8.606  17.201  0.00  0.00    +0.000 N 
ATOM     36  C   UNL     1       8.228   8.735  18.143  0.00  0.00    +0.000 A 
ATOM     37  N   UNL     1       8.506   7.585  18.711  0.00  0.00    +0.000 NA
ATOM     38  H   UNL     1       6.872   9.350  16.626  0.00  0.00    +0.000 HD
ENDBRANCH  32  33
ENDBRANCH  31  32
ENDBRANCH  29  31
ENDBRANCH  21  28
ENDBRANCH   1  26
TORSDOF 8
ENDMDL
MODEL 6
REMARK VINA RESULT:      -9.0      2.082      2.644
REMARK  Name = 
REMARK  8 active torsions:
REMARK  status: ('A' for Active; 'I' for Inactive)
REMARK    1  A    between atoms: C_2  and  C_11
REMARK    2  A    between atoms: N_3  and  C_4
REMARK    3  A    between atoms: C_4  and  C_5
REMARK    4  A    between atoms: C_5  and  C_6
REMARK    5  A    between atoms: C_16  and  N_17
REMARK    6  A    between atoms: N_17  and  C_18
REMARK    7  A    between atoms: C_22  and  C_23
REMARK    8  A    between atoms: C_24  and  C_25
REMARK                            x       y       z     vdW  Elec       q    Type
REMARK                         _______ _______ _______ _____ _____    ______ ____
ROOT
ATOM      1  N   UNL     1       2.507   6.437  20.041  0.00  0.00    +0.000 N 
ATOM      2  H   UNL     1       3.432   6.665  19.669  0.00  0.00    +0.000 HD
ENDROOT
BRANCH   1   3
ATOM      3  C   UNL     1       1.797   7.626  20.332  0.00  0.00    +0.000 A 
ATOM      4  C   UNL     1       1.854   8.676  19.402  0.00  0.00    +0.000 A 
ATOM      5  C   UNL     1       1.182   9.893  19.617  0.00  0.00    +0.000 A 
ATOM      6  C   UNL     1       0.451  10.070  20.807  0.00  0.00    +0.000 A 
ATOM      7  C   UNL     1      -0.398  11.069  21.377  0.00  0.00    +0.000 A 
ATOM      8  N   UNL     1      -0.806  10.719  22.609  0.00  0.00    +0.000 NA
ATOM      9  N   UNL     1      -0.294   9.495  22.786  0.00  0.00    +0.000 N 
ATOM     10  C   UNL     1       0.431   9.031  21.726  0.00  0.00    +0.000 A 
ATOM     11  C   UNL     1       1.047   7.796  21.504  0.00  0.00    +0.000 A 
ATOM     12  H   UNL     1      -0.485   9.019  23.659  0.00  0.00    +0.000 HD
BRANCH   7  13
ATOM     13  C   UNL     1      -0.842  12.256  20.708  0.00  0.00    +0.000 C 
ATOM     14  C   UNL     1      -0.129  13.394  20.659  0.00  0.00    +0.000 C 
BRANCH  14  15
ATOM     15  C   UNL     1      -0.611  14.660  20.102  0.00  0.00    +0.000 A 
ATOM     16  C   UNL     1       0.017  15.205  18.982  0.00  0.00    +0.000 A 
ATOM     17  C   UNL     1      -0.422  16.434  18.497  0.00  0.00    +0.000 A 
ATOM     18  C   UNL     1      -1.469  17.081  19.140  0.00  0.00    +0.000 A 
ATOM     19  C   UNL     1      -2.036  16.470  20.245  0.00  0.00    +0.000 A 
ATOM     20  N   UNL     1      -1.634  15.279  20.738  0.00  0.00    +0.000 NA
ENDBRANCH  14  15
ENDBRANCH   7  13
ENDBRANCH   1   3
BRANCH   1  26
ATOM     21  C   UNL     1       2.524   4.554  18.428  0.00  0.00    +0.000 A 
ATOM     22  C   UNL     1       1.991   3.323  18.004  0.00  0.00    +0.000 A 
ATOM     23  C   UNL     1       1.027   2.659  18.762  0.00  0.00    +0.000 A 
ATOM     24  C   UNL     1       0.630   3.197  19.977  0.00  0.00    +0.000 A 
ATOM     25  C   UNL     1       1.167   4.411  20.407  0.00  0.00    +0.000 A 
ATOM     26  C   UNL     1       2.048   5.167  19.610  0.00  0.00    +0.000 A 
BRANCH  21  28
ATOM     27  O   UNL     1       3.722   6.347  17.456  0.00  0.00    +0.000 OA
ATOM     28  C   UNL     1       3.598   5.130  17.561  0.00  0.00    +0.000 C 
ATOM     29  N   UNL     1       4.379   4.236  16.852  0.00  0.00    +0.000 N 
ATOM     30  H   UNL     1       4.017   3.290  16.730  0.00  0.00    +0.000 HD
BRANCH  29  31
ATOM     31  C   UNL     1       5.278   4.725  15.817  0.00  0.00    +0.000 C 
BRANCH  31  32
ATOM     32  C   UNL     1       6.754   4.512  16.153  0.00  0.00    +0.000 C 
BRANCH  32  33
ATOM     33  C   UNL     1       7.259   5.504  17.146  0.00  0.00    +0.000 A 
ATOM     34  C   UNL     1       7.616   5.315  18.466  0.00  0.00    +0.000 A 
ATOM     35  N   UNL     1       8.007   6.548  18.912  0.00  0.00    +0.000 N 
ATOM     36  C   UNL     1       7.876   7.423  17.868  0.00  0.00    +0.000 A 
ATOM     37  N   UNL     1       7.411   6.826  16.795  0.00  0.00    +0.000 NA
ATOM     38  H   UNL     1       8.334   6.778  19.840  0.00  0.00    +0.000 HD
ENDBRANCH  32  33
ENDBRANCH  31  32
ENDBRANCH  29  31
ENDBRANCH  21  28
ENDBRANCH   1  26
TORSDOF 8
ENDMDL
MODEL 7
REMARK VINA RESULT:      -9.0      1.584      2.143
REMARK  Name = 
REMARK  8 active torsions:
REMARK  status: ('A' for Active; 'I' for Inactive)
REMARK    1  A    between atoms: C_2  and  C_11
REMARK    2  A    between atoms: N_3  and  C_4
REMARK    3  A    between atoms: C_4  and  C_5
REMARK    4  A    between atoms: C_5  and  C_6
REMARK    5  A    between atoms: C_16  and  N_17
REMARK    6  A    between atoms: N_17  and  C_18
REMARK    7  A    between atoms: C_22  and  C_23
REMARK    8  A    between atoms: C_24  and  C_25
REMARK                            x       y       z     vdW  Elec       q    Type
REMARK                         _______ _______ _______ _____ _____    ______ ____
ROOT
ATOM      1  N   UNL     1       2.543   6.377  20.301  0.00  0.00    +0.000 N 
ATOM      2  H   UNL     1       3.549   6.550  20.357  0.00  0.00    +0.000 HD
ENDROOT
BRANCH   1   3
ATOM      3  C   UNL     1       1.843   7.607  20.254  0.00  0.00    +0.000 A 
ATOM      4  C   UNL     1       1.127   8.005  21.393  0.00  0.00    +0.000 A 
ATOM      5  C   UNL     1       0.400   9.209  21.427  0.00  0.00    +0.000 A 
ATOM      6  C   UNL     1       0.373  10.025  20.280  0.00  0.00    +0.000 A 
ATOM      7  C   UNL     1      -0.155  11.302  19.913  0.00  0.00    +0.000 A 
ATOM      8  N   UNL     1       0.088  11.579  18.621  0.00  0.00    +0.000 NA
ATOM      9  N   UNL     1       0.820  10.542  18.198  0.00  0.00    +0.000 N 
ATOM     10  C   UNL     1       1.064   9.599  19.154  0.00  0.00    +0.000 A 
ATOM     11  C   UNL     1       1.835   8.433  19.121  0.00  0.00    +0.000 A 
ATOM     12  H   UNL     1       1.134  10.539  17.235  0.00  0.00    +0.000 HD
BRANCH   7  13
ATOM     13  C   UNL     1      -0.787  12.223  20.811  0.00  0.00    +0.000 C 
ATOM     14  C   UNL     1      -1.851  11.911  21.570  0.00  0.00    +0.000 C 
BRANCH  14  15
ATOM     15  C   UNL     1      -2.601  12.863  22.393  0.00  0.00    +0.000 A 
ATOM     16  C   UNL     1      -3.202  12.431  23.574  0.00  0.00    +0.000 A 
ATOM     17  C   UNL     1      -3.952  13.337  24.318  0.00  0.00    +0.000 A 
ATOM     18  C   UNL     1      -4.081  14.643  23.864  0.00  0.00    +0.000 A 
ATOM     19  C   UNL     1      -3.452  14.989  22.680  0.00  0.00    +0.000 A 
ATOM     20  N   UNL     1      -2.717  14.133  21.938  0.00  0.00    +0.000 NA
ENDBRANCH  14  15
ENDBRANCH   7  13
ENDBRANCH   1   3
BRANCH   1  26
ATOM     21  C   UNL     1       3.041   4.545  18.705  0.00  0.00    +0.000 A 
ATOM     22  C   UNL     1       2.667   3.325  18.113  0.00  0.00    +0.000 A 
ATOM     23  C   UNL     1       1.536   2.634  18.547  0.00  0.00    +0.000 A 
ATOM     24  C   UNL     1       0.804   3.132  19.614  0.00  0.00    +0.000 A 
ATOM     25  C   UNL     1       1.181   4.335  20.213  0.00  0.00    +0.000 A 
ATOM     26  C   UNL     1       2.242   5.119  19.720  0.00  0.00    +0.000 A 
BRANCH  21  28
ATOM     27  O   UNL     1       5.119   5.642  18.980  0.00  0.00    +0.000 OA
ATOM     28  C   UNL     1       4.310   5.153  18.196  0.00  0.00    +0.000 C 
ATOM     29  N   UNL     1       4.481   5.191  16.825  0.00  0.00    +0.000 N 
ATOM     30  H   UNL     1       3.650   5.076  16.244  0.00  0.00    +0.000 HD
BRANCH  29  31
ATOM     31  C   UNL     1       5.568   5.972  16.254  0.00  0.00    +0.000 C 
BRANCH  31  32
ATOM     32  C   UNL     1       6.807   5.136  15.935  0.00  0.00    +0.000 C 
BRANCH  32  33
ATOM     33  C   UNL     1       6.911   4.801  14.486  0.00  0.00    +0.000 A 
ATOM     34  C   UNL     1       6.219   3.856  13.754  0.00  0.00    +0.000 A 
ATOM     35  N   UNL     1       6.700   3.967  12.479  0.00  0.00    +0.000 N 
ATOM     36  C   UNL     1       7.647   4.954  12.481  0.00  0.00    +0.000 A 
ATOM     37  N   UNL     1       7.809   5.464  13.680  0.00  0.00    +0.000 NA
ATOM     38  H   UNL     1       6.412   3.423  11.677  0.00  0.00    +0.000 HD
ENDBRANCH  32  33
ENDBRANCH  31  32
ENDBRANCH  29  31
ENDBRANCH  21  28
ENDBRANCH   1  26
TORSDOF 8
ENDMDL
MODEL 8
REMARK VINA RESULT:      -8.9      1.403      2.006
REMARK  Name = 
REMARK  8 active torsions:
REMARK  status: ('A' for Active; 'I' for Inactive)
REMARK    1  A    between atoms: C_2  and  C_11
REMARK    2  A    between atoms: N_3  and  C_4
REMARK    3  A    between atoms: C_4  and  C_5
REMARK    4  A    between atoms: C_5  and  C_6
REMARK    5  A    between atoms: C_16  and  N_17
REMARK    6  A    between atoms: N_17  and  C_18
REMARK    7  A    between atoms: C_22  and  C_23
REMARK    8  A    between atoms: C_24  and  C_25
REMARK                            x       y       z     vdW  Elec       q    Type
REMARK                         _______ _______ _______ _____ _____    ______ ____
ROOT
ATOM      1  N   UNL     1       2.653   6.587  20.046  0.00  0.00    +0.000 N 
ATOM      2  H   UNL     1       3.591   6.814  19.709  0.00  0.00    +0.000 HD
ENDROOT
BRANCH   1   3
ATOM      3  C   UNL     1       1.851   7.754  20.068  0.00  0.00    +0.000 A 
ATOM      4  C   UNL     1       1.083   8.009  21.214  0.00  0.00    +0.000 A 
ATOM      5  C   UNL     1       0.255   9.142  21.314  0.00  0.00    +0.000 A 
ATOM      6  C   UNL     1       0.179  10.032  20.225  0.00  0.00    +0.000 A 
ATOM      7  C   UNL     1      -0.449  11.282  19.936  0.00  0.00    +0.000 A 
ATOM      8  N   UNL     1      -0.207  11.671  18.672  0.00  0.00    +0.000 NA
ATOM      9  N   UNL     1       0.619  10.731  18.196  0.00  0.00    +0.000 N 
ATOM     10  C   UNL     1       0.925   9.747  19.091  0.00  0.00    +0.000 A 
ATOM     11  C   UNL     1       1.793   8.655  18.996  0.00  0.00    +0.000 A 
ATOM     12  H   UNL     1       0.950  10.824  17.243  0.00  0.00    +0.000 HD
BRANCH   7  13
ATOM     13  C   UNL     1      -1.175  12.081  20.879  0.00  0.00    +0.000 C 
ATOM     14  C   UNL     1      -0.624  12.615  21.982  0.00  0.00    +0.000 C 
BRANCH  14  15
ATOM     15  C   UNL     1      -1.364  13.320  23.032  0.00  0.00    +0.000 A 
ATOM     16  C   UNL     1      -2.674  12.942  23.325  0.00  0.00    +0.000 A 
ATOM     17  C   UNL     1      -3.379  13.656  24.291  0.00  0.00    +0.000 A 
ATOM     18  C   UNL     1      -2.760  14.721  24.932  0.00  0.00    +0.000 A 
ATOM     19  C   UNL     1      -1.457  15.029  24.580  0.00  0.00    +0.000 A 
ATOM     20  N   UNL     1      -0.747  14.355  23.650  0.00  0.00    +0.000 NA
ENDBRANCH  14  15
ENDBRANCH   7  13
ENDBRANCH   1   3
BRANCH   1  26
ATOM     21  C   UNL     1       2.951   4.447  18.830  0.00  0.00    +0.000 A 
ATOM     22  C   UNL     1       2.530   3.126  18.590  0.00  0.00    +0.000 A 
ATOM     23  C   UNL     1       1.512   2.549  19.347  0.00  0.00    +0.000 A 
ATOM     24  C   UNL     1       0.946   3.271  20.387  0.00  0.00    +0.000 A 
ATOM     25  C   UNL     1       1.371   4.577  20.637  0.00  0.00    +0.000 A 
ATOM     26  C   UNL     1       2.308   5.232  19.814  0.00  0.00    +0.000 A 
BRANCH  21  28
ATOM     27  O   UNL     1       4.196   6.116  17.707  0.00  0.00    +0.000 OA
ATOM     28  C   UNL     1       4.096   4.926  17.996  0.00  0.00    +0.000 C 
ATOM     29  N   UNL     1       4.974   3.968  17.525  0.00  0.00    +0.000 N 
ATOM     30  H   UNL     1       4.655   2.999  17.523  0.00  0.00    +0.000 HD
BRANCH  29  31
ATOM     31  C   UNL     1       5.966   4.326  16.522  0.00  0.00    +0.000 C 
BRANCH  31  32
ATOM     32  C   UNL     1       5.819   3.537  15.221  0.00  0.00    +0.000 C 
BRANCH  32  33
ATOM     33  C   UNL     1       6.562   4.162  14.089  0.00  0.00    +0.000 A 
ATOM     34  C   UNL     1       7.446   5.222  14.102  0.00  0.00    +0.000 A 
ATOM     35  N   UNL     1       7.832   5.384  12.800  0.00  0.00    +0.000 N 
ATOM     36  C   UNL     1       7.182   4.435  12.058  0.00  0.00    +0.000 A 
ATOM     37  N   UNL     1       6.395   3.695  12.805  0.00  0.00    +0.000 NA
ATOM     38  H   UNL     1       8.479   6.074  12.444  0.00  0.00    +0.000 HD
ENDBRANCH  32  33
ENDBRANCH  31  32
ENDBRANCH  29  31
ENDBRANCH  21  28
ENDBRANCH   1  26
TORSDOF 8
ENDMDL
MODEL 9
REMARK VINA RESULT:      -8.9      1.403      2.112
REMARK  Name = 
REMARK  8 active torsions:
REMARK  status: ('A' for Active; 'I' for Inactive)
REMARK    1  A    between atoms: C_2  and  C_11
REMARK    2  A    between atoms: N_3  and  C_4
REMARK    3  A    between atoms: C_4  and  C_5
REMARK    4  A    between atoms: C_5  and  C_6
REMARK    5  A    between atoms: C_16  and  N_17
REMARK    6  A    between atoms: N_17  and  C_18
REMARK    7  A    between atoms: C_22  and  C_23
REMARK    8  A    between atoms: C_24  and  C_25
REMARK                            x       y       z     vdW  Elec       q    Type
REMARK                         _______ _______ _______ _____ _____    ______ ____
ROOT
ATOM      1  N   UNL     1       2.788   5.738  20.268  0.00  0.00    +0.000 N 
ATOM      2  H   UNL     1       3.751   5.873  20.582  0.00  0.00    +0.000 HD
ENDROOT
BRANCH   1   3
ATOM      3  C   UNL     1       2.131   6.989  20.173  0.00  0.00    +0.000 A 
ATOM      4  C   UNL     1       1.399   7.439  21.281  0.00  0.00    +0.000 A 
ATOM      5  C   UNL     1       0.712   8.667  21.267  0.00  0.00    +0.000 A 
ATOM      6  C   UNL     1       0.744   9.454  20.100  0.00  0.00    +0.000 A 
ATOM      7  C   UNL     1       0.269  10.738  19.688  0.00  0.00    +0.000 A 
ATOM      8  N   UNL     1       0.556  10.975  18.397  0.00  0.00    +0.000 NA
ATOM      9  N   UNL     1       1.263   9.904  18.019  0.00  0.00    +0.000 N 
ATOM     10  C   UNL     1       1.450   8.978  19.005  0.00  0.00    +0.000 A 
ATOM     11  C   UNL     1       2.182   7.787  19.021  0.00  0.00    +0.000 A 
ATOM     12  H   UNL     1       1.604   9.867  17.066  0.00  0.00    +0.000 HD
BRANCH   7  13
ATOM     13  C   UNL     1      -0.356  11.702  20.546  0.00  0.00    +0.000 C 
ATOM     14  C   UNL     1      -0.670  11.463  21.830  0.00  0.00    +0.000 C 
BRANCH  14  15
ATOM     15  C   UNL     1      -1.427  12.374  22.691  0.00  0.00    +0.000 A 
ATOM     16  C   UNL     1      -2.678  11.990  23.173  0.00  0.00    +0.000 A 
ATOM     17  C   UNL     1      -3.405  12.889  23.949  0.00  0.00    +0.000 A 
ATOM     18  C   UNL     1      -2.866  14.140  24.220  0.00  0.00    +0.000 A 
ATOM     19  C   UNL     1      -1.617  14.441  23.703  0.00  0.00    +0.000 A 
ATOM     20  N   UNL     1      -0.888  13.590  22.949  0.00  0.00    +0.000 NA
ENDBRANCH  14  15
ENDBRANCH   7  13
ENDBRANCH   1   3
BRANCH   1  26
ATOM     21  C   UNL     1       3.686   3.967  18.784  0.00  0.00    +0.000 A 
ATOM     22  C   UNL     1       3.461   2.822  17.998  0.00  0.00    +0.000 A 
ATOM     23  C   UNL     1       2.209   2.209  17.964  0.00  0.00    +0.000 A 
ATOM     24  C   UNL     1       1.188   2.706  18.761  0.00  0.00    +0.000 A 
ATOM     25  C   UNL     1       1.412   3.834  19.552  0.00  0.00    +0.000 A 
ATOM     26  C   UNL     1       2.625   4.548  19.515  0.00  0.00    +0.000 A 
BRANCH  21  28
ATOM     27  O   UNL     1       5.448   5.288  19.646  0.00  0.00    +0.000 OA
ATOM     28  C   UNL     1       5.088   4.488  18.787  0.00  0.00    +0.000 C 
ATOM     29  N   UNL     1       5.911   4.081  17.754  0.00  0.00    +0.000 N 
ATOM     30  H   UNL     1       5.464   3.697  16.920  0.00  0.00    +0.000 HD
BRANCH  29  31
ATOM     31  C   UNL     1       7.201   4.726  17.559  0.00  0.00    +0.000 C 
BRANCH  31  32
ATOM     32  C   UNL     1       7.232   5.656  16.347  0.00  0.00    +0.000 C 
BRANCH  32  33
ATOM     33  C   UNL     1       6.767   4.982  15.101  0.00  0.00    +0.000 A 
ATOM     34  C   UNL     1       7.485   4.636  13.973  0.00  0.00    +0.000 A 
ATOM     35  N   UNL     1       6.578   4.047  13.136  0.00  0.00    +0.000 N 
ATOM     36  C   UNL     1       5.366   4.058  13.772  0.00  0.00    +0.000 A 
ATOM     37  N   UNL     1       5.444   4.631  14.950  0.00  0.00    +0.000 NA
ATOM     38  H   UNL     1       6.762   3.671  12.216  0.00  0.00    +0.000 HD
ENDBRANCH  32  33
ENDBRANCH  31  32
ENDBRANCH  29  31
ENDBRANCH  21  28
ENDBRANCH   1  26
TORSDOF 8
ENDMDL
