MODEL 1
REMARK VINA RESULT:      -8.2      0.000      0.000
REMARK  Name = 
REMARK  13 active torsions:
REMARK  status: ('A' for Active; 'I' for Inactive)
REMARK    1  A    between atoms: C_1  and  O_2
REMARK    2  A    between atoms: O_2  and  C_3
REMARK    3  A    between atoms: C_5  and  C_6
REMARK    4  A    between atoms: N_8  and  C_9
REMARK    5  A    between atoms: N_17  and  C_18
REMARK    6  A    between atoms: C_18  and  C_19
REMARK    7  A    between atoms: N_21  and  C_22
REMARK    8  A    between atoms: C_23  and  C_24
REMARK    9  A    between atoms: C_28  and  C_29
REMARK   10  A    between atoms: C_31  and  O_32
REMARK   11  A    between atoms: O_32  and  C_33
REMARK   12  A    between atoms: C_34  and  O_35
REMARK   13  A    between atoms: O_35  and  C_36
REMARK                            x       y       z     vdW  Elec       q    Type
REMARK                         _______ _______ _______ _____ _____    ______ ____
ROOT
ATOM      1  C   UNL     1       0.924  10.157  19.635  0.00  0.00    +0.000 C 
ATOM      2  C   UNL     1      -0.381  10.398  18.879  0.00  0.00    +0.000 C 
ATOM      3  C   UNL     1      -0.975  11.799  19.133  0.00  0.00    +0.000 C 
ATOM      4  C   UNL     1      -0.149  12.927  18.480  0.00  0.00    +0.000 C 
ATOM      5  C   UNL     1       1.133  13.310  19.220  0.00  0.00    +0.000 C 
ATOM      6  C   UNL     1       1.053  13.166  20.739  0.00  0.00    +0.000 C 
ATOM      7  C   UNL     1       0.155  12.021  21.241  0.00  0.00    +0.000 C 
ATOM      8  C   UNL     1       0.802  10.627  21.089  0.00  0.00    +0.000 C 
ATOM      9  N   UNL     1      -1.171  11.991  20.591  0.00  0.00    +0.000 NA
ENDROOT
BRANCH   1  12
ATOM     10  C   UNL     1       2.085   8.239  18.547  0.00  0.00    +0.000 C 
ATOM     11  O   UNL     1       2.425   8.913  17.583  0.00  0.00    +0.000 OA
ATOM     12  N   UNL     1       1.321   8.752  19.581  0.00  0.00    +0.000 N 
ATOM     13  H   UNL     1       0.948   8.144  20.292  0.00  0.00    +0.000 HD
BRANCH  10  16
ATOM     14  C   UNL     1       4.027   5.076  17.788  0.00  0.00    +0.000 A 
ATOM     15  C   UNL     1       3.371   6.314  17.652  0.00  0.00    +0.000 A 
ATOM     16  C   UNL     1       2.564   6.827  18.669  0.00  0.00    +0.000 A 
ATOM     17  C   UNL     1       2.329   6.024  19.784  0.00  0.00    +0.000 A 
ATOM     18  C   UNL     1       2.899   4.745  19.903  0.00  0.00    +0.000 A 
ATOM     19  C   UNL     1       3.762   4.252  18.902  0.00  0.00    +0.000 A 
BRANCH  14  21
ATOM     20  C   UNL     1       6.288   4.963  17.085  0.00  0.00    +0.000 C 
ATOM     21  O   UNL     1       4.914   4.662  16.826  0.00  0.00    +0.000 OA
ENDBRANCH  14  21
BRANCH  18  22
ATOM     22  O   UNL     1       2.518   4.150  21.081  0.00  0.00    +0.000 OA
ATOM     23  C   UNL     1       1.365   3.325  21.117  0.00  0.00    +0.000 C 
ENDBRANCH  18  22
BRANCH  19  24
ATOM     24  O   UNL     1       4.251   2.991  19.109  0.00  0.00    +0.000 OA
ATOM     25  C   UNL     1       3.633   1.849  18.544  0.00  0.00    +0.000 C 
ENDBRANCH  19  24
ENDBRANCH  10  16
ENDBRANCH   1  12
BRANCH   9  26
ATOM     26  C   UNL     1      -1.985  13.211  20.848  0.00  0.00    +0.000 C 
BRANCH  26  27
ATOM     27  C   UNL     1      -3.183  12.954  21.763  0.00  0.00    +0.000 C 
ATOM     28  O   UNL     1      -3.087  12.203  22.732  0.00  0.00    +0.000 OA
ATOM     29  N   UNL     1      -4.325  13.654  21.391  0.00  0.00    +0.000 N 
ATOM     30  H   UNL     1      -4.371  13.796  20.387  0.00  0.00    +0.000 HD
BRANCH  29  31
ATOM     31  C   UNL     1      -5.539  13.507  22.105  0.00  0.00    +0.000 A 
ATOM     32  C   UNL     1      -5.808  14.277  23.260  0.00  0.00    +0.000 A 
ATOM     33  C   UNL     1      -4.954  15.425  23.727  0.00  0.00    +0.000 C 
ATOM     34  C   UNL     1      -6.978  14.019  23.993  0.00  0.00    +0.000 A 
ATOM     35  C   UNL     1      -7.895  13.061  23.574  0.00  0.00    +0.000 A 
ATOM     36  C   UNL     1      -7.662  12.364  22.390  0.00  0.00    +0.000 A 
ATOM     37  C   UNL     1      -6.492  12.574  21.647  0.00  0.00    +0.000 A 
ATOM     38  C   UNL     1      -6.294  11.765  20.394  0.00  0.00    +0.000 C 
ENDBRANCH  29  31
ENDBRANCH  26  27
ENDBRANCH   9  26
TORSDOF 8
ENDMDL
MODEL 2
REMARK VINA RESULT:      -8.1      0.442      2.127
REMARK  Name = 
REMARK  13 active torsions:
REMARK  status: ('A' for Active; 'I' for Inactive)
REMARK    1  A    between atoms: C_1  and  O_2
REMARK    2  A    between atoms: O_2  and  C_3
REMARK    3  A    between atoms: C_5  and  C_6
REMARK    4  A    between atoms: N_8  and  C_9
REMARK    5  A    between atoms: N_17  and  C_18
REMARK    6  A    between atoms: C_18  and  C_19
REMARK    7  A    between atoms: N_21  and  C_22
REMARK    8  A    between atoms: C_23  and  C_24
REMARK    9  A    between atoms: C_28  and  C_29
REMARK   10  A    between atoms: C_31  and  O_32
REMARK   11  A    between atoms: O_32  and  C_33
REMARK   12  A    between atoms: C_34  and  O_35
REMARK   13  A    between atoms: O_35  and  C_36
REMARK                            x       y       z     vdW  Elec       q    Type
REMARK                         _______ _______ _______ _____ _____    ______ ____
ROOT
ATOM      1  C   UNL     1       0.926  10.224  19.437  0.00  0.00    +0.000 C 
ATOM      2  C   UNL     1      -0.453  10.352  18.791  0.00  0.00    +0.000 C 
ATOM      3  C   UNL     1      -1.104  11.730  19.026  0.00  0.00    +0.000 C 
ATOM      4  C   UNL     1      -0.405  12.863  18.245  0.00  0.00    +0.000 C 
ATOM      5  C   UNL     1       0.912  13.356  18.845  0.00  0.00    +0.000 C 
ATOM      6  C   UNL     1       0.974  13.292  20.371  0.00  0.00    +0.000 C 
ATOM      7  C   UNL     1       0.192  12.131  21.010  0.00  0.00    +0.000 C 
ATOM      8  C   UNL     1       0.904  10.767  20.870  0.00  0.00    +0.000 C 
ATOM      9  N   UNL     1      -1.182  11.993  20.484  0.00  0.00    +0.000 NA
ENDROOT
BRANCH   1  12
ATOM     10  C   UNL     1       2.120   8.321  18.359  0.00  0.00    +0.000 C 
ATOM     11  O   UNL     1       2.356   8.965  17.344  0.00  0.00    +0.000 OA
ATOM     12  N   UNL     1       1.398   8.842  19.419  0.00  0.00    +0.000 N 
ATOM     13  H   UNL     1       1.108   8.250  20.180  0.00  0.00    +0.000 HD
BRANCH  10  16
ATOM     14  C   UNL     1       2.536   4.781  19.642  0.00  0.00    +0.000 A 
ATOM     15  C   UNL     1       2.210   6.147  19.554  0.00  0.00    +0.000 A 
ATOM     16  C   UNL     1       2.686   6.945  18.510  0.00  0.00    +0.000 A 
ATOM     17  C   UNL     1       3.590   6.377  17.615  0.00  0.00    +0.000 A 
ATOM     18  C   UNL     1       4.003   5.039  17.734  0.00  0.00    +0.000 A 
ATOM     19  C   UNL     1       3.477   4.218  18.754  0.00  0.00    +0.000 A 
BRANCH  14  21
ATOM     20  C   UNL     1       0.758   3.317  20.201  0.00  0.00    +0.000 C 
ATOM     21  O   UNL     1       1.949   3.998  20.604  0.00  0.00    +0.000 OA
ENDBRANCH  14  21
BRANCH  18  22
ATOM     22  O   UNL     1       4.897   4.715  16.743  0.00  0.00    +0.000 OA
ATOM     23  C   UNL     1       6.290   4.814  16.987  0.00  0.00    +0.000 C 
ENDBRANCH  18  22
BRANCH  19  24
ATOM     24  O   UNL     1       3.955   2.937  18.789  0.00  0.00    +0.000 OA
ATOM     25  C   UNL     1       4.498   2.376  19.970  0.00  0.00    +0.000 C 
ENDBRANCH  19  24
ENDBRANCH  10  16
ENDBRANCH   1  12
BRANCH   9  26
ATOM     26  C   UNL     1      -2.041  13.180  20.752  0.00  0.00    +0.000 C 
BRANCH  26  27
ATOM     27  C   UNL     1      -3.216  12.875  21.681  0.00  0.00    +0.000 C 
ATOM     28  O   UNL     1      -3.076  12.139  22.656  0.00  0.00    +0.000 OA
ATOM     29  N   UNL     1      -4.393  13.518  21.314  0.00  0.00    +0.000 N 
ATOM     30  H   UNL     1      -4.456  13.647  20.309  0.00  0.00    +0.000 HD
BRANCH  29  31
ATOM     31  C   UNL     1      -5.593  13.320  22.041  0.00  0.00    +0.000 A 
ATOM     32  C   UNL     1      -5.839  14.011  23.250  0.00  0.00    +0.000 A 
ATOM     33  C   UNL     1      -4.978  15.130  23.773  0.00  0.00    +0.000 C 
ATOM     34  C   UNL     1      -6.993  13.703  23.988  0.00  0.00    +0.000 A 
ATOM     35  C   UNL     1      -7.917  12.771  23.525  0.00  0.00    +0.000 A 
ATOM     36  C   UNL     1      -7.707  12.154  22.294  0.00  0.00    +0.000 A 
ATOM     37  C   UNL     1      -6.552  12.415  21.543  0.00  0.00    +0.000 A 
ATOM     38  C   UNL     1      -6.379  11.691  20.236  0.00  0.00    +0.000 C 
ENDBRANCH  29  31
ENDBRANCH  26  27
ENDBRANCH   9  26
TORSDOF 8
ENDMDL
MODEL 3
REMARK VINA RESULT:      -8.0      1.458      3.092
REMARK  Name = 
REMARK  13 active torsions:
REMARK  status: ('A' for Active; 'I' for Inactive)
REMARK    1  A    between atoms: C_1  and  O_2
REMARK    2  A    between atoms: O_2  and  C_3
REMARK    3  A    between atoms: C_5  and  C_6
REMARK    4  A    between atoms: N_8  and  C_9
REMARK    5  A    between atoms: N_17  and  C_18
REMARK    6  A    between atoms: C_18  and  C_19
REMARK    7  A    between atoms: N_21  and  C_22
REMARK    8  A    between atoms: C_23  and  C_24
REMARK    9  A    between atoms: C_28  and  C_29
REMARK   10  A    between atoms: C_31  and  O_32
REMARK   11  A    between atoms: O_32  and  C_33
REMARK   12  A    between atoms: C_34  and  O_35
REMARK   13  A    between atoms: O_35  and  C_36
REMARK                            x       y       z     vdW  Elec       q    Type
REMARK                         _______ _______ _______ _____ _____    ______ ____
ROOT
ATOM      1  C   UNL     1       0.868  10.059  19.610  0.00  0.00    +0.000 C 
ATOM      2  C   UNL     1      -0.612  10.083  19.234  0.00  0.00    +0.000 C 
ATOM      3  C   UNL     1      -1.273  11.456  19.471  0.00  0.00    +0.000 C 
ATOM      4  C   UNL     1      -0.790  12.533  18.476  0.00  0.00    +0.000 C 
ATOM      5  C   UNL     1       0.591  13.120  18.768  0.00  0.00    +0.000 C 
ATOM      6  C   UNL     1       0.943  13.200  20.253  0.00  0.00    +0.000 C 
ATOM      7  C   UNL     1       0.353  12.079  21.127  0.00  0.00    +0.000 C 
ATOM      8  C   UNL     1       1.091  10.731  20.970  0.00  0.00    +0.000 C 
ATOM      9  N   UNL     1      -1.087  11.850  20.889  0.00  0.00    +0.000 NA
ENDROOT
BRANCH   1  12
ATOM     10  C   UNL     1       2.102   8.169  18.552  0.00  0.00    +0.000 C 
ATOM     11  O   UNL     1       2.278   8.788  17.510  0.00  0.00    +0.000 OA
ATOM     12  N   UNL     1       1.395   8.696  19.620  0.00  0.00    +0.000 N 
ATOM     13  H   UNL     1       1.155   8.118  20.409  0.00  0.00    +0.000 HD
BRANCH  10  16
ATOM     14  C   UNL     1       2.779   4.737  20.008  0.00  0.00    +0.000 A 
ATOM     15  C   UNL     1       2.400   6.086  19.868  0.00  0.00    +0.000 A 
ATOM     16  C   UNL     1       2.727   6.822  18.728  0.00  0.00    +0.000 A 
ATOM     17  C   UNL     1       3.544   6.218  17.774  0.00  0.00    +0.000 A 
ATOM     18  C   UNL     1       4.013   4.902  17.932  0.00  0.00    +0.000 A 
ATOM     19  C   UNL     1       3.632   4.140  19.056  0.00  0.00    +0.000 A 
BRANCH  14  21
ATOM     20  C   UNL     1       1.109   3.294  20.871  0.00  0.00    +0.000 C 
ATOM     21  O   UNL     1       2.331   4.008  21.080  0.00  0.00    +0.000 OA
ENDBRANCH  14  21
BRANCH  18  22
ATOM     22  O   UNL     1       4.800   4.534  16.868  0.00  0.00    +0.000 OA
ATOM     23  C   UNL     1       6.184   4.841  16.874  0.00  0.00    +0.000 C 
ENDBRANCH  18  22
BRANCH  19  24
ATOM     24  O   UNL     1       4.155   2.877  19.121  0.00  0.00    +0.000 OA
ATOM     25  C   UNL     1       3.481   1.761  18.568  0.00  0.00    +0.000 C 
ENDBRANCH  19  24
ENDBRANCH  10  16
ENDBRANCH   1  12
BRANCH   9  26
ATOM     26  C   UNL     1      -1.936  13.029  21.215  0.00  0.00    +0.000 C 
BRANCH  26  27
ATOM     27  C   UNL     1      -3.424  12.792  20.950  0.00  0.00    +0.000 C 
ATOM     28  O   UNL     1      -4.086  12.059  21.683  0.00  0.00    +0.000 OA
ATOM     29  N   UNL     1      -3.908  13.488  19.849  0.00  0.00    +0.000 N 
ATOM     30  H   UNL     1      -3.197  13.611  19.136  0.00  0.00    +0.000 HD
BRANCH  29  31
ATOM     31  C   UNL     1      -5.257  13.357  19.436  0.00  0.00    +0.000 A 
ATOM     32  C   UNL     1      -5.646  12.359  18.513  0.00  0.00    +0.000 A 
ATOM     33  C   UNL     1      -4.744  11.251  18.036  0.00  0.00    +0.000 C 
ATOM     34  C   UNL     1      -6.973  12.335  18.054  0.00  0.00    +0.000 A 
ATOM     35  C   UNL     1      -7.916  13.241  18.530  0.00  0.00    +0.000 A 
ATOM     36  C   UNL     1      -7.544  14.169  19.501  0.00  0.00    +0.000 A 
ATOM     37  C   UNL     1      -6.222  14.240  19.961  0.00  0.00    +0.000 A 
ATOM     38  C   UNL     1      -5.885  15.286  20.989  0.00  0.00    +0.000 C 
ENDBRANCH  29  31
ENDBRANCH  26  27
ENDBRANCH   9  26
TORSDOF 8
ENDMDL
MODEL 4
REMARK VINA RESULT:      -7.9      0.751      2.684
REMARK  Name = 
REMARK  13 active torsions:
REMARK  status: ('A' for Active; 'I' for Inactive)
REMARK    1  A    between atoms: C_1  and  O_2
REMARK    2  A    between atoms: O_2  and  C_3
REMARK    3  A    between atoms: C_5  and  C_6
REMARK    4  A    between atoms: N_8  and  C_9
REMARK    5  A    between atoms: N_17  and  C_18
REMARK    6  A    between atoms: C_18  and  C_19
REMARK    7  A    between atoms: N_21  and  C_22
REMARK    8  A    between atoms: C_23  and  C_24
REMARK    9  A    between atoms: C_28  and  C_29
REMARK   10  A    between atoms: C_31  and  O_32
REMARK   11  A    between atoms: O_32  and  C_33
REMARK   12  A    between atoms: C_34  and  O_35
REMARK   13  A    between atoms: O_35  and  C_36
REMARK                            x       y       z     vdW  Elec       q    Type
REMARK                         _______ _______ _______ _____ _____    ______ ____
ROOT
ATOM      1  C   UNL     1       0.663  10.551  19.459  0.00  0.00    +0.000 C 
ATOM      2  C   UNL     1      -0.849  10.473  19.664  0.00  0.00    +0.000 C 
ATOM      3  C   UNL     1      -1.499  11.853  19.893  0.00  0.00    +0.000 C 
ATOM      4  C   UNL     1      -1.508  12.728  18.621  0.00  0.00    +0.000 C 
ATOM      5  C   UNL     1      -0.174  13.387  18.271  0.00  0.00    +0.000 C 
ATOM      6  C   UNL     1       0.684  13.758  19.480  0.00  0.00    +0.000 C 
ATOM      7  C   UNL     1       0.555  12.814  20.688  0.00  0.00    +0.000 C 
ATOM      8  C   UNL     1       1.303  11.477  20.500  0.00  0.00    +0.000 C 
ATOM      9  N   UNL     1      -0.847  12.516  21.049  0.00  0.00    +0.000 NA
ENDROOT
BRANCH   1  12
ATOM     10  C   UNL     1       1.970   8.696  18.429  0.00  0.00    +0.000 C 
ATOM     11  O   UNL     1       2.061   9.276  17.354  0.00  0.00    +0.000 OA
ATOM     12  N   UNL     1       1.277   9.226  19.504  0.00  0.00    +0.000 N 
ATOM     13  H   UNL     1       1.109   8.672  20.327  0.00  0.00    +0.000 HD
BRANCH  10  16
ATOM     14  C   UNL     1       2.808   5.299  19.882  0.00  0.00    +0.000 A 
ATOM     15  C   UNL     1       2.331   6.614  19.733  0.00  0.00    +0.000 A 
ATOM     16  C   UNL     1       2.689   7.400  18.635  0.00  0.00    +0.000 A 
ATOM     17  C   UNL     1       3.628   6.886  17.743  0.00  0.00    +0.000 A 
ATOM     18  C   UNL     1       4.190   5.610  17.919  0.00  0.00    +0.000 A 
ATOM     19  C   UNL     1       3.783   4.794  18.995  0.00  0.00    +0.000 A 
BRANCH  14  21
ATOM     20  C   UNL     1       1.106   3.833  20.636  0.00  0.00    +0.000 C 
ATOM     21  O   UNL     1       2.336   4.511  20.902  0.00  0.00    +0.000 OA
ENDBRANCH  14  21
BRANCH  18  22
ATOM     22  O   UNL     1       5.089   5.331  16.918  0.00  0.00    +0.000 OA
ATOM     23  C   UNL     1       5.204   6.205  15.808  0.00  0.00    +0.000 C 
ENDBRANCH  18  22
BRANCH  19  24
ATOM     24  O   UNL     1       4.401   3.577  19.083  0.00  0.00    +0.000 OA
ATOM     25  C   UNL     1       3.817   2.402  18.550  0.00  0.00    +0.000 C 
ENDBRANCH  19  24
ENDBRANCH  10  16
ENDBRANCH   1  12
BRANCH   9  26
ATOM     26  C   UNL     1      -1.622  13.719  21.461  0.00  0.00    +0.000 C 
BRANCH  26  27
ATOM     27  C   UNL     1      -2.929  13.377  22.178  0.00  0.00    +0.000 C 
ATOM     28  O   UNL     1      -2.973  12.475  23.013  0.00  0.00    +0.000 OA
ATOM     29  N   UNL     1      -3.995  14.185  21.801  0.00  0.00    +0.000 N 
ATOM     30  H   UNL     1      -3.917  14.489  20.836  0.00  0.00    +0.000 HD
BRANCH  29  31
ATOM     31  C   UNL     1      -5.291  13.984  22.338  0.00  0.00    +0.000 A 
ATOM     32  C   UNL     1      -6.195  13.071  21.748  0.00  0.00    +0.000 A 
ATOM     33  C   UNL     1      -5.828  12.111  20.647  0.00  0.00    +0.000 C 
ATOM     34  C   UNL     1      -7.502  12.984  22.252  0.00  0.00    +0.000 A 
ATOM     35  C   UNL     1      -7.903  13.741  23.349  0.00  0.00    +0.000 A 
ATOM     36  C   UNL     1      -6.981  14.577  23.976  0.00  0.00    +0.000 A 
ATOM     37  C   UNL     1      -5.676  14.711  23.482  0.00  0.00    +0.000 A 
ATOM     38  C   UNL     1      -4.744  15.654  24.193  0.00  0.00    +0.000 C 
ENDBRANCH  29  31
ENDBRANCH  26  27
ENDBRANCH   9  26
TORSDOF 8
ENDMDL
MODEL 5
REMARK VINA RESULT:      -7.9      0.797      1.655
REMARK  Name = 
REMARK  13 active torsions:
REMARK  status: ('A' for Active; 'I' for Inactive)
REMARK    1  A    between atoms: C_1  and  O_2
REMARK    2  A    between atoms: O_2  and  C_3
REMARK    3  A    between atoms: C_5  and  C_6
REMARK    4  A    between atoms: N_8  and  C_9
REMARK    5  A    between atoms: N_17  and  C_18
REMARK    6  A    between atoms: C_18  and  C_19
REMARK    7  A    between atoms: N_21  and  C_22
REMARK    8  A    between atoms: C_23  and  C_24
REMARK    9  A    between atoms: C_28  and  C_29
REMARK   10  A    between atoms: C_31  and  O_32
REMARK   11  A    between atoms: O_32  and  C_33
REMARK   12  A    between atoms: C_34  and  O_35
REMARK   13  A    between atoms: O_35  and  C_36
REMARK                            x       y       z     vdW  Elec       q    Type
REMARK                         _______ _______ _______ _____ _____    ______ ____
ROOT
ATOM      1  C   UNL     1       1.000  10.249  19.410  0.00  0.00    +0.000 C 
ATOM      2  C   UNL     1      -0.247  10.595  18.599  0.00  0.00    +0.000 C 
ATOM      3  C   UNL     1      -0.838  11.974  18.959  0.00  0.00    +0.000 C 
ATOM      4  C   UNL     1       0.047  13.146  18.485  0.00  0.00    +0.000 C 
ATOM      5  C   UNL     1       1.281  13.423  19.344  0.00  0.00    +0.000 C 
ATOM      6  C   UNL     1       1.095  13.123  20.831  0.00  0.00    +0.000 C 
ATOM      7  C   UNL     1       0.149  11.951  21.149  0.00  0.00    +0.000 C 
ATOM      8  C   UNL     1       0.785  10.567  20.894  0.00  0.00    +0.000 C 
ATOM      9  N   UNL     1      -1.130  12.018  20.412  0.00  0.00    +0.000 NA
ENDROOT
BRANCH   1  12
ATOM     10  C   UNL     1       2.116   8.413  18.146  0.00  0.00    +0.000 C 
ATOM     11  O   UNL     1       2.442   9.160  17.232  0.00  0.00    +0.000 OA
ATOM     12  N   UNL     1       1.379   8.849  19.235  0.00  0.00    +0.000 N 
ATOM     13  H   UNL     1       1.015   8.190  19.902  0.00  0.00    +0.000 HD
BRANCH  10  16
ATOM     14  C   UNL     1       4.482   5.458  18.013  0.00  0.00    +0.000 A 
ATOM     15  C   UNL     1       3.919   6.736  17.837  0.00  0.00    +0.000 A 
ATOM     16  C   UNL     1       2.581   6.992  18.144  0.00  0.00    +0.000 A 
ATOM     17  C   UNL     1       1.780   5.916  18.523  0.00  0.00    +0.000 A 
ATOM     18  C   UNL     1       2.297   4.611  18.617  0.00  0.00    +0.000 A 
ATOM     19  C   UNL     1       3.662   4.364  18.364  0.00  0.00    +0.000 A 
BRANCH  14  21
ATOM     20  C   UNL     1       6.664   5.689  18.908  0.00  0.00    +0.000 C 
ATOM     21  O   UNL     1       5.829   5.272  17.825  0.00  0.00    +0.000 OA
ENDBRANCH  14  21
BRANCH  18  22
ATOM     22  O   UNL     1       1.318   3.727  19.002  0.00  0.00    +0.000 OA
ATOM     23  C   UNL     1       0.979   3.601  20.373  0.00  0.00    +0.000 C 
ENDBRANCH  18  22
BRANCH  19  24
ATOM     24  O   UNL     1       4.058   3.060  18.471  0.00  0.00    +0.000 OA
ATOM     25  C   UNL     1       4.476   2.504  19.704  0.00  0.00    +0.000 C 
ENDBRANCH  19  24
ENDBRANCH  10  16
ENDBRANCH   1  12
BRANCH   9  26
ATOM     26  C   UNL     1      -1.942  13.221  20.742  0.00  0.00    +0.000 C 
BRANCH  26  27
ATOM     27  C   UNL     1      -3.125  12.915  21.662  0.00  0.00    +0.000 C 
ATOM     28  O   UNL     1      -3.017  12.106  22.582  0.00  0.00    +0.000 OA
ATOM     29  N   UNL     1      -4.268  13.644  21.355  0.00  0.00    +0.000 N 
ATOM     30  H   UNL     1      -4.332  13.847  20.362  0.00  0.00    +0.000 HD
BRANCH  29  31
ATOM     31  C   UNL     1      -5.471  13.460  22.081  0.00  0.00    +0.000 A 
ATOM     32  C   UNL     1      -6.482  12.588  21.616  0.00  0.00    +0.000 A 
ATOM     33  C   UNL     1      -6.318  11.652  20.448  0.00  0.00    +0.000 C 
ATOM     34  C   UNL     1      -7.697  12.520  22.315  0.00  0.00    +0.000 A 
ATOM     35  C   UNL     1      -7.901  13.253  23.480  0.00  0.00    +0.000 A 
ATOM     36  C   UNL     1      -6.869  14.048  23.977  0.00  0.00    +0.000 A 
ATOM     37  C   UNL     1      -5.653  14.163  23.290  0.00  0.00    +0.000 A 
ATOM     38  C   UNL     1      -4.594  15.061  23.870  0.00  0.00    +0.000 C 
ENDBRANCH  29  31
ENDBRANCH  26  27
ENDBRANCH   9  26
TORSDOF 8
ENDMDL
MODEL 6
REMARK VINA RESULT:      -7.8      1.023      2.522
REMARK  Name = 
REMARK  13 active torsions:
REMARK  status: ('A' for Active; 'I' for Inactive)
REMARK    1  A    between atoms: C_1  and  O_2
REMARK    2  A    between atoms: O_2  and  C_3
REMARK    3  A    between atoms: C_5  and  C_6
REMARK    4  A    between atoms: N_8  and  C_9
REMARK    5  A    between atoms: N_17  and  C_18
REMARK    6  A    between atoms: C_18  and  C_19
REMARK    7  A    between atoms: N_21  and  C_22
REMARK    8  A    between atoms: C_23  and  C_24
REMARK    9  A    between atoms: C_28  and  C_29
REMARK   10  A    between atoms: C_31  and  O_32
REMARK   11  A    between atoms: O_32  and  C_33
REMARK   12  A    between atoms: C_34  and  O_35
REMARK   13  A    between atoms: O_35  and  C_36
REMARK                            x       y       z     vdW  Elec       q    Type
REMARK                         _______ _______ _______ _____ _____    ______ ____
ROOT
ATOM      1  C   UNL     1       0.981  10.521  19.471  0.00  0.00    +0.000 C 
ATOM      2  C   UNL     1      -0.244  10.710  18.580  0.00  0.00    +0.000 C 
ATOM      3  C   UNL     1      -0.942  12.069  18.793  0.00  0.00    +0.000 C 
ATOM      4  C   UNL     1      -0.114  13.257  18.259  0.00  0.00    +0.000 C 
ATOM      5  C   UNL     1       1.054  13.691  19.144  0.00  0.00    +0.000 C 
ATOM      6  C   UNL     1       0.816  13.503  20.642  0.00  0.00    +0.000 C 
ATOM      7  C   UNL     1      -0.065  12.298  21.018  0.00  0.00    +0.000 C 
ATOM      8  C   UNL     1       0.673  10.946  20.912  0.00  0.00    +0.000 C 
ATOM      9  N   UNL     1      -1.308  12.213  20.223  0.00  0.00    +0.000 NA
ENDROOT
BRANCH   1  12
ATOM     10  C   UNL     1       2.145   8.626  18.347  0.00  0.00    +0.000 C 
ATOM     11  O   UNL     1       2.337   9.271  17.324  0.00  0.00    +0.000 OA
ATOM     12  N   UNL     1       1.461   9.142  19.435  0.00  0.00    +0.000 N 
ATOM     13  H   UNL     1       1.205   8.548  20.206  0.00  0.00    +0.000 HD
BRANCH  10  16
ATOM     14  C   UNL     1       2.641   5.093  19.622  0.00  0.00    +0.000 A 
ATOM     15  C   UNL     1       2.305   6.458  19.545  0.00  0.00    +0.000 A 
ATOM     16  C   UNL     1       2.724   7.253  18.476  0.00  0.00    +0.000 A 
ATOM     17  C   UNL     1       3.587   6.686  17.540  0.00  0.00    +0.000 A 
ATOM     18  C   UNL     1       4.012   5.350  17.644  0.00  0.00    +0.000 A 
ATOM     19  C   UNL     1       3.540   4.531  18.691  0.00  0.00    +0.000 A 
BRANCH  14  21
ATOM     20  C   UNL     1       0.843   3.714  20.315  0.00  0.00    +0.000 C 
ATOM     21  O   UNL     1       2.106   4.312  20.616  0.00  0.00    +0.000 OA
ENDBRANCH  14  21
BRANCH  18  22
ATOM     22  O   UNL     1       4.858   5.026  16.611  0.00  0.00    +0.000 OA
ATOM     23  C   UNL     1       5.262   6.025  15.689  0.00  0.00    +0.000 C 
ENDBRANCH  18  22
BRANCH  19  24
ATOM     24  O   UNL     1       4.027   3.253  18.709  0.00  0.00    +0.000 OA
ATOM     25  C   UNL     1       3.340   2.184  18.082  0.00  0.00    +0.000 C 
ENDBRANCH  19  24
ENDBRANCH  10  16
ENDBRANCH   1  12
BRANCH   9  26
ATOM     26  C   UNL     1      -2.214  13.380  20.412  0.00  0.00    +0.000 C 
BRANCH  26  27
ATOM     27  C   UNL     1      -3.602  12.988  20.918  0.00  0.00    +0.000 C 
ATOM     28  O   UNL     1      -4.171  11.986  20.489  0.00  0.00    +0.000 OA
ATOM     29  N   UNL     1      -4.102  13.851  21.887  0.00  0.00    +0.000 N 
ATOM     30  H   UNL     1      -3.771  14.801  21.754  0.00  0.00    +0.000 HD
BRANCH  29  31
ATOM     31  C   UNL     1      -5.392  13.661  22.441  0.00  0.00    +0.000 A 
ATOM     32  C   UNL     1      -6.553  14.089  21.757  0.00  0.00    +0.000 A 
ATOM     33  C   UNL     1      -6.560  14.599  20.341  0.00  0.00    +0.000 C 
ATOM     34  C   UNL     1      -7.800  13.974  22.394  0.00  0.00    +0.000 A 
ATOM     35  C   UNL     1      -7.914  13.401  23.656  0.00  0.00    +0.000 A 
ATOM     36  C   UNL     1      -6.775  12.906  24.288  0.00  0.00    +0.000 A 
ATOM     37  C   UNL     1      -5.511  13.030  23.696  0.00  0.00    +0.000 A 
ATOM     38  C   UNL     1      -4.321  12.499  24.449  0.00  0.00    +0.000 C 
ENDBRANCH  29  31
ENDBRANCH  26  27
ENDBRANCH   9  26
TORSDOF 8
ENDMDL
MODEL 7
REMARK VINA RESULT:      -7.7      1.174      1.551
REMARK  Name = 
REMARK  13 active torsions:
REMARK  status: ('A' for Active; 'I' for Inactive)
REMARK    1  A    between atoms: C_1  and  O_2
REMARK    2  A    between atoms: O_2  and  C_3
REMARK    3  A    between atoms: C_5  and  C_6
REMARK    4  A    between atoms: N_8  and  C_9
REMARK    5  A    between atoms: N_17  and  C_18
REMARK    6  A    between atoms: C_18  and  C_19
REMARK    7  A    between atoms: N_21  and  C_22
REMARK    8  A    between atoms: C_23  and  C_24
REMARK    9  A    between atoms: C_28  and  C_29
REMARK   10  A    between atoms: C_31  and  O_32
REMARK   11  A    between atoms: O_32  and  C_33
REMARK   12  A    between atoms: C_34  and  O_35
REMARK   13  A    between atoms: O_35  and  C_36
REMARK                            x       y       z     vdW  Elec       q    Type
REMARK                         _______ _______ _______ _____ _____    ______ ____
ROOT
ATOM      1  C   UNL     1       0.879  10.930  19.511  0.00  0.00    +0.000 C 
ATOM      2  C   UNL     1      -0.566  11.118  19.055  0.00  0.00    +0.000 C 
ATOM      3  C   UNL     1      -1.113  12.530  19.347  0.00  0.00    +0.000 C 
ATOM      4  C   UNL     1      -0.472  13.616  18.456  0.00  0.00    +0.000 C 
ATOM      5  C   UNL     1       0.936  14.050  18.864  0.00  0.00    +0.000 C 
ATOM      6  C   UNL     1       1.201  14.004  20.368  0.00  0.00    +0.000 C 
ATOM      7  C   UNL     1       0.458  12.891  21.129  0.00  0.00    +0.000 C 
ATOM      8  C   UNL     1       1.078  11.492  20.923  0.00  0.00    +0.000 C 
ATOM      9  N   UNL     1      -0.980  12.816  20.797  0.00  0.00    +0.000 NA
ENDROOT
BRANCH   1  12
ATOM     10  C   UNL     1       1.958   8.990  18.376  0.00  0.00    +0.000 C 
ATOM     11  O   UNL     1       2.215   9.643  17.372  0.00  0.00    +0.000 OA
ATOM     12  N   UNL     1       1.278   9.525  19.457  0.00  0.00    +0.000 N 
ATOM     13  H   UNL     1       0.967   8.933  20.210  0.00  0.00    +0.000 HD
BRANCH  10  16
ATOM     14  C   UNL     1       3.970   5.868  17.632  0.00  0.00    +0.000 A 
ATOM     15  C   UNL     1       3.302   7.099  17.494  0.00  0.00    +0.000 A 
ATOM     16  C   UNL     1       2.452   7.583  18.491  0.00  0.00    +0.000 A 
ATOM     17  C   UNL     1       2.191   6.759  19.584  0.00  0.00    +0.000 A 
ATOM     18  C   UNL     1       2.775   5.485  19.701  0.00  0.00    +0.000 A 
ATOM     19  C   UNL     1       3.679   5.021  18.723  0.00  0.00    +0.000 A 
BRANCH  14  21
ATOM     20  C   UNL     1       6.232   5.937  16.927  0.00  0.00    +0.000 C 
ATOM     21  O   UNL     1       4.896   5.484  16.694  0.00  0.00    +0.000 OA
ENDBRANCH  14  21
BRANCH  18  22
ATOM     22  O   UNL     1       2.362   4.865  20.855  0.00  0.00    +0.000 OA
ATOM     23  C   UNL     1       1.284   3.945  20.817  0.00  0.00    +0.000 C 
ENDBRANCH  18  22
BRANCH  19  24
ATOM     24  O   UNL     1       4.178   3.765  18.925  0.00  0.00    +0.000 OA
ATOM     25  C   UNL     1       3.640   2.632  18.266  0.00  0.00    +0.000 C 
ENDBRANCH  19  24
ENDBRANCH  10  16
ENDBRANCH   1  12
BRANCH   9  26
ATOM     26  C   UNL     1      -1.736  14.048  21.154  0.00  0.00    +0.000 C 
BRANCH  26  27
ATOM     27  C   UNL     1      -3.237  13.931  20.890  0.00  0.00    +0.000 C 
ATOM     28  O   UNL     1      -3.891  14.904  20.520  0.00  0.00    +0.000 OA
ATOM     29  N   UNL     1      -3.736  12.648  21.089  0.00  0.00    +0.000 N 
ATOM     30  H   UNL     1      -3.226  12.153  21.813  0.00  0.00    +0.000 HD
BRANCH  29  31
ATOM     31  C   UNL     1      -5.115  12.366  20.926  0.00  0.00    +0.000 A 
ATOM     32  C   UNL     1      -6.027  12.526  21.994  0.00  0.00    +0.000 A 
ATOM     33  C   UNL     1      -5.681  13.172  23.310  0.00  0.00    +0.000 C 
ATOM     34  C   UNL     1      -7.363  12.133  21.814  0.00  0.00    +0.000 A 
ATOM     35  C   UNL     1      -7.810  11.640  20.593  0.00  0.00    +0.000 A 
ATOM     36  C   UNL     1      -6.924  11.562  19.521  0.00  0.00    +0.000 A 
ATOM     37  C   UNL     1      -5.576  11.918  19.672  0.00  0.00    +0.000 A 
ATOM     38  C   UNL     1      -4.670  11.781  18.478  0.00  0.00    +0.000 C 
ENDBRANCH  29  31
ENDBRANCH  26  27
ENDBRANCH   9  26
TORSDOF 8
ENDMDL
MODEL 8
REMARK VINA RESULT:      -7.7      1.235      1.914
REMARK  Name = 
REMARK  13 active torsions:
REMARK  status: ('A' for Active; 'I' for Inactive)
REMARK    1  A    between atoms: C_1  and  O_2
REMARK    2  A    between atoms: O_2  and  C_3
REMARK    3  A    between atoms: C_5  and  C_6
REMARK    4  A    between atoms: N_8  and  C_9
REMARK    5  A    between atoms: N_17  and  C_18
REMARK    6  A    between atoms: C_18  and  C_19
REMARK    7  A    between atoms: N_21  and  C_22
REMARK    8  A    between atoms: C_23  and  C_24
REMARK    9  A    between atoms: C_28  and  C_29
REMARK   10  A    between atoms: C_31  and  O_32
REMARK   11  A    between atoms: O_32  and  C_33
REMARK   12  A    between atoms: C_34  and  O_35
REMARK   13  A    between atoms: O_35  and  C_36
REMARK                            x       y       z     vdW  Elec       q    Type
REMARK                         _______ _______ _______ _____ _____    ______ ____
ROOT
ATOM      1  C   UNL     1       0.872  11.050  19.483  0.00  0.00    +0.000 C 
ATOM      2  C   UNL     1      -0.599  11.240  19.117  0.00  0.00    +0.000 C 
ATOM      3  C   UNL     1      -1.116  12.662  19.415  0.00  0.00    +0.000 C 
ATOM      4  C   UNL     1      -0.529  13.725  18.462  0.00  0.00    +0.000 C 
ATOM      5  C   UNL     1       0.906  14.156  18.768  0.00  0.00    +0.000 C 
ATOM      6  C   UNL     1       1.268  14.139  20.252  0.00  0.00    +0.000 C 
ATOM      7  C   UNL     1       0.569  13.048  21.084  0.00  0.00    +0.000 C 
ATOM      8  C   UNL     1       1.165  11.641  20.867  0.00  0.00    +0.000 C 
ATOM      9  N   UNL     1      -0.888  12.977  20.846  0.00  0.00    +0.000 NA
ENDROOT
BRANCH   1  12
ATOM     10  C   UNL     1       1.966   9.107  18.371  0.00  0.00    +0.000 C 
ATOM     11  O   UNL     1       2.261   9.763  17.380  0.00  0.00    +0.000 OA
ATOM     12  N   UNL     1       1.257   9.642  19.433  0.00  0.00    +0.000 N 
ATOM     13  H   UNL     1       0.917   9.049  20.172  0.00  0.00    +0.000 HD
BRANCH  10  16
ATOM     14  C   UNL     1       4.003   5.982  17.706  0.00  0.00    +0.000 A 
ATOM     15  C   UNL     1       3.353   7.221  17.547  0.00  0.00    +0.000 A 
ATOM     16  C   UNL     1       2.442   7.694  18.493  0.00  0.00    +0.000 A 
ATOM     17  C   UNL     1       2.102   6.852  19.550  0.00  0.00    +0.000 A 
ATOM     18  C   UNL     1       2.668   5.572  19.683  0.00  0.00    +0.000 A 
ATOM     19  C   UNL     1       3.633   5.118  18.759  0.00  0.00    +0.000 A 
BRANCH  14  21
ATOM     20  C   UNL     1       6.169   6.409  16.847  0.00  0.00    +0.000 C 
ATOM     21  O   UNL     1       4.986   5.607  16.826  0.00  0.00    +0.000 OA
ENDBRANCH  14  21
BRANCH  18  22
ATOM     22  O   UNL     1       2.175   4.934  20.796  0.00  0.00    +0.000 OA
ATOM     23  C   UNL     1       1.085   4.035  20.670  0.00  0.00    +0.000 C 
ENDBRANCH  18  22
BRANCH  19  24
ATOM     24  O   UNL     1       4.109   3.854  18.971  0.00  0.00    +0.000 OA
ATOM     25  C   UNL     1       3.580   2.733  18.288  0.00  0.00    +0.000 C 
ENDBRANCH  19  24
ENDBRANCH  10  16
ENDBRANCH   1  12
BRANCH   9  26
ATOM     26  C   UNL     1      -1.612  14.222  21.225  0.00  0.00    +0.000 C 
BRANCH  26  27
ATOM     27  C   UNL     1      -3.129  14.106  21.074  0.00  0.00    +0.000 C 
ATOM     28  O   UNL     1      -3.795  15.049  20.651  0.00  0.00    +0.000 OA
ATOM     29  N   UNL     1      -3.628  12.859  21.435  0.00  0.00    +0.000 N 
ATOM     30  H   UNL     1      -3.076  12.430  22.171  0.00  0.00    +0.000 HD
BRANCH  29  31
ATOM     31  C   UNL     1      -5.018  12.587  21.392  0.00  0.00    +0.000 A 
ATOM     32  C   UNL     1      -5.654  12.214  20.186  0.00  0.00    +0.000 A 
ATOM     33  C   UNL     1      -4.923  11.890  18.910  0.00  0.00    +0.000 C 
ATOM     34  C   UNL     1      -7.049  12.057  20.172  0.00  0.00    +0.000 A 
ATOM     35  C   UNL     1      -7.803  12.213  21.331  0.00  0.00    +0.000 A 
ATOM     36  C   UNL     1      -7.159  12.500  22.533  0.00  0.00    +0.000 A 
ATOM     37  C   UNL     1      -5.771  12.692  22.579  0.00  0.00    +0.000 A 
ATOM     38  C   UNL     1      -5.146  13.028  23.906  0.00  0.00    +0.000 C 
ENDBRANCH  29  31
ENDBRANCH  26  27
ENDBRANCH   9  26
TORSDOF 8
ENDMDL
MODEL 9
REMARK VINA RESULT:      -7.7      1.677      1.956
REMARK  Name = 
REMARK  13 active torsions:
REMARK  status: ('A' for Active; 'I' for Inactive)
REMARK    1  A    between atoms: C_1  and  O_2
REMARK    2  A    between atoms: O_2  and  C_3
REMARK    3  A    between atoms: C_5  and  C_6
REMARK    4  A    between atoms: N_8  and  C_9
REMARK    5  A    between atoms: N_17  and  C_18
REMARK    6  A    between atoms: C_18  and  C_19
REMARK    7  A    between atoms: N_21  and  C_22
REMARK    8  A    between atoms: C_23  and  C_24
REMARK    9  A    between atoms: C_28  and  C_29
REMARK   10  A    between atoms: C_31  and  O_32
REMARK   11  A    between atoms: O_32  and  C_33
REMARK   12  A    between atoms: C_34  and  O_35
REMARK   13  A    between atoms: O_35  and  C_36
REMARK                            x       y       z     vdW  Elec       q    Type
REMARK                         _______ _______ _______ _____ _____    ______ ____
ROOT
ATOM      1  C   UNL     1       0.889  10.078  19.454  0.00  0.00    +0.000 C 
ATOM      2  C   UNL     1      -0.495  10.340  18.864  0.00  0.00    +0.000 C 
ATOM      3  C   UNL     1      -1.089  11.697  19.293  0.00  0.00    +0.000 C 
ATOM      4  C   UNL     1      -0.362  12.898  18.652  0.00  0.00    +0.000 C 
ATOM      5  C   UNL     1       0.984  13.259  19.281  0.00  0.00    +0.000 C 
ATOM      6  C   UNL     1       1.072  12.992  20.783  0.00  0.00    +0.000 C 
ATOM      7  C   UNL     1       0.259  11.784  21.281  0.00  0.00    +0.000 C 
ATOM      8  C   UNL     1       0.915  10.427  20.947  0.00  0.00    +0.000 C 
ATOM      9  N   UNL     1      -1.130  11.767  20.775  0.00  0.00    +0.000 NA
ENDROOT
BRANCH   1  12
ATOM     10  C   UNL     1       2.191   8.334  18.239  0.00  0.00    +0.000 C 
ATOM     11  O   UNL     1       2.628   9.141  17.427  0.00  0.00    +0.000 OA
ATOM     12  N   UNL     1       1.308   8.695  19.243  0.00  0.00    +0.000 N 
ATOM     13  H   UNL     1       0.865   7.991  19.811  0.00  0.00    +0.000 HD
BRANCH  10  16
ATOM     14  C   UNL     1       4.562   5.402  17.880  0.00  0.00    +0.000 A 
ATOM     15  C   UNL     1       3.965   6.670  17.748  0.00  0.00    +0.000 A 
ATOM     16  C   UNL     1       2.671   6.918  18.209  0.00  0.00    +0.000 A 
ATOM     17  C   UNL     1       1.936   5.842  18.702  0.00  0.00    +0.000 A 
ATOM     18  C   UNL     1       2.477   4.546  18.760  0.00  0.00    +0.000 A 
ATOM     19  C   UNL     1       3.805   4.308  18.349  0.00  0.00    +0.000 A 
BRANCH  14  21
ATOM     20  C   UNL     1       6.814   5.310  18.615  0.00  0.00    +0.000 C 
ATOM     21  O   UNL     1       5.879   5.227  17.535  0.00  0.00    +0.000 OA
ENDBRANCH  14  21
BRANCH  18  22
ATOM     22  O   UNL     1       1.563   3.659  19.276  0.00  0.00    +0.000 OA
ATOM     23  C   UNL     1       1.062   3.845  20.590  0.00  0.00    +0.000 C 
ENDBRANCH  18  22
BRANCH  19  24
ATOM     24  O   UNL     1       4.228   3.010  18.433  0.00  0.00    +0.000 OA
ATOM     25  C   UNL     1       4.416   2.365  19.679  0.00  0.00    +0.000 C 
ENDBRANCH  19  24
ENDBRANCH  10  16
ENDBRANCH   1  12
BRANCH   9  26
ATOM     26  C   UNL     1      -1.937  12.937  21.216  0.00  0.00    +0.000 C 
BRANCH  26  27
ATOM     27  C   UNL     1      -3.436  12.763  20.967  0.00  0.00    +0.000 C 
ATOM     28  O   UNL     1      -4.149  12.188  21.787  0.00  0.00    +0.000 OA
ATOM     29  N   UNL     1      -3.867  13.326  19.771  0.00  0.00    +0.000 N 
ATOM     30  H   UNL     1      -3.145  13.298  19.058  0.00  0.00    +0.000 HD
BRANCH  29  31
ATOM     31  C   UNL     1      -5.220  13.226  19.362  0.00  0.00    +0.000 A 
ATOM     32  C   UNL     1      -6.194  14.141  19.824  0.00  0.00    +0.000 A 
ATOM     33  C   UNL     1      -5.879  15.383  20.614  0.00  0.00    +0.000 C 
ATOM     34  C   UNL     1      -7.539  13.938  19.474  0.00  0.00    +0.000 A 
ATOM     35  C   UNL     1      -7.916  12.888  18.644  0.00  0.00    +0.000 A 
ATOM     36  C   UNL     1      -6.939  12.039  18.126  0.00  0.00    +0.000 A 
ATOM     37  C   UNL     1      -5.591  12.194  18.477  0.00  0.00    +0.000 A 
ATOM     38  C   UNL     1      -4.595  11.223  17.903  0.00  0.00    +0.000 C 
ENDBRANCH  29  31
ENDBRANCH  26  27
ENDBRANCH   9  26
TORSDOF 8
ENDMDL
