MODEL 1
REMARK VINA RESULT:      -8.0      0.000      0.000
REMARK  Name = 
REMARK  11 active torsions:
REMARK  status: ('A' for Active; 'I' for Inactive)
REMARK    1  A    between atoms: C_1  and  C_2
REMARK    2  A    between atoms: C_2  and  C_3
REMARK    3  A    between atoms: C_2  and  C_8
REMARK    4  A    between atoms: C_3  and  C_4
REMARK    5  A    between atoms: C_4  and  C_5
REMARK    6  A    between atoms: C_5  and  O_7
REMARK    7  A    between atoms: C_8  and  C_9
REMARK    8  A    between atoms: C_12  and  C_13
REMARK    9  A    between atoms: C_13  and  O_15
REMARK   10  A    between atoms: O_15  and  C_16
REMARK   11  A    between atoms: C_19  and  C_20
REMARK                            x       y       z     vdW  Elec       q    Type
REMARK                         _______ _______ _______ _____ _____    ______ ____
ROOT
ATOM      1  C   UNL     1       7.187   6.522  17.082  0.00  0.00    +0.000 C 
ATOM      2  O   UNL     1       7.596   7.658  16.868  0.00  0.00    +0.000 OA
ENDROOT
BRANCH   1   6
ATOM      3  C   UNL     1       3.672   5.674  18.528  0.00  0.00    +0.000 A 
ATOM      4  C   UNL     1       4.590   5.106  19.388  0.00  0.00    +0.000 A 
ATOM      5  C   UNL     1       5.935   5.384  19.010  0.00  0.00    +0.000 A 
ATOM      6  C   UNL     1       6.014   6.147  17.859  0.00  0.00    +0.000 A 
ATOM      7  S   UNL     1       4.453   6.597  17.312  0.00  0.00    +0.000 S 
BRANCH   3   8
ATOM      8  C   UNL     1       2.167   5.585  18.601  0.00  0.00    +0.000 C 
BRANCH   8  10
ATOM      9  C   UNL     1       2.608   3.406  17.352  0.00  0.00    +0.000 C 
ATOM     10  C   UNL     1       1.570   4.246  18.114  0.00  0.00    +0.000 C 
BRANCH  10  11
ATOM     11  C   UNL     1       1.042   3.386  19.289  0.00  0.00    +0.000 C 
BRANCH  11  12
ATOM     12  C   UNL     1       1.316   3.941  20.688  0.00  0.00    +0.000 C 
BRANCH  12  13
ATOM     13  C   UNL     1       1.879   2.865  21.599  0.00  0.00    +0.000 C 
ATOM     14  O   UNL     1       1.244   2.250  22.440  0.00  0.00    +0.000 OA
BRANCH  13  15
ATOM     15  O   UNL     1       3.192   2.636  21.376  0.00  0.00    +0.000 OA
ATOM     16  H   UNL     1       3.786   3.047  22.032  0.00  0.00    +0.000 HD
ENDBRANCH  13  15
ENDBRANCH  12  13
ENDBRANCH  11  12
ENDBRANCH  10  11
ENDBRANCH   8  10
ENDBRANCH   3   8
ENDBRANCH   1   6
BRANCH   1  17
ATOM     17  O   UNL     1       7.746   5.375  16.518  0.00  0.00    +0.000 OA
BRANCH  17  18
ATOM     18  C   UNL     1       7.055   4.850  15.412  0.00  0.00    +0.000 A 
ATOM     19  C   UNL     1       7.526   5.172  14.139  0.00  0.00    +0.000 A 
ATOM     20  C   UNL     1       6.958   4.553  13.020  0.00  0.00    +0.000 A 
ATOM     21  C   UNL     1       5.937   3.605  13.180  0.00  0.00    +0.000 A 
ATOM     22  C   UNL     1       5.469   3.296  14.463  0.00  0.00    +0.000 A 
ATOM     23  C   UNL     1       6.036   3.909  15.580  0.00  0.00    +0.000 A 
BRANCH  21  24
ATOM     24  C   UNL     1       5.358   2.920  11.991  0.00  0.00    +0.000 C 
ATOM     25  N   UNL     1       4.312   3.359  11.363  0.00  0.00    +0.000 NA
ATOM     26  N   UNL     1       5.924   1.783  11.502  0.00  0.00    +0.000 N 
ATOM     27  H   UNL     1       3.920   4.189  11.817  0.00  0.00    +0.000 HD
ATOM     28  H   UNL     1       6.936   1.744  11.529  0.00  0.00    +0.000 HD
ATOM     29  H   UNL     1       5.553   1.571  10.579  0.00  0.00    +0.000 HD
ENDBRANCH  21  24
ENDBRANCH  17  18
ENDBRANCH   1  17
TORSDOF 10
ENDMDL
MODEL 2
REMARK VINA RESULT:      -7.9      1.554      2.415
REMARK  Name = 
REMARK  11 active torsions:
REMARK  status: ('A' for Active; 'I' for Inactive)
REMARK    1  A    between atoms: C_1  and  C_2
REMARK    2  A    between atoms: C_2  and  C_3
REMARK    3  A    between atoms: C_2  and  C_8
REMARK    4  A    between atoms: C_3  and  C_4
REMARK    5  A    between atoms: C_4  and  C_5
REMARK    6  A    between atoms: C_5  and  O_7
REMARK    7  A    between atoms: C_8  and  C_9
REMARK    8  A    between atoms: C_12  and  C_13
REMARK    9  A    between atoms: C_13  and  O_15
REMARK   10  A    between atoms: O_15  and  C_16
REMARK   11  A    between atoms: C_19  and  C_20
REMARK                            x       y       z     vdW  Elec       q    Type
REMARK                         _______ _______ _______ _____ _____    ______ ____
ROOT
ATOM      1  C   UNL     1       7.134   5.389  17.335  0.00  0.00    +0.000 C 
ATOM      2  O   UNL     1       8.028   4.875  18.000  0.00  0.00    +0.000 OA
ENDROOT
BRANCH   1   6
ATOM      3  C   UNL     1       3.668   5.700  19.083  0.00  0.00    +0.000 A 
ATOM      4  C   UNL     1       3.734   6.733  18.169  0.00  0.00    +0.000 A 
ATOM      5  C   UNL     1       4.939   6.713  17.410  0.00  0.00    +0.000 A 
ATOM      6  C   UNL     1       5.774   5.671  17.770  0.00  0.00    +0.000 A 
ATOM      7  S   UNL     1       5.038   4.676  18.957  0.00  0.00    +0.000 S 
BRANCH   3   8
ATOM      8  C   UNL     1       2.558   5.409  20.063  0.00  0.00    +0.000 C 
BRANCH   8  10
ATOM      9  C   UNL     1       2.250   3.544  21.775  0.00  0.00    +0.000 C 
ATOM     10  C   UNL     1       2.259   3.909  20.281  0.00  0.00    +0.000 C 
BRANCH  10  11
ATOM     11  C   UNL     1       0.888   3.499  19.690  0.00  0.00    +0.000 C 
BRANCH  11  12
ATOM     12  C   UNL     1       0.914   2.320  18.715  0.00  0.00    +0.000 C 
BRANCH  12  13
ATOM     13  C   UNL     1       2.162   2.355  17.852  0.00  0.00    +0.000 C 
ATOM     14  O   UNL     1       2.372   3.147  16.947  0.00  0.00    +0.000 OA
BRANCH  13  15
ATOM     15  O   UNL     1       3.056   1.401  18.199  0.00  0.00    +0.000 OA
ATOM     16  H   UNL     1       2.713   0.491  18.132  0.00  0.00    +0.000 HD
ENDBRANCH  13  15
ENDBRANCH  12  13
ENDBRANCH  11  12
ENDBRANCH  10  11
ENDBRANCH   8  10
ENDBRANCH   3   8
ENDBRANCH   1   6
BRANCH   1  17
ATOM     17  O   UNL     1       7.314   5.887  16.044  0.00  0.00    +0.000 OA
BRANCH  17  18
ATOM     18  C   UNL     1       6.943   5.015  15.007  0.00  0.00    +0.000 A 
ATOM     19  C   UNL     1       5.888   4.135  15.243  0.00  0.00    +0.000 A 
ATOM     20  C   UNL     1       5.394   3.356  14.191  0.00  0.00    +0.000 A 
ATOM     21  C   UNL     1       5.944   3.474  12.907  0.00  0.00    +0.000 A 
ATOM     22  C   UNL     1       7.008   4.356  12.684  0.00  0.00    +0.000 A 
ATOM     23  C   UNL     1       7.500   5.136  13.730  0.00  0.00    +0.000 A 
BRANCH  21  24
ATOM     24  C   UNL     1       5.395   2.671  11.779  0.00  0.00    +0.000 C 
ATOM     25  N   UNL     1       4.297   2.979  11.163  0.00  0.00    +0.000 NA
ATOM     26  N   UNL     1       6.046   1.561  11.336  0.00  0.00    +0.000 N 
ATOM     27  H   UNL     1       3.844   3.796  11.582  0.00  0.00    +0.000 HD
ATOM     28  H   UNL     1       7.059   1.614  11.331  0.00  0.00    +0.000 HD
ATOM     29  H   UNL     1       5.670   1.263  10.440  0.00  0.00    +0.000 HD
ENDBRANCH  21  24
ENDBRANCH  17  18
ENDBRANCH   1  17
TORSDOF 10
ENDMDL
MODEL 3
REMARK VINA RESULT:      -7.7      0.472      1.078
REMARK  Name = 
REMARK  11 active torsions:
REMARK  status: ('A' for Active; 'I' for Inactive)
REMARK    1  A    between atoms: C_1  and  C_2
REMARK    2  A    between atoms: C_2  and  C_3
REMARK    3  A    between atoms: C_2  and  C_8
REMARK    4  A    between atoms: C_3  and  C_4
REMARK    5  A    between atoms: C_4  and  C_5
REMARK    6  A    between atoms: C_5  and  O_7
REMARK    7  A    between atoms: C_8  and  C_9
REMARK    8  A    between atoms: C_12  and  C_13
REMARK    9  A    between atoms: C_13  and  O_15
REMARK   10  A    between atoms: O_15  and  C_16
REMARK   11  A    between atoms: C_19  and  C_20
REMARK                            x       y       z     vdW  Elec       q    Type
REMARK                         _______ _______ _______ _____ _____    ______ ____
ROOT
ATOM      1  C   UNL     1       6.982   6.664  17.155  0.00  0.00    +0.000 C 
ATOM      2  O   UNL     1       7.247   7.819  16.838  0.00  0.00    +0.000 OA
ENDROOT
BRANCH   1   6
ATOM      3  C   UNL     1       3.500   5.533  18.480  0.00  0.00    +0.000 A 
ATOM      4  C   UNL     1       4.427   5.091  19.403  0.00  0.00    +0.000 A 
ATOM      5  C   UNL     1       5.755   5.484  19.073  0.00  0.00    +0.000 A 
ATOM      6  C   UNL     1       5.816   6.207  17.895  0.00  0.00    +0.000 A 
ATOM      7  S   UNL     1       4.246   6.481  17.262  0.00  0.00    +0.000 S 
BRANCH   3   8
ATOM      8  C   UNL     1       2.009   5.300  18.491  0.00  0.00    +0.000 C 
BRANCH   8  10
ATOM      9  C   UNL     1       2.708   3.243  17.156  0.00  0.00    +0.000 C 
ATOM     10  C   UNL     1       1.556   3.952  17.886  0.00  0.00    +0.000 C 
BRANCH  10  11
ATOM     11  C   UNL     1       1.020   2.983  18.968  0.00  0.00    +0.000 C 
BRANCH  11  12
ATOM     12  C   UNL     1       0.970   3.544  20.391  0.00  0.00    +0.000 C 
BRANCH  12  13
ATOM     13  C   UNL     1       2.102   2.988  21.235  0.00  0.00    +0.000 C 
ATOM     14  O   UNL     1       2.281   3.224  22.419  0.00  0.00    +0.000 OA
BRANCH  13  15
ATOM     15  O   UNL     1       2.916   2.169  20.531  0.00  0.00    +0.000 OA
ATOM     16  H   UNL     1       2.728   2.146  19.574  0.00  0.00    +0.000 HD
ENDBRANCH  13  15
ENDBRANCH  12  13
ENDBRANCH  11  12
ENDBRANCH  10  11
ENDBRANCH   8  10
ENDBRANCH   3   8
ENDBRANCH   1   6
BRANCH   1  17
ATOM     17  O   UNL     1       7.737   5.558  16.762  0.00  0.00    +0.000 OA
BRANCH  17  18
ATOM     18  C   UNL     1       7.271   4.889  15.617  0.00  0.00    +0.000 A 
ATOM     19  C   UNL     1       6.291   3.912  15.789  0.00  0.00    +0.000 A 
ATOM     20  C   UNL     1       5.697   3.329  14.665  0.00  0.00    +0.000 A 
ATOM     21  C   UNL     1       6.072   3.738  13.377  0.00  0.00    +0.000 A 
ATOM     22  C   UNL     1       7.062   4.714  13.218  0.00  0.00    +0.000 A 
ATOM     23  C   UNL     1       7.653   5.299  14.337  0.00  0.00    +0.000 A 
BRANCH  21  24
ATOM     24  C   UNL     1       5.414   3.143  12.180  0.00  0.00    +0.000 C 
ATOM     25  N   UNL     1       4.396   3.687  11.591  0.00  0.00    +0.000 NA
ATOM     26  N   UNL     1       5.875   1.981  11.642  0.00  0.00    +0.000 N 
ATOM     27  H   UNL     1       4.082   4.530  12.080  0.00  0.00    +0.000 HD
ATOM     28  H   UNL     1       6.881   1.859  11.644  0.00  0.00    +0.000 HD
ATOM     29  H   UNL     1       5.470   1.831  10.722  0.00  0.00    +0.000 HD
ENDBRANCH  21  24
ENDBRANCH  17  18
ENDBRANCH   1  17
TORSDOF 10
ENDMDL
MODEL 4
REMARK VINA RESULT:      -7.6      1.683      2.588
REMARK  Name = 
REMARK  11 active torsions:
REMARK  status: ('A' for Active; 'I' for Inactive)
REMARK    1  A    between atoms: C_1  and  C_2
REMARK    2  A    between atoms: C_2  and  C_3
REMARK    3  A    between atoms: C_2  and  C_8
REMARK    4  A    between atoms: C_3  and  C_4
REMARK    5  A    between atoms: C_4  and  C_5
REMARK    6  A    between atoms: C_5  and  O_7
REMARK    7  A    between atoms: C_8  and  C_9
REMARK    8  A    between atoms: C_12  and  C_13
REMARK    9  A    between atoms: C_13  and  O_15
REMARK   10  A    between atoms: O_15  and  C_16
REMARK   11  A    between atoms: C_19  and  C_20
REMARK                            x       y       z     vdW  Elec       q    Type
REMARK                         _______ _______ _______ _____ _____    ______ ____
ROOT
ATOM      1  C   UNL     1       6.466   6.098  17.344  0.00  0.00    +0.000 C 
ATOM      2  O   UNL     1       7.549   5.936  17.897  0.00  0.00    +0.000 OA
ENDROOT
BRANCH   1   6
ATOM      3  C   UNL     1       3.311   5.501  19.547  0.00  0.00    +0.000 A 
ATOM      4  C   UNL     1       2.954   6.450  18.610  0.00  0.00    +0.000 A 
ATOM      5  C   UNL     1       4.006   6.732  17.692  0.00  0.00    +0.000 A 
ATOM      6  C   UNL     1       5.149   6.001  17.956  0.00  0.00    +0.000 A 
ATOM      7  S   UNL     1       4.894   4.911  19.255  0.00  0.00    +0.000 S 
BRANCH   3   8
ATOM      8  C   UNL     1       2.468   4.963  20.677  0.00  0.00    +0.000 C 
BRANCH   8  10
ATOM      9  C   UNL     1       1.808   2.848  21.940  0.00  0.00    +0.000 C 
ATOM     10  C   UNL     1       2.108   3.464  20.564  0.00  0.00    +0.000 C 
BRANCH  10  11
ATOM     11  C   UNL     1       0.868   3.233  19.665  0.00  0.00    +0.000 C 
BRANCH  11  12
ATOM     12  C   UNL     1       1.027   2.162  18.584  0.00  0.00    +0.000 C 
BRANCH  12  13
ATOM     13  C   UNL     1       2.335   2.336  17.833  0.00  0.00    +0.000 C 
ATOM     14  O   UNL     1       3.333   1.652  17.989  0.00  0.00    +0.000 OA
BRANCH  13  15
ATOM     15  O   UNL     1       2.284   3.346  16.936  0.00  0.00    +0.000 OA
ATOM     16  H   UNL     1       1.380   3.607  16.680  0.00  0.00    +0.000 HD
ENDBRANCH  13  15
ENDBRANCH  12  13
ENDBRANCH  11  12
ENDBRANCH  10  11
ENDBRANCH   8  10
ENDBRANCH   3   8
ENDBRANCH   1   6
BRANCH   1  17
ATOM     17  O   UNL     1       6.324   6.506  16.017  0.00  0.00    +0.000 OA
BRANCH  17  18
ATOM     18  C   UNL     1       6.330   5.471  15.066  0.00  0.00    +0.000 A 
ATOM     19  C   UNL     1       5.175   4.700  14.938  0.00  0.00    +0.000 A 
ATOM     20  C   UNL     1       5.088   3.760  13.905  0.00  0.00    +0.000 A 
ATOM     21  C   UNL     1       6.147   3.609  12.998  0.00  0.00    +0.000 A 
ATOM     22  C   UNL     1       7.303   4.384  13.142  0.00  0.00    +0.000 A 
ATOM     23  C   UNL     1       7.391   5.324  14.168  0.00  0.00    +0.000 A 
BRANCH  21  24
ATOM     24  C   UNL     1       6.040   2.633  11.877  0.00  0.00    +0.000 C 
ATOM     25  N   UNL     1       7.051   1.956  11.432  0.00  0.00    +0.000 NA
ATOM     26  N   UNL     1       4.843   2.405  11.269  0.00  0.00    +0.000 N 
ATOM     27  H   UNL     1       7.919   2.216  11.908  0.00  0.00    +0.000 HD
ATOM     28  H   UNL     1       4.031   2.405  11.875  0.00  0.00    +0.000 HD
ATOM     29  H   UNL     1       4.893   1.570  10.691  0.00  0.00    +0.000 HD
ENDBRANCH  21  24
ENDBRANCH  17  18
ENDBRANCH   1  17
TORSDOF 10
ENDMDL
MODEL 5
REMARK VINA RESULT:      -7.5      1.338      1.869
REMARK  Name = 
REMARK  11 active torsions:
REMARK  status: ('A' for Active; 'I' for Inactive)
REMARK    1  A    between atoms: C_1  and  C_2
REMARK    2  A    between atoms: C_2  and  C_3
REMARK    3  A    between atoms: C_2  and  C_8
REMARK    4  A    between atoms: C_3  and  C_4
REMARK    5  A    between atoms: C_4  and  C_5
REMARK    6  A    between atoms: C_5  and  O_7
REMARK    7  A    between atoms: C_8  and  C_9
REMARK    8  A    between atoms: C_12  and  C_13
REMARK    9  A    between atoms: C_13  and  O_15
REMARK   10  A    between atoms: O_15  and  C_16
REMARK   11  A    between atoms: C_19  and  C_20
REMARK                            x       y       z     vdW  Elec       q    Type
REMARK                         _______ _______ _______ _____ _____    ______ ____
ROOT
ATOM      1  C   UNL     1       6.933   6.644  17.197  0.00  0.00    +0.000 C 
ATOM      2  O   UNL     1       7.558   7.694  17.096  0.00  0.00    +0.000 OA
ENDROOT
BRANCH   1   6
ATOM      3  C   UNL     1       3.563   5.914  19.007  0.00  0.00    +0.000 A 
ATOM      4  C   UNL     1       3.277   6.829  18.014  0.00  0.00    +0.000 A 
ATOM      5  C   UNL     1       4.419   7.151  17.226  0.00  0.00    +0.000 A 
ATOM      6  C   UNL     1       5.557   6.486  17.645  0.00  0.00    +0.000 A 
ATOM      7  S   UNL     1       5.198   5.405  18.926  0.00  0.00    +0.000 S 
BRANCH   3   8
ATOM      8  C   UNL     1       2.615   5.349  20.037  0.00  0.00    +0.000 C 
BRANCH   8  10
ATOM      9  C   UNL     1       1.584   4.331  17.939  0.00  0.00    +0.000 C 
ATOM     10  C   UNL     1       1.527   4.408  19.473  0.00  0.00    +0.000 C 
BRANCH  10  11
ATOM     11  C   UNL     1       1.667   2.967  20.021  0.00  0.00    +0.000 C 
BRANCH  11  12
ATOM     12  C   UNL     1       2.183   1.928  19.023  0.00  0.00    +0.000 C 
BRANCH  12  13
ATOM     13  C   UNL     1       3.696   1.819  19.084  0.00  0.00    +0.000 C 
ATOM     14  O   UNL     1       4.385   2.096  20.053  0.00  0.00    +0.000 OA
BRANCH  13  15
ATOM     15  O   UNL     1       4.227   1.359  17.928  0.00  0.00    +0.000 OA
ATOM     16  H   UNL     1       4.040   1.921  17.153  0.00  0.00    +0.000 HD
ENDBRANCH  13  15
ENDBRANCH  12  13
ENDBRANCH  11  12
ENDBRANCH  10  11
ENDBRANCH   8  10
ENDBRANCH   3   8
ENDBRANCH   1   6
BRANCH   1  17
ATOM     17  O   UNL     1       7.428   5.402  16.799  0.00  0.00    +0.000 OA
BRANCH  17  18
ATOM     18  C   UNL     1       6.861   4.877  15.624  0.00  0.00    +0.000 A 
ATOM     19  C   UNL     1       7.485   5.174  14.413  0.00  0.00    +0.000 A 
ATOM     20  C   UNL     1       7.040   4.553  13.241  0.00  0.00    +0.000 A 
ATOM     21  C   UNL     1       5.989   3.627  13.289  0.00  0.00    +0.000 A 
ATOM     22  C   UNL     1       5.367   3.342  14.510  0.00  0.00    +0.000 A 
ATOM     23  C   UNL     1       5.811   3.958  15.680  0.00  0.00    +0.000 A 
BRANCH  21  24
ATOM     24  C   UNL     1       5.539   2.938  12.047  0.00  0.00    +0.000 C 
ATOM     25  N   UNL     1       6.198   1.964  11.502  0.00  0.00    +0.000 NA
ATOM     26  N   UNL     1       4.386   3.310  11.427  0.00  0.00    +0.000 N 
ATOM     27  H   UNL     1       7.072   1.774  11.999  0.00  0.00    +0.000 HD
ATOM     28  H   UNL     1       3.619   3.572  12.036  0.00  0.00    +0.000 HD
ATOM     29  H   UNL     1       4.112   2.614  10.739  0.00  0.00    +0.000 HD
ENDBRANCH  21  24
ENDBRANCH  17  18
ENDBRANCH   1  17
TORSDOF 10
ENDMDL
MODEL 6
REMARK VINA RESULT:      -7.2      1.424      2.059
REMARK  Name = 
REMARK  11 active torsions:
REMARK  status: ('A' for Active; 'I' for Inactive)
REMARK    1  A    between atoms: C_1  and  C_2
REMARK    2  A    between atoms: C_2  and  C_3
REMARK    3  A    between atoms: C_2  and  C_8
REMARK    4  A    between atoms: C_3  and  C_4
REMARK    5  A    between atoms: C_4  and  C_5
REMARK    6  A    between atoms: C_5  and  O_7
REMARK    7  A    between atoms: C_8  and  C_9
REMARK    8  A    between atoms: C_12  and  C_13
REMARK    9  A    between atoms: C_13  and  O_15
REMARK   10  A    between atoms: O_15  and  C_16
REMARK   11  A    between atoms: C_19  and  C_20
REMARK                            x       y       z     vdW  Elec       q    Type
REMARK                         _______ _______ _______ _____ _____    ______ ____
ROOT
ATOM      1  C   UNL     1       7.197   5.616  17.102  0.00  0.00    +0.000 C 
ATOM      2  O   UNL     1       8.110   5.176  17.793  0.00  0.00    +0.000 OA
ENDROOT
BRANCH   1   6
ATOM      3  C   UNL     1       3.706   5.849  18.812  0.00  0.00    +0.000 A 
ATOM      4  C   UNL     1       3.759   6.884  17.899  0.00  0.00    +0.000 A 
ATOM      5  C   UNL     1       4.972   6.890  17.152  0.00  0.00    +0.000 A 
ATOM      6  C   UNL     1       5.826   5.867  17.522  0.00  0.00    +0.000 A 
ATOM      7  S   UNL     1       5.099   4.856  18.701  0.00  0.00    +0.000 S 
BRANCH   3   8
ATOM      8  C   UNL     1       2.592   5.534  19.780  0.00  0.00    +0.000 C 
BRANCH   8  10
ATOM      9  C   UNL     1       1.664   4.341  17.726  0.00  0.00    +0.000 C 
ATOM     10  C   UNL     1       1.514   4.569  19.239  0.00  0.00    +0.000 C 
BRANCH  10  11
ATOM     11  C   UNL     1       1.576   3.185  19.931  0.00  0.00    +0.000 C 
BRANCH  11  12
ATOM     12  C   UNL     1       2.913   2.834  20.587  0.00  0.00    +0.000 C 
BRANCH  12  13
ATOM     13  C   UNL     1       3.738   1.928  19.691  0.00  0.00    +0.000 C 
ATOM     14  O   UNL     1       3.355   1.434  18.643  0.00  0.00    +0.000 OA
BRANCH  13  15
ATOM     15  O   UNL     1       4.985   1.723  20.172  0.00  0.00    +0.000 OA
ATOM     16  H   UNL     1       5.180   2.212  20.993  0.00  0.00    +0.000 HD
ENDBRANCH  13  15
ENDBRANCH  12  13
ENDBRANCH  11  12
ENDBRANCH  10  11
ENDBRANCH   8  10
ENDBRANCH   3   8
ENDBRANCH   1   6
BRANCH   1  17
ATOM     17  O   UNL     1       7.357   6.046  15.784  0.00  0.00    +0.000 OA
BRANCH  17  18
ATOM     18  C   UNL     1       6.996   5.111  14.799  0.00  0.00    +0.000 A 
ATOM     19  C   UNL     1       5.960   4.225  15.092  0.00  0.00    +0.000 A 
ATOM     20  C   UNL     1       5.474   3.380  14.088  0.00  0.00    +0.000 A 
ATOM     21  C   UNL     1       6.013   3.438  12.795  0.00  0.00    +0.000 A 
ATOM     22  C   UNL     1       7.057   4.327  12.515  0.00  0.00    +0.000 A 
ATOM     23  C   UNL     1       7.541   5.172  13.513  0.00  0.00    +0.000 A 
BRANCH  21  24
ATOM     24  C   UNL     1       5.471   2.564  11.717  0.00  0.00    +0.000 C 
ATOM     25  N   UNL     1       6.050   1.469  11.338  0.00  0.00    +0.000 NA
ATOM     26  N   UNL     1       4.312   2.888  11.079  0.00  0.00    +0.000 N 
ATOM     27  H   UNL     1       6.935   1.320  11.831  0.00  0.00    +0.000 HD
ATOM     28  H   UNL     1       3.589   3.302  11.656  0.00  0.00    +0.000 HD
ATOM     29  H   UNL     1       3.971   2.095  10.542  0.00  0.00    +0.000 HD
ENDBRANCH  21  24
ENDBRANCH  17  18
ENDBRANCH   1  17
TORSDOF 10
ENDMDL
MODEL 7
REMARK VINA RESULT:      -7.1      1.458      1.937
REMARK  Name = 
REMARK  11 active torsions:
REMARK  status: ('A' for Active; 'I' for Inactive)
REMARK    1  A    between atoms: C_1  and  C_2
REMARK    2  A    between atoms: C_2  and  C_3
REMARK    3  A    between atoms: C_2  and  C_8
REMARK    4  A    between atoms: C_3  and  C_4
REMARK    5  A    between atoms: C_4  and  C_5
REMARK    6  A    between atoms: C_5  and  O_7
REMARK    7  A    between atoms: C_8  and  C_9
REMARK    8  A    between atoms: C_12  and  C_13
REMARK    9  A    between atoms: C_13  and  O_15
REMARK   10  A    between atoms: O_15  and  C_16
REMARK   11  A    between atoms: C_19  and  C_20
REMARK                            x       y       z     vdW  Elec       q    Type
REMARK                         _______ _______ _______ _____ _____    ______ ____
ROOT
ATOM      1  C   UNL     1       7.131   6.612  17.054  0.00  0.00    +0.000 C 
ATOM      2  O   UNL     1       7.363   7.788  16.790  0.00  0.00    +0.000 OA
ENDROOT
BRANCH   1   6
ATOM      3  C   UNL     1       3.930   5.382  18.898  0.00  0.00    +0.000 A 
ATOM      4  C   UNL     1       5.002   4.893  19.617  0.00  0.00    +0.000 A 
ATOM      5  C   UNL     1       6.254   5.314  19.084  0.00  0.00    +0.000 A 
ATOM      6  C   UNL     1       6.110   6.105  17.958  0.00  0.00    +0.000 A 
ATOM      7  S   UNL     1       4.455   6.404  17.626  0.00  0.00    +0.000 S 
BRANCH   3   8
ATOM      8  C   UNL     1       2.463   5.139  19.155  0.00  0.00    +0.000 C 
BRANCH   8  10
ATOM      9  C   UNL     1       0.645   4.052  20.574  0.00  0.00    +0.000 C 
ATOM     10  C   UNL     1       2.153   4.297  20.414  0.00  0.00    +0.000 C 
BRANCH  10  11
ATOM     11  C   UNL     1       2.852   2.916  20.372  0.00  0.00    +0.000 C 
BRANCH  11  12
ATOM     12  C   UNL     1       2.336   1.946  19.307  0.00  0.00    +0.000 C 
BRANCH  12  13
ATOM     13  C   UNL     1       3.377   1.719  18.227  0.00  0.00    +0.000 C 
ATOM     14  O   UNL     1       3.477   2.366  17.197  0.00  0.00    +0.000 OA
BRANCH  13  15
ATOM     15  O   UNL     1       4.221   0.706  18.528  0.00  0.00    +0.000 OA
ATOM     16  H   UNL     1       3.800  -0.035  19.001  0.00  0.00    +0.000 HD
ENDBRANCH  13  15
ENDBRANCH  12  13
ENDBRANCH  11  12
ENDBRANCH  10  11
ENDBRANCH   8  10
ENDBRANCH   3   8
ENDBRANCH   1   6
BRANCH   1  17
ATOM     17  O   UNL     1       7.770   5.536  16.436  0.00  0.00    +0.000 OA
BRANCH  17  18
ATOM     18  C   UNL     1       7.083   4.975  15.346  0.00  0.00    +0.000 A 
ATOM     19  C   UNL     1       7.557   5.256  14.065  0.00  0.00    +0.000 A 
ATOM     20  C   UNL     1       6.994   4.601  12.965  0.00  0.00    +0.000 A 
ATOM     21  C   UNL     1       5.975   3.656  13.153  0.00  0.00    +0.000 A 
ATOM     22  C   UNL     1       5.504   3.387  14.443  0.00  0.00    +0.000 A 
ATOM     23  C   UNL     1       6.066   4.037  15.541  0.00  0.00    +0.000 A 
BRANCH  21  24
ATOM     24  C   UNL     1       5.401   2.931  11.985  0.00  0.00    +0.000 C 
ATOM     25  N   UNL     1       4.306   3.297  11.396  0.00  0.00    +0.000 NA
ATOM     26  N   UNL     1       6.025   1.834  11.473  0.00  0.00    +0.000 N 
ATOM     27  H   UNL     1       3.874   4.098  11.865  0.00  0.00    +0.000 HD
ATOM     28  H   UNL     1       7.038   1.866  11.463  0.00  0.00    +0.000 HD
ATOM     29  H   UNL     1       5.636   1.597  10.565  0.00  0.00    +0.000 HD
ENDBRANCH  21  24
ENDBRANCH  17  18
ENDBRANCH   1  17
TORSDOF 10
ENDMDL
MODEL 8
REMARK VINA RESULT:      -6.9      4.203      5.401
REMARK  Name = 
REMARK  11 active torsions:
REMARK  status: ('A' for Active; 'I' for Inactive)
REMARK    1  A    between atoms: C_1  and  C_2
REMARK    2  A    between atoms: C_2  and  C_3
REMARK    3  A    between atoms: C_2  and  C_8
REMARK    4  A    between atoms: C_3  and  C_4
REMARK    5  A    between atoms: C_4  and  C_5
REMARK    6  A    between atoms: C_5  and  O_7
REMARK    7  A    between atoms: C_8  and  C_9
REMARK    8  A    between atoms: C_12  and  C_13
REMARK    9  A    between atoms: C_13  and  O_15
REMARK   10  A    between atoms: O_15  and  C_16
REMARK   11  A    between atoms: C_19  and  C_20
REMARK                            x       y       z     vdW  Elec       q    Type
REMARK                         _______ _______ _______ _____ _____    ______ ____
ROOT
ATOM      1  C   UNL     1       3.251   5.537  19.651  0.00  0.00    +0.000 C 
ATOM      2  O   UNL     1       2.628   4.600  20.139  0.00  0.00    +0.000 OA
ENDROOT
BRANCH   1   6
ATOM      3  C   UNL     1       1.585   8.950  18.790  0.00  0.00    +0.000 A 
ATOM      4  C   UNL     1       2.326   8.592  17.682  0.00  0.00    +0.000 A 
ATOM      5  C   UNL     1       2.955   7.323  17.834  0.00  0.00    +0.000 A 
ATOM      6  C   UNL     1       2.692   6.746  19.063  0.00  0.00    +0.000 A 
ATOM      7  S   UNL     1       1.605   7.710  19.973  0.00  0.00    +0.000 S 
BRANCH   3   8
ATOM      8  C   UNL     1       0.796  10.220  18.997  0.00  0.00    +0.000 C 
BRANCH   8  10
ATOM      9  C   UNL     1       1.386  12.219  20.466  0.00  0.00    +0.000 C 
ATOM     10  C   UNL     1       0.835  10.784  20.435  0.00  0.00    +0.000 C 
BRANCH  10  11
ATOM     11  C   UNL     1      -0.569  10.806  21.087  0.00  0.00    +0.000 C 
BRANCH  11  12
ATOM     12  C   UNL     1      -0.588  10.930  22.612  0.00  0.00    +0.000 C 
BRANCH  12  13
ATOM     13  C   UNL     1      -0.209   9.615  23.270  0.00  0.00    +0.000 C 
ATOM     14  O   UNL     1       0.574   9.490  24.197  0.00  0.00    +0.000 OA
BRANCH  13  15
ATOM     15  O   UNL     1      -0.854   8.560  22.721  0.00  0.00    +0.000 OA
ATOM     16  H   UNL     1      -0.918   7.784  23.309  0.00  0.00    +0.000 HD
ENDBRANCH  13  15
ENDBRANCH  12  13
ENDBRANCH  11  12
ENDBRANCH  10  11
ENDBRANCH   8  10
ENDBRANCH   3   8
ENDBRANCH   1   6
BRANCH   1  17
ATOM     17  O   UNL     1       4.642   5.637  19.665  0.00  0.00    +0.000 OA
BRANCH  17  18
ATOM     18  C   UNL     1       5.281   5.316  18.455  0.00  0.00    +0.000 A 
ATOM     19  C   UNL     1       4.765   4.257  17.709  0.00  0.00    +0.000 A 
ATOM     20  C   UNL     1       5.279   4.001  16.433  0.00  0.00    +0.000 A 
ATOM     21  C   UNL     1       6.290   4.816  15.904  0.00  0.00    +0.000 A 
ATOM     22  C   UNL     1       6.803   5.872  16.665  0.00  0.00    +0.000 A 
ATOM     23  C   UNL     1       6.291   6.130  17.936  0.00  0.00    +0.000 A 
BRANCH  21  24
ATOM     24  C   UNL     1       6.811   4.566  14.531  0.00  0.00    +0.000 C 
ATOM     25  N   UNL     1       7.670   5.343  13.949  0.00  0.00    +0.000 NA
ATOM     26  N   UNL     1       6.402   3.478  13.821  0.00  0.00    +0.000 N 
ATOM     27  H   UNL     1       7.893   6.158  14.527  0.00  0.00    +0.000 HD
ATOM     28  H   UNL     1       6.261   2.628  14.354  0.00  0.00    +0.000 HD
ATOM     29  H   UNL     1       7.004   3.334  13.015  0.00  0.00    +0.000 HD
ENDBRANCH  21  24
ENDBRANCH  17  18
ENDBRANCH   1  17
TORSDOF 10
ENDMDL
MODEL 9
REMARK VINA RESULT:      -6.9      1.625      2.438
REMARK  Name = 
REMARK  11 active torsions:
REMARK  status: ('A' for Active; 'I' for Inactive)
REMARK    1  A    between atoms: C_1  and  C_2
REMARK    2  A    between atoms: C_2  and  C_3
REMARK    3  A    between atoms: C_2  and  C_8
REMARK    4  A    between atoms: C_3  and  C_4
REMARK    5  A    between atoms: C_4  and  C_5
REMARK    6  A    between atoms: C_5  and  O_7
REMARK    7  A    between atoms: C_8  and  C_9
REMARK    8  A    between atoms: C_12  and  C_13
REMARK    9  A    between atoms: C_13  and  O_15
REMARK   10  A    between atoms: O_15  and  C_16
REMARK   11  A    between atoms: C_19  and  C_20
REMARK                            x       y       z     vdW  Elec       q    Type
REMARK                         _______ _______ _______ _____ _____    ______ ____
ROOT
ATOM      1  C   UNL     1       6.507   5.825  17.133  0.00  0.00    +0.000 C 
ATOM      2  O   UNL     1       7.545   5.417  17.644  0.00  0.00    +0.000 OA
ENDROOT
BRANCH   1   6
ATOM      3  C   UNL     1       3.313   5.574  19.345  0.00  0.00    +0.000 A 
ATOM      4  C   UNL     1       3.057   6.555  18.408  0.00  0.00    +0.000 A 
ATOM      5  C   UNL     1       4.130   6.720  17.486  0.00  0.00    +0.000 A 
ATOM      6  C   UNL     1       5.189   5.871  17.749  0.00  0.00    +0.000 A 
ATOM      7  S   UNL     1       4.822   4.817  19.051  0.00  0.00    +0.000 S 
BRANCH   3   8
ATOM      8  C   UNL     1       2.420   5.132  20.479  0.00  0.00    +0.000 C 
BRANCH   8  10
ATOM      9  C   UNL     1       2.265   3.130  22.051  0.00  0.00    +0.000 C 
ATOM     10  C   UNL     1       2.217   3.604  20.589  0.00  0.00    +0.000 C 
BRANCH  10  11
ATOM     11  C   UNL     1       0.859   3.157  19.995  0.00  0.00    +0.000 C 
BRANCH  11  12
ATOM     12  C   UNL     1       0.740   3.254  18.472  0.00  0.00    +0.000 C 
BRANCH  12  13
ATOM     13  C   UNL     1       1.931   2.606  17.791  0.00  0.00    +0.000 C 
ATOM     14  O   UNL     1       2.581   3.102  16.885  0.00  0.00    +0.000 OA
BRANCH  13  15
ATOM     15  O   UNL     1       2.223   1.391  18.307  0.00  0.00    +0.000 OA
ATOM     16  H   UNL     1       2.170   1.348  19.280  0.00  0.00    +0.000 HD
ENDBRANCH  13  15
ENDBRANCH  12  13
ENDBRANCH  11  12
ENDBRANCH  10  11
ENDBRANCH   8  10
ENDBRANCH   3   8
ENDBRANCH   1   6
BRANCH   1  17
ATOM     17  O   UNL     1       6.442   6.416  15.871  0.00  0.00    +0.000 OA
BRANCH  17  18
ATOM     18  C   UNL     1       6.374   5.520  14.790  0.00  0.00    +0.000 A 
ATOM     19  C   UNL     1       7.496   5.403  13.971  0.00  0.00    +0.000 A 
ATOM     20  C   UNL     1       7.521   4.418  12.977  0.00  0.00    +0.000 A 
ATOM     21  C   UNL     1       6.434   3.546  12.821  0.00  0.00    +0.000 A 
ATOM     22  C   UNL     1       5.311   3.679  13.645  0.00  0.00    +0.000 A 
ATOM     23  C   UNL     1       5.285   4.658  14.638  0.00  0.00    +0.000 A 
BRANCH  21  24
ATOM     24  C   UNL     1       6.475   2.475  11.786  0.00  0.00    +0.000 C 
ATOM     25  N   UNL     1       7.566   2.115  11.186  0.00  0.00    +0.000 NA
ATOM     26  N   UNL     1       5.342   1.810  11.431  0.00  0.00    +0.000 N 
ATOM     27  H   UNL     1       8.363   2.690  11.474  0.00  0.00    +0.000 HD
ATOM     28  H   UNL     1       4.689   1.614  12.181  0.00  0.00    +0.000 HD
ATOM     29  H   UNL     1       5.572   0.980  10.891  0.00  0.00    +0.000 HD
ENDBRANCH  21  24
ENDBRANCH  17  18
ENDBRANCH   1  17
TORSDOF 10
ENDMDL
