MODEL 1
REMARK VINA RESULT:      -6.5      0.000      0.000
REMARK  Name = 
REMARK  11 active torsions:
REMARK  status: ('A' for Active; 'I' for Inactive)
REMARK    1  A    between atoms: C_2  and  O_3
REMARK    2  A    between atoms: C_2  and  C_4
REMARK    3  A    between atoms: N_6  and  C_7
REMARK    4  A    between atoms: C_7  and  C_8
REMARK    5  A    between atoms: C_7  and  C_19
REMARK    6  A    between atoms: C_8  and  S_9
REMARK    7  A    between atoms: S_9  and  S_10
REMARK    8  A    between atoms: S_10  and  C_11
REMARK    9  A    between atoms: C_11  and  C_12
REMARK   10  A    between atoms: C_12  and  C_13
REMARK   11  A    between atoms: C_19  and  O_21
REMARK                            x       y       z     vdW  Elec       q    Type
REMARK                         _______ _______ _______ _____ _____    ______ ____
ROOT
ATOM      1  C   UNK A   1       6.273   5.461  18.238  0.00  0.00    +0.000 C 
ENDROOT
BRANCH   1   4
ATOM      2  C   UNK A   0       6.384   5.504  15.731  0.00  0.00    +0.000 C 
ATOM      3  O   UNK A   0       5.645   6.461  15.563  0.00  0.00    +0.000 OA
ATOM      4  N   UNK A   1       6.728   4.946  16.939  0.00  0.00    +0.000 N 
ATOM      5  H   UNK A   1       7.391   4.168  16.932  0.00  0.00    +0.000 HD
BRANCH   2   7
ATOM      6  O   UNK A   0       7.849   5.371  13.799  0.00  0.00    +0.000 OA
ATOM      7  C   UNK A   0       7.012   4.821  14.490  0.00  0.00    +0.000 C 
BRANCH   7   8
ATOM      8  O   UNK A   0       6.520   3.585  14.304  0.00  0.00    +0.000 OA
ATOM      9  H   UNK A   0       6.436   3.129  15.172  0.00  0.00    +0.000 HD
ENDBRANCH   7   8
ENDBRANCH   2   7
ENDBRANCH   1   4
BRANCH   1  10
ATOM     10  C   UNK A   1       7.507   6.041  18.941  0.00  0.00    +0.000 C 
ATOM     11  O   UNK A   1       8.144   6.991  18.501  0.00  0.00    +0.000 OA
BRANCH  10  12
ATOM     12  O   UNK A   1       7.844   5.424  20.094  0.00  0.00    +0.000 OA
ATOM     13  H   UNK A   1       8.274   4.552  19.989  0.00  0.00    +0.000 HD
ENDBRANCH  10  12
ENDBRANCH   1  10
BRANCH   1  14
ATOM     14  C   UNK A   1       5.631   4.362  19.099  0.00  0.00    +0.000 C 
BRANCH  14  15
ATOM     15  S   UNK A   1       4.671   3.187  18.061  0.00  0.00    +0.000 S 
BRANCH  15  16
ATOM     16  S   UNK A   1       3.620   2.070  19.435  0.00  0.00    +0.000 S 
BRANCH  16  17
ATOM     17  C   UNK A   1       1.951   2.017  18.674  0.00  0.00    +0.000 C 
BRANCH  17  18
ATOM     18  C   UNK A   1       0.996   2.986  19.378  0.00  0.00    +0.000 C 
BRANCH  18  19
ATOM     19  C   UNK A   1       1.502   4.411  19.341  0.00  0.00    +0.000 A 
ATOM     20  C   UNK A   1       1.627   5.171  20.513  0.00  0.00    +0.000 A 
ATOM     21  C   UNK A   1       2.078   6.493  20.461  0.00  0.00    +0.000 A 
ATOM     22  C   UNK A   1       2.412   7.071  19.235  0.00  0.00    +0.000 A 
ATOM     23  C   UNK A   1       2.301   6.325  18.065  0.00  0.00    +0.000 A 
ATOM     24  C   UNK A   1       1.848   5.005  18.117  0.00  0.00    +0.000 A 
ENDBRANCH  18  19
ENDBRANCH  17  18
ENDBRANCH  16  17
ENDBRANCH  15  16
ENDBRANCH  14  15
ENDBRANCH   1  14
TORSDOF 11
ENDMDL
MODEL 2
REMARK VINA RESULT:      -6.5      1.674      3.698
REMARK  Name = 
REMARK  11 active torsions:
REMARK  status: ('A' for Active; 'I' for Inactive)
REMARK    1  A    between atoms: C_2  and  O_3
REMARK    2  A    between atoms: C_2  and  C_4
REMARK    3  A    between atoms: N_6  and  C_7
REMARK    4  A    between atoms: C_7  and  C_8
REMARK    5  A    between atoms: C_7  and  C_19
REMARK    6  A    between atoms: C_8  and  S_9
REMARK    7  A    between atoms: S_9  and  S_10
REMARK    8  A    between atoms: S_10  and  C_11
REMARK    9  A    between atoms: C_11  and  C_12
REMARK   10  A    between atoms: C_12  and  C_13
REMARK   11  A    between atoms: C_19  and  O_21
REMARK                            x       y       z     vdW  Elec       q    Type
REMARK                         _______ _______ _______ _____ _____    ______ ____
ROOT
ATOM      1  C   UNK A   1       5.257   4.397  16.816  0.00  0.00    +0.000 C 
ENDROOT
BRANCH   1   4
ATOM      2  C   UNK A   0       7.353   4.939  18.085  0.00  0.00    +0.000 C 
ATOM      3  O   UNK A   0       8.117   4.270  17.409  0.00  0.00    +0.000 OA
ATOM      4  N   UNK A   1       5.995   5.053  17.904  0.00  0.00    +0.000 N 
ATOM      5  H   UNK A   1       5.484   5.684  18.524  0.00  0.00    +0.000 HD
BRANCH   2   7
ATOM      6  O   UNK A   0       7.948   5.314  20.410  0.00  0.00    +0.000 OA
ATOM      7  C   UNK A   0       7.926   5.751  19.274  0.00  0.00    +0.000 C 
BRANCH   7   8
ATOM      8  O   UNK A   0       8.381   6.951  18.878  0.00  0.00    +0.000 OA
ATOM      9  H   UNK A   0       8.273   7.040  17.904  0.00  0.00    +0.000 HD
ENDBRANCH   7   8
ENDBRANCH   2   7
ENDBRANCH   1   4
BRANCH   1  10
ATOM     10  C   UNK A   1       5.623   5.138  15.523  0.00  0.00    +0.000 C 
ATOM     11  O   UNK A   1       5.285   6.293  15.294  0.00  0.00    +0.000 OA
BRANCH  10  12
ATOM     12  O   UNK A   1       6.357   4.418  14.646  0.00  0.00    +0.000 OA
ATOM     13  H   UNK A   1       6.877   4.945  14.008  0.00  0.00    +0.000 HD
ENDBRANCH  10  12
ENDBRANCH   1  10
BRANCH   1  14
ATOM     14  C   UNK A   1       3.738   4.438  17.046  0.00  0.00    +0.000 C 
BRANCH  14  15
ATOM     15  S   UNK A   1       3.136   2.854  17.760  0.00  0.00    +0.000 S 
BRANCH  15  16
ATOM     16  S   UNK A   1       2.231   3.426  19.518  0.00  0.00    +0.000 S 
BRANCH  16  17
ATOM     17  C   UNK A   1       3.020   5.052  19.834  0.00  0.00    +0.000 C 
BRANCH  17  18
ATOM     18  C   UNK A   1       2.049   6.006  20.536  0.00  0.00    +0.000 C 
BRANCH  18  19
ATOM     19  C   UNK A   1       1.897   7.314  19.792  0.00  0.00    +0.000 A 
ATOM     20  C   UNK A   1       1.247   8.412  20.374  0.00  0.00    +0.000 A 
ATOM     21  C   UNK A   1       1.097   9.609  19.666  0.00  0.00    +0.000 A 
ATOM     22  C   UNK A   1       1.599   9.722  18.369  0.00  0.00    +0.000 A 
ATOM     23  C   UNK A   1       2.254   8.643  17.783  0.00  0.00    +0.000 A 
ATOM     24  C   UNK A   1       2.401   7.446  18.489  0.00  0.00    +0.000 A 
ENDBRANCH  18  19
ENDBRANCH  17  18
ENDBRANCH  16  17
ENDBRANCH  15  16
ENDBRANCH  14  15
ENDBRANCH   1  14
TORSDOF 11
ENDMDL
MODEL 3
REMARK VINA RESULT:      -6.5      1.423      2.839
REMARK  Name = 
REMARK  11 active torsions:
REMARK  status: ('A' for Active; 'I' for Inactive)
REMARK    1  A    between atoms: C_2  and  O_3
REMARK    2  A    between atoms: C_2  and  C_4
REMARK    3  A    between atoms: N_6  and  C_7
REMARK    4  A    between atoms: C_7  and  C_8
REMARK    5  A    between atoms: C_7  and  C_19
REMARK    6  A    between atoms: C_8  and  S_9
REMARK    7  A    between atoms: S_9  and  S_10
REMARK    8  A    between atoms: S_10  and  C_11
REMARK    9  A    between atoms: C_11  and  C_12
REMARK   10  A    between atoms: C_12  and  C_13
REMARK   11  A    between atoms: C_19  and  O_21
REMARK                            x       y       z     vdW  Elec       q    Type
REMARK                         _______ _______ _______ _____ _____    ______ ____
ROOT
ATOM      1  C   UNK A   1       6.947   5.815  16.895  0.00  0.00    +0.000 C 
ENDROOT
BRANCH   1   4
ATOM      2  C   UNK A   0       6.970   5.158  14.473  0.00  0.00    +0.000 C 
ATOM      3  O   UNK A   0       5.868   4.635  14.447  0.00  0.00    +0.000 OA
ATOM      4  N   UNK A   1       7.575   5.723  15.570  0.00  0.00    +0.000 N 
ATOM      5  H   UNK A   1       8.488   6.163  15.435  0.00  0.00    +0.000 HD
BRANCH   2   7
ATOM      6  O   UNK A   0       8.777   5.924  13.042  0.00  0.00    +0.000 OA
ATOM      7  C   UNK A   0       7.801   5.208  13.166  0.00  0.00    +0.000 C 
BRANCH   7   8
ATOM      8  O   UNK A   0       7.307   4.375  12.235  0.00  0.00    +0.000 OA
ATOM      9  H   UNK A   0       6.667   4.858  11.664  0.00  0.00    +0.000 HD
ENDBRANCH   7   8
ENDBRANCH   2   7
ENDBRANCH   1   4
BRANCH   1  10
ATOM     10  C   UNK A   1       7.643   6.963  17.636  0.00  0.00    +0.000 C 
ATOM     11  O   UNK A   1       8.199   6.822  18.719  0.00  0.00    +0.000 OA
BRANCH  10  12
ATOM     12  O   UNK A   1       7.602   8.155  17.001  0.00  0.00    +0.000 OA
ATOM     13  H   UNK A   1       7.164   8.145  16.127  0.00  0.00    +0.000 HD
ENDBRANCH  10  12
ENDBRANCH   1  10
BRANCH   1  14
ATOM     14  C   UNK A   1       7.082   4.504  17.686  0.00  0.00    +0.000 C 
BRANCH  14  15
ATOM     15  S   UNK A   1       5.447   3.934  18.301  0.00  0.00    +0.000 S 
BRANCH  15  16
ATOM     16  S   UNK A   1       4.701   5.576  19.295  0.00  0.00    +0.000 S 
BRANCH  16  17
ATOM     17  C   UNK A   1       3.689   6.375  17.989  0.00  0.00    +0.000 C 
BRANCH  17  18
ATOM     18  C   UNK A   1       2.200   6.334  18.348  0.00  0.00    +0.000 C 
BRANCH  18  19
ATOM     19  C   UNK A   1       1.777   4.979  18.869  0.00  0.00    +0.000 A 
ATOM     20  C   UNK A   1       1.598   3.889  18.005  0.00  0.00    +0.000 A 
ATOM     21  C   UNK A   1       1.188   2.647  18.500  0.00  0.00    +0.000 A 
ATOM     22  C   UNK A   1       0.954   2.479  19.865  0.00  0.00    +0.000 A 
ATOM     23  C   UNK A   1       1.136   3.551  20.735  0.00  0.00    +0.000 A 
ATOM     24  C   UNK A   1       1.543   4.793  20.241  0.00  0.00    +0.000 A 
ENDBRANCH  18  19
ENDBRANCH  17  18
ENDBRANCH  16  17
ENDBRANCH  15  16
ENDBRANCH  14  15
ENDBRANCH   1  14
TORSDOF 11
ENDMDL
MODEL 4
REMARK VINA RESULT:      -6.5      2.245      3.527
REMARK  Name = 
REMARK  11 active torsions:
REMARK  status: ('A' for Active; 'I' for Inactive)
REMARK    1  A    between atoms: C_2  and  O_3
REMARK    2  A    between atoms: C_2  and  C_4
REMARK    3  A    between atoms: N_6  and  C_7
REMARK    4  A    between atoms: C_7  and  C_8
REMARK    5  A    between atoms: C_7  and  C_19
REMARK    6  A    between atoms: C_8  and  S_9
REMARK    7  A    between atoms: S_9  and  S_10
REMARK    8  A    between atoms: S_10  and  C_11
REMARK    9  A    between atoms: C_11  and  C_12
REMARK   10  A    between atoms: C_12  and  C_13
REMARK   11  A    between atoms: C_19  and  O_21
REMARK                            x       y       z     vdW  Elec       q    Type
REMARK                         _______ _______ _______ _____ _____    ______ ____
ROOT
ATOM      1  C   UNK A   1       5.471   4.388  18.431  0.00  0.00    +0.000 C 
ENDROOT
BRANCH   1   4
ATOM      2  C   UNK A   0       6.988   4.479  16.434  0.00  0.00    +0.000 C 
ATOM      3  O   UNK A   0       8.044   4.428  17.044  0.00  0.00    +0.000 OA
ATOM      4  N   UNK A   1       5.730   4.484  16.988  0.00  0.00    +0.000 N 
ATOM      5  H   UNK A   1       4.930   4.488  16.352  0.00  0.00    +0.000 HD
BRANCH   2   7
ATOM      6  O   UNK A   0       7.614   5.428  14.288  0.00  0.00    +0.000 OA
ATOM      7  C   UNK A   0       7.024   4.547  14.887  0.00  0.00    +0.000 C 
BRANCH   7   8
ATOM      8  O   UNK A   0       6.343   3.531  14.332  0.00  0.00    +0.000 OA
ATOM      9  H   UNK A   0       6.181   3.722  13.380  0.00  0.00    +0.000 HD
ENDBRANCH   7   8
ENDBRANCH   2   7
ENDBRANCH   1   4
BRANCH   1  10
ATOM     10  C   UNK A   1       4.785   3.036  18.669  0.00  0.00    +0.000 C 
ATOM     11  O   UNK A   1       3.905   2.594  17.940  0.00  0.00    +0.000 OA
BRANCH  10  12
ATOM     12  O   UNK A   1       5.228   2.358  19.750  0.00  0.00    +0.000 OA
ATOM     13  H   UNK A   1       5.835   2.857  20.333  0.00  0.00    +0.000 HD
ENDBRANCH  10  12
ENDBRANCH   1  10
BRANCH   1  14
ATOM     14  C   UNK A   1       4.582   5.537  18.933  0.00  0.00    +0.000 C 
BRANCH  14  15
ATOM     15  S   UNK A   1       3.426   6.099  17.618  0.00  0.00    +0.000 S 
BRANCH  15  16
ATOM     16  S   UNK A   1       2.429   7.676  18.489  0.00  0.00    +0.000 S 
BRANCH  16  17
ATOM     17  C   UNK A   1       2.388   7.165  20.251  0.00  0.00    +0.000 C 
BRANCH  17  18
ATOM     18  C   UNK A   1       1.113   6.375  20.563  0.00  0.00    +0.000 C 
BRANCH  18  19
ATOM     19  C   UNK A   1       1.361   4.883  20.591  0.00  0.00    +0.000 A 
ATOM     20  C   UNK A   1       0.732   4.024  19.679  0.00  0.00    +0.000 A 
ATOM     21  C   UNK A   1       0.955   2.644  19.729  0.00  0.00    +0.000 A 
ATOM     22  C   UNK A   1       1.812   2.108  20.690  0.00  0.00    +0.000 A 
ATOM     23  C   UNK A   1       2.449   2.951  21.596  0.00  0.00    +0.000 A 
ATOM     24  C   UNK A   1       2.225   4.329  21.548  0.00  0.00    +0.000 A 
ENDBRANCH  18  19
ENDBRANCH  17  18
ENDBRANCH  16  17
ENDBRANCH  15  16
ENDBRANCH  14  15
ENDBRANCH   1  14
TORSDOF 11
ENDMDL
MODEL 5
REMARK VINA RESULT:      -6.4      0.419      1.311
REMARK  Name = 
REMARK  11 active torsions:
REMARK  status: ('A' for Active; 'I' for Inactive)
REMARK    1  A    between atoms: C_2  and  O_3
REMARK    2  A    between atoms: C_2  and  C_4
REMARK    3  A    between atoms: N_6  and  C_7
REMARK    4  A    between atoms: C_7  and  C_8
REMARK    5  A    between atoms: C_7  and  C_19
REMARK    6  A    between atoms: C_8  and  S_9
REMARK    7  A    between atoms: S_9  and  S_10
REMARK    8  A    between atoms: S_10  and  C_11
REMARK    9  A    between atoms: C_11  and  C_12
REMARK   10  A    between atoms: C_12  and  C_13
REMARK   11  A    between atoms: C_19  and  O_21
REMARK                            x       y       z     vdW  Elec       q    Type
REMARK                         _______ _______ _______ _____ _____    ______ ____
ROOT
ATOM      1  C   UNK A   1       6.522   5.796  18.410  0.00  0.00    +0.000 C 
ENDROOT
BRANCH   1   4
ATOM      2  C   UNK A   0       6.446   5.719  15.902  0.00  0.00    +0.000 C 
ATOM      3  O   UNK A   0       5.686   6.660  15.745  0.00  0.00    +0.000 OA
ATOM      4  N   UNK A   1       6.886   5.223  17.107  0.00  0.00    +0.000 N 
ATOM      5  H   UNK A   1       7.557   4.452  17.087  0.00  0.00    +0.000 HD
BRANCH   2   7
ATOM      6  O   UNK A   0       7.969   5.372  14.042  0.00  0.00    +0.000 OA
ATOM      7  C   UNK A   0       6.990   4.983  14.651  0.00  0.00    +0.000 C 
BRANCH   7   8
ATOM      8  O   UNK A   0       6.254   3.898  14.360  0.00  0.00    +0.000 OA
ATOM      9  H   UNK A   0       6.837   3.191  14.000  0.00  0.00    +0.000 HD
ENDBRANCH   7   8
ENDBRANCH   2   7
ENDBRANCH   1   4
BRANCH   1  10
ATOM     10  C   UNK A   1       7.834   6.055  19.161  0.00  0.00    +0.000 C 
ATOM     11  O   UNK A   1       8.292   5.282  19.996  0.00  0.00    +0.000 OA
BRANCH  10  12
ATOM     12  O   UNK A   1       8.459   7.206  18.832  0.00  0.00    +0.000 OA
ATOM     13  H   UNK A   1       9.384   7.280  19.141  0.00  0.00    +0.000 HD
ENDBRANCH  10  12
ENDBRANCH   1  10
BRANCH   1  14
ATOM     14  C   UNK A   1       5.616   4.855  19.218  0.00  0.00    +0.000 C 
BRANCH  14  15
ATOM     15  S   UNK A   1       5.120   3.396  18.216  0.00  0.00    +0.000 S 
BRANCH  15  16
ATOM     16  S   UNK A   1       3.842   2.364  19.458  0.00  0.00    +0.000 S 
BRANCH  16  17
ATOM     17  C   UNK A   1       2.427   2.025  18.340  0.00  0.00    +0.000 C 
BRANCH  17  18
ATOM     18  C   UNK A   1       1.212   2.879  18.718  0.00  0.00    +0.000 C 
BRANCH  18  19
ATOM     19  C   UNK A   1       1.593   4.315  19.004  0.00  0.00    +0.000 A 
ATOM     20  C   UNK A   1       2.007   5.176  17.978  0.00  0.00    +0.000 A 
ATOM     21  C   UNK A   1       2.375   6.496  18.260  0.00  0.00    +0.000 A 
ATOM     22  C   UNK A   1       2.330   6.970  19.572  0.00  0.00    +0.000 A 
ATOM     23  C   UNK A   1       1.912   6.127  20.598  0.00  0.00    +0.000 A 
ATOM     24  C   UNK A   1       1.548   4.808  20.317  0.00  0.00    +0.000 A 
ENDBRANCH  18  19
ENDBRANCH  17  18
ENDBRANCH  16  17
ENDBRANCH  15  16
ENDBRANCH  14  15
ENDBRANCH   1  14
TORSDOF 11
ENDMDL
MODEL 6
REMARK VINA RESULT:      -6.3      3.596      7.045
REMARK  Name = 
REMARK  11 active torsions:
REMARK  status: ('A' for Active; 'I' for Inactive)
REMARK    1  A    between atoms: C_2  and  O_3
REMARK    2  A    between atoms: C_2  and  C_4
REMARK    3  A    between atoms: N_6  and  C_7
REMARK    4  A    between atoms: C_7  and  C_8
REMARK    5  A    between atoms: C_7  and  C_19
REMARK    6  A    between atoms: C_8  and  S_9
REMARK    7  A    between atoms: S_9  and  S_10
REMARK    8  A    between atoms: S_10  and  C_11
REMARK    9  A    between atoms: C_11  and  C_12
REMARK   10  A    between atoms: C_12  and  C_13
REMARK   11  A    between atoms: C_19  and  O_21
REMARK                            x       y       z     vdW  Elec       q    Type
REMARK                         _______ _______ _______ _____ _____    ______ ____
ROOT
ATOM      1  C   UNK A   1       1.957   4.032  19.645  0.00  0.00    +0.000 C 
ENDROOT
BRANCH   1   4
ATOM      2  C   UNK A   0       3.446   2.445  20.895  0.00  0.00    +0.000 C 
ATOM      3  O   UNK A   0       2.778   2.380  21.913  0.00  0.00    +0.000 OA
ATOM      4  N   UNK A   1       3.160   3.201  19.783  0.00  0.00    +0.000 N 
ATOM      5  H   UNK A   1       3.791   3.126  18.982  0.00  0.00    +0.000 HD
BRANCH   2   7
ATOM      6  O   UNK A   0       5.425   1.353  21.784  0.00  0.00    +0.000 OA
ATOM      7  C   UNK A   0       4.750   1.613  20.805  0.00  0.00    +0.000 C 
BRANCH   7   8
ATOM      8  O   UNK A   0       5.008   1.233  19.543  0.00  0.00    +0.000 OA
ATOM      9  H   UNK A   0       5.718   1.800  19.165  0.00  0.00    +0.000 HD
ENDBRANCH   7   8
ENDBRANCH   2   7
ENDBRANCH   1   4
BRANCH   1  10
ATOM     10  C   UNK A   1       1.074   3.360  18.585  0.00  0.00    +0.000 C 
ATOM     11  O   UNK A   1       0.406   2.357  18.807  0.00  0.00    +0.000 OA
BRANCH  10  12
ATOM     12  O   UNK A   1       1.082   3.963  17.376  0.00  0.00    +0.000 OA
ATOM     13  H   UNK A   1       0.649   3.460  16.658  0.00  0.00    +0.000 HD
ENDBRANCH  10  12
ENDBRANCH   1  10
BRANCH   1  14
ATOM     14  C   UNK A   1       2.297   5.471  19.227  0.00  0.00    +0.000 C 
BRANCH  14  15
ATOM     15  S   UNK A   1       4.116   5.712  19.115  0.00  0.00    +0.000 S 
BRANCH  15  16
ATOM     16  S   UNK A   1       4.455   5.923  17.095  0.00  0.00    +0.000 S 
BRANCH  16  17
ATOM     17  C   UNK A   1       5.764   4.671  16.803  0.00  0.00    +0.000 C 
BRANCH  17  18
ATOM     18  C   UNK A   1       6.921   5.265  15.993  0.00  0.00    +0.000 C 
BRANCH  18  19
ATOM     19  C   UNK A   1       6.896   4.813  14.550  0.00  0.00    +0.000 A 
ATOM     20  C   UNK A   1       7.739   5.393  13.591  0.00  0.00    +0.000 A 
ATOM     21  C   UNK A   1       7.691   4.979  12.256  0.00  0.00    +0.000 A 
ATOM     22  C   UNK A   1       6.801   3.977  11.865  0.00  0.00    +0.000 A 
ATOM     23  C   UNK A   1       5.965   3.388  12.809  0.00  0.00    +0.000 A 
ATOM     24  C   UNK A   1       6.011   3.803  14.142  0.00  0.00    +0.000 A 
ENDBRANCH  18  19
ENDBRANCH  17  18
ENDBRANCH  16  17
ENDBRANCH  15  16
ENDBRANCH  14  15
ENDBRANCH   1  14
TORSDOF 11
ENDMDL
MODEL 7
REMARK VINA RESULT:      -6.3      1.738      2.699
REMARK  Name = 
REMARK  11 active torsions:
REMARK  status: ('A' for Active; 'I' for Inactive)
REMARK    1  A    between atoms: C_2  and  O_3
REMARK    2  A    between atoms: C_2  and  C_4
REMARK    3  A    between atoms: N_6  and  C_7
REMARK    4  A    between atoms: C_7  and  C_8
REMARK    5  A    between atoms: C_7  and  C_19
REMARK    6  A    between atoms: C_8  and  S_9
REMARK    7  A    between atoms: S_9  and  S_10
REMARK    8  A    between atoms: S_10  and  C_11
REMARK    9  A    between atoms: C_11  and  C_12
REMARK   10  A    between atoms: C_12  and  C_13
REMARK   11  A    between atoms: C_19  and  O_21
REMARK                            x       y       z     vdW  Elec       q    Type
REMARK                         _______ _______ _______ _____ _____    ______ ____
ROOT
ATOM      1  C   UNK A   1       6.832   5.918  17.020  0.00  0.00    +0.000 C 
ENDROOT
BRANCH   1   4
ATOM      2  C   UNK A   0       6.993   4.927  14.720  0.00  0.00    +0.000 C 
ATOM      3  O   UNK A   0       6.170   4.040  14.880  0.00  0.00    +0.000 OA
ATOM      4  N   UNK A   1       7.388   5.847  15.662  0.00  0.00    +0.000 N 
ATOM      5  H   UNK A   1       8.059   6.563  15.375  0.00  0.00    +0.000 HD
BRANCH   2   7
ATOM      6  O   UNK A   0       8.636   5.798  13.158  0.00  0.00    +0.000 OA
ATOM      7  C   UNK A   0       7.683   5.063  13.340  0.00  0.00    +0.000 C 
BRANCH   7   8
ATOM      8  O   UNK A   0       7.101   4.278  12.418  0.00  0.00    +0.000 OA
ATOM      9  H   UNK A   0       7.793   3.810  11.898  0.00  0.00    +0.000 HD
ENDBRANCH   7   8
ENDBRANCH   2   7
ENDBRANCH   1   4
BRANCH   1  10
ATOM     10  C   UNK A   1       7.576   7.048  17.744  0.00  0.00    +0.000 C 
ATOM     11  O   UNK A   1       7.617   8.199  17.326  0.00  0.00    +0.000 OA
BRANCH  10  12
ATOM     12  O   UNK A   1       8.186   6.680  18.892  0.00  0.00    +0.000 OA
ATOM     13  H   UNK A   1       8.962   6.096  18.781  0.00  0.00    +0.000 HD
ENDBRANCH  10  12
ENDBRANCH   1  10
BRANCH   1  14
ATOM     14  C   UNK A   1       6.999   4.593  17.779  0.00  0.00    +0.000 C 
BRANCH  14  15
ATOM     15  S   UNK A   1       5.437   4.114  18.623  0.00  0.00    +0.000 S 
BRANCH  15  16
ATOM     16  S   UNK A   1       3.969   4.774  17.339  0.00  0.00    +0.000 S 
BRANCH  16  17
ATOM     17  C   UNK A   1       2.602   5.159  18.501  0.00  0.00    +0.000 C 
BRANCH  17  18
ATOM     18  C   UNK A   1       3.029   6.224  19.516  0.00  0.00    +0.000 C 
BRANCH  18  19
ATOM     19  C   UNK A   1       2.261   7.516  19.343  0.00  0.00    +0.000 A 
ATOM     20  C   UNK A   1       2.246   8.195  18.116  0.00  0.00    +0.000 A 
ATOM     21  C   UNK A   1       1.548   9.399  17.976  0.00  0.00    +0.000 A 
ATOM     22  C   UNK A   1       0.854   9.936  19.061  0.00  0.00    +0.000 A 
ATOM     23  C   UNK A   1       0.854   9.266  20.282  0.00  0.00    +0.000 A 
ATOM     24  C   UNK A   1       1.553   8.066  20.423  0.00  0.00    +0.000 A 
ENDBRANCH  18  19
ENDBRANCH  17  18
ENDBRANCH  16  17
ENDBRANCH  15  16
ENDBRANCH  14  15
ENDBRANCH   1  14
TORSDOF 11
ENDMDL
MODEL 8
REMARK VINA RESULT:      -6.3      2.370      4.029
REMARK  Name = 
REMARK  11 active torsions:
REMARK  status: ('A' for Active; 'I' for Inactive)
REMARK    1  A    between atoms: C_2  and  O_3
REMARK    2  A    between atoms: C_2  and  C_4
REMARK    3  A    between atoms: N_6  and  C_7
REMARK    4  A    between atoms: C_7  and  C_8
REMARK    5  A    between atoms: C_7  and  C_19
REMARK    6  A    between atoms: C_8  and  S_9
REMARK    7  A    between atoms: S_9  and  S_10
REMARK    8  A    between atoms: S_10  and  C_11
REMARK    9  A    between atoms: C_11  and  C_12
REMARK   10  A    between atoms: C_12  and  C_13
REMARK   11  A    between atoms: C_19  and  O_21
REMARK                            x       y       z     vdW  Elec       q    Type
REMARK                         _______ _______ _______ _____ _____    ______ ____
ROOT
ATOM      1  C   UNK A   1       6.223   4.282  14.456  0.00  0.00    +0.000 C 
ENDROOT
BRANCH   1   4
ATOM      2  C   UNK A   0       5.954   2.997  12.316  0.00  0.00    +0.000 C 
ATOM      3  O   UNK A   0       4.961   3.580  11.913  0.00  0.00    +0.000 OA
ATOM      4  N   UNK A   1       6.612   3.236  13.500  0.00  0.00    +0.000 N 
ATOM      5  H   UNK A   1       7.459   2.696  13.690  0.00  0.00    +0.000 HD
BRANCH   2   7
ATOM      6  O   UNK A   0       7.620   2.005  10.853  0.00  0.00    +0.000 OA
ATOM      7  C   UNK A   0       6.563   1.872  11.442  0.00  0.00    +0.000 C 
BRANCH   7   8
ATOM      8  O   UNK A   0       5.787   0.775  11.439  0.00  0.00    +0.000 OA
ATOM      9  H   UNK A   0       4.864   1.024  11.206  0.00  0.00    +0.000 HD
ENDBRANCH   7   8
ENDBRANCH   2   7
ENDBRANCH   1   4
BRANCH   1  10
ATOM     10  C   UNK A   1       7.349   5.323  14.455  0.00  0.00    +0.000 C 
ATOM     11  O   UNK A   1       7.969   5.639  13.446  0.00  0.00    +0.000 OA
BRANCH  10  12
ATOM     12  O   UNK A   1       7.610   5.876  15.660  0.00  0.00    +0.000 OA
ATOM     13  H   UNK A   1       8.138   5.320  16.266  0.00  0.00    +0.000 HD
ENDBRANCH  10  12
ENDBRANCH   1  10
BRANCH   1  14
ATOM     14  C   UNK A   1       6.013   3.718  15.870  0.00  0.00    +0.000 C 
BRANCH  14  15
ATOM     15  S   UNK A   1       4.348   4.157  16.514  0.00  0.00    +0.000 S 
BRANCH  15  16
ATOM     16  S   UNK A   1       4.504   6.165  16.939  0.00  0.00    +0.000 S 
BRANCH  16  17
ATOM     17  C   UNK A   1       4.070   6.204  18.722  0.00  0.00    +0.000 C 
BRANCH  17  18
ATOM     18  C   UNK A   1       2.550   6.169  18.917  0.00  0.00    +0.000 C 
BRANCH  18  19
ATOM     19  C   UNK A   1       2.094   4.902  19.606  0.00  0.00    +0.000 A 
ATOM     20  C   UNK A   1       1.356   3.926  18.922  0.00  0.00    +0.000 A 
ATOM     21  C   UNK A   1       0.924   2.769  19.578  0.00  0.00    +0.000 A 
ATOM     22  C   UNK A   1       1.229   2.574  20.926  0.00  0.00    +0.000 A 
ATOM     23  C   UNK A   1       1.968   3.531  21.614  0.00  0.00    +0.000 A 
ATOM     24  C   UNK A   1       2.397   4.688  20.960  0.00  0.00    +0.000 A 
ENDBRANCH  18  19
ENDBRANCH  17  18
ENDBRANCH  16  17
ENDBRANCH  15  16
ENDBRANCH  14  15
ENDBRANCH   1  14
TORSDOF 11
ENDMDL
MODEL 9
REMARK VINA RESULT:      -6.3      4.961      7.784
REMARK  Name = 
REMARK  11 active torsions:
REMARK  status: ('A' for Active; 'I' for Inactive)
REMARK    1  A    between atoms: C_2  and  O_3
REMARK    2  A    between atoms: C_2  and  C_4
REMARK    3  A    between atoms: N_6  and  C_7
REMARK    4  A    between atoms: C_7  and  C_8
REMARK    5  A    between atoms: C_7  and  C_19
REMARK    6  A    between atoms: C_8  and  S_9
REMARK    7  A    between atoms: S_9  and  S_10
REMARK    8  A    between atoms: S_10  and  C_11
REMARK    9  A    between atoms: C_11  and  C_12
REMARK   10  A    between atoms: C_12  and  C_13
REMARK   11  A    between atoms: C_19  and  O_21
REMARK                            x       y       z     vdW  Elec       q    Type
REMARK                         _______ _______ _______ _____ _____    ______ ____
ROOT
ATOM      1  C   UNK A   1       5.521   4.642  17.205  0.00  0.00    +0.000 C 
ENDROOT
BRANCH   1   4
ATOM      2  C   UNK A   0       3.667   3.050  17.778  0.00  0.00    +0.000 C 
ATOM      3  O   UNK A   0       2.764   3.671  17.243  0.00  0.00    +0.000 OA
ATOM      4  N   UNK A   1       4.989   3.425  17.833  0.00  0.00    +0.000 N 
ATOM      5  H   UNK A   1       5.647   2.784  18.281  0.00  0.00    +0.000 HD
BRANCH   2   7
ATOM      6  O   UNK A   0       2.283   1.514  19.053  0.00  0.00    +0.000 OA
ATOM      7  C   UNK A   0       3.337   1.706  18.475  0.00  0.00    +0.000 C 
BRANCH   7   8
ATOM      8  O   UNK A   0       4.341   0.823  18.345  0.00  0.00    +0.000 OA
ATOM      9  H   UNK A   0       4.086  -0.031  18.763  0.00  0.00    +0.000 HD
ENDBRANCH   7   8
ENDBRANCH   2   7
ENDBRANCH   1   4
BRANCH   1  10
ATOM     10  C   UNK A   1       6.711   4.209  16.339  0.00  0.00    +0.000 C 
ATOM     11  O   UNK A   1       6.614   3.962  15.143  0.00  0.00    +0.000 OA
BRANCH  10  12
ATOM     12  O   UNK A   1       7.888   4.123  16.996  0.00  0.00    +0.000 OA
ATOM     13  H   UNK A   1       8.680   4.326  16.459  0.00  0.00    +0.000 HD
ENDBRANCH  10  12
ENDBRANCH   1  10
BRANCH   1  14
ATOM     14  C   UNK A   1       5.965   5.679  18.249  0.00  0.00    +0.000 C 
BRANCH  14  15
ATOM     15  S   UNK A   1       6.475   7.250  17.442  0.00  0.00    +0.000 S 
BRANCH  15  16
ATOM     16  S   UNK A   1       8.306   7.660  18.289  0.00  0.00    +0.000 S 
BRANCH  16  17
ATOM     17  C   UNK A   1       8.388   9.487  18.134  0.00  0.00    +0.000 C 
BRANCH  17  18
ATOM     18  C   UNK A   1       9.117  10.106  19.331  0.00  0.00    +0.000 C 
BRANCH  18  19
ATOM     19  C   UNK A   1      10.141  11.135  18.905  0.00  0.00    +0.000 A 
ATOM     20  C   UNK A   1      11.289  11.381  19.671  0.00  0.00    +0.000 A 
ATOM     21  C   UNK A   1      12.216  12.349  19.274  0.00  0.00    +0.000 A 
ATOM     22  C   UNK A   1      12.008  13.080  18.104  0.00  0.00    +0.000 A 
ATOM     23  C   UNK A   1      10.877  12.839  17.330  0.00  0.00    +0.000 A 
ATOM     24  C   UNK A   1       9.948  11.874  17.727  0.00  0.00    +0.000 A 
ENDBRANCH  18  19
ENDBRANCH  17  18
ENDBRANCH  16  17
ENDBRANCH  15  16
ENDBRANCH  14  15
ENDBRANCH   1  14
TORSDOF 11
ENDMDL
