MODEL 1
REMARK VINA RESULT:      -8.5      0.000      0.000
REMARK  Name = 
REMARK  5 active torsions:
REMARK  status: ('A' for Active; 'I' for Inactive)
REMARK    1  A    between atoms: N_2  and  C_4
REMARK    2  A    between atoms: C_7  and  S_8
REMARK    3  A    between atoms: S_8  and  N_9
REMARK    4  A    between atoms: N_9  and  C_10
REMARK    5  A    between atoms: N_9  and  C_16
REMARK                            x       y       z     vdW  Elec       q    Type
REMARK                         _______ _______ _______ _____ _____    ______ ____
ROOT
ATOM      1  N   UNL     1       2.963   5.841  18.997  0.00  0.00    +0.000 N 
ENDROOT
BRANCH   1   2
ATOM      2  C   UNL     1       2.180   4.653  19.271  0.00  0.00    +0.000 A 
ATOM      3  C   UNL     1       1.673   3.803  18.269  0.00  0.00    +0.000 A 
ATOM      4  C   UNL     1       1.000   2.613  18.586  0.00  0.00    +0.000 A 
ATOM      5  C   UNL     1       0.815   2.243  19.914  0.00  0.00    +0.000 A 
ATOM      6  C   UNL     1       1.278   3.075  20.927  0.00  0.00    +0.000 A 
ATOM      7  C   UNL     1       1.933   4.270  20.608  0.00  0.00    +0.000 A 
ENDBRANCH   1   2
BRANCH   1   8
ATOM      8  C   UNL     1       2.374   7.169  19.053  0.00  0.00    +0.000 A 
ATOM      9  C   UNL     1       2.332   8.011  17.929  0.00  0.00    +0.000 A 
ATOM     10  C   UNL     1       1.772   9.291  17.960  0.00  0.00    +0.000 A 
ATOM     11  C   UNL     1       1.206   9.768  19.131  0.00  0.00    +0.000 A 
ATOM     12  C   UNL     1       1.225   8.968  20.270  0.00  0.00    +0.000 A 
ATOM     13  C   UNL     1       1.812   7.696  20.233  0.00  0.00    +0.000 A 
ENDBRANCH   1   8
BRANCH   1  14
ATOM     14  S   UNL     1       4.647   5.766  19.285  0.00  0.00    +0.000 S 
BRANCH  14  18
ATOM     15  C   UNL     1       6.607   5.032  15.183  0.00  0.00    +0.000 A 
ATOM     16  C   UNL     1       5.327   5.577  15.256  0.00  0.00    +0.000 A 
ATOM     17  C   UNL     1       4.733   5.759  16.508  0.00  0.00    +0.000 A 
ATOM     18  C   UNL     1       5.358   5.340  17.692  0.00  0.00    +0.000 A 
ATOM     19  C   UNL     1       6.641   4.783  17.598  0.00  0.00    +0.000 A 
ATOM     20  C   UNL     1       7.273   4.639  16.349  0.00  0.00    +0.000 A 
BRANCH  15  22
ATOM     21  O   UNL     1       8.264   5.634  13.669  0.00  0.00    +0.000 OA
ATOM     22  N   UNL     1       7.268   4.929  13.873  0.00  0.00    +0.000 N 
ATOM     23  O   UNL     1       6.794   4.129  13.052  0.00  0.00    +0.000 OA
ENDBRANCH  15  22
ENDBRANCH  14  18
ENDBRANCH   1  14
TORSDOF 5
ENDMDL
MODEL 2
REMARK VINA RESULT:      -8.4      0.141      1.197
REMARK  Name = 
REMARK  5 active torsions:
REMARK  status: ('A' for Active; 'I' for Inactive)
REMARK    1  A    between atoms: N_2  and  C_4
REMARK    2  A    between atoms: C_7  and  S_8
REMARK    3  A    between atoms: S_8  and  N_9
REMARK    4  A    between atoms: N_9  and  C_10
REMARK    5  A    between atoms: N_9  and  C_16
REMARK                            x       y       z     vdW  Elec       q    Type
REMARK                         _______ _______ _______ _____ _____    ______ ____
ROOT
ATOM      1  N   UNL     1       2.981   5.903  19.020  0.00  0.00    +0.000 N 
ENDROOT
BRANCH   1   2
ATOM      2  C   UNL     1       2.253   4.683  19.306  0.00  0.00    +0.000 A 
ATOM      3  C   UNL     1       1.856   4.295  20.601  0.00  0.00    +0.000 A 
ATOM      4  C   UNL     1       1.072   3.153  20.818  0.00  0.00    +0.000 A 
ATOM      5  C   UNL     1       0.664   2.366  19.745  0.00  0.00    +0.000 A 
ATOM      6  C   UNL     1       1.062   2.706  18.457  0.00  0.00    +0.000 A 
ATOM      7  C   UNL     1       1.861   3.837  18.246  0.00  0.00    +0.000 A 
ENDBRANCH   1   2
BRANCH   1   8
ATOM      8  C   UNL     1       2.344   7.207  19.109  0.00  0.00    +0.000 A 
ATOM      9  C   UNL     1       2.249   8.064  18.000  0.00  0.00    +0.000 A 
ATOM     10  C   UNL     1       1.641   9.322  18.063  0.00  0.00    +0.000 A 
ATOM     11  C   UNL     1       1.081   9.759  19.252  0.00  0.00    +0.000 A 
ATOM     12  C   UNL     1       1.152   8.942  20.378  0.00  0.00    +0.000 A 
ATOM     13  C   UNL     1       1.786   7.693  20.308  0.00  0.00    +0.000 A 
ENDBRANCH   1   8
BRANCH   1  14
ATOM     14  S   UNL     1       4.675   5.890  19.253  0.00  0.00    +0.000 S 
BRANCH  14  18
ATOM     15  C   UNL     1       6.574   5.041  15.144  0.00  0.00    +0.000 A 
ATOM     16  C   UNL     1       5.365   5.728  15.224  0.00  0.00    +0.000 A 
ATOM     17  C   UNL     1       4.785   5.945  16.477  0.00  0.00    +0.000 A 
ATOM     18  C   UNL     1       5.347   5.425  17.654  0.00  0.00    +0.000 A 
ATOM     19  C   UNL     1       6.558   4.726  17.552  0.00  0.00    +0.000 A 
ATOM     20  C   UNL     1       7.180   4.543  16.303  0.00  0.00    +0.000 A 
BRANCH  15  22
ATOM     21  O   UNL     1       6.767   4.067  13.043  0.00  0.00    +0.000 OA
ATOM     22  N   UNL     1       7.231   4.896  13.836  0.00  0.00    +0.000 N 
ATOM     23  O   UNL     1       8.206   5.625  13.600  0.00  0.00    +0.000 OA
ENDBRANCH  15  22
ENDBRANCH  14  18
ENDBRANCH   1  14
TORSDOF 5
ENDMDL
MODEL 3
REMARK VINA RESULT:      -8.4      0.211      1.025
REMARK  Name = 
REMARK  5 active torsions:
REMARK  status: ('A' for Active; 'I' for Inactive)
REMARK    1  A    between atoms: N_2  and  C_4
REMARK    2  A    between atoms: C_7  and  S_8
REMARK    3  A    between atoms: S_8  and  N_9
REMARK    4  A    between atoms: N_9  and  C_10
REMARK    5  A    between atoms: N_9  and  C_16
REMARK                            x       y       z     vdW  Elec       q    Type
REMARK                         _______ _______ _______ _____ _____    ______ ____
ROOT
ATOM      1  N   UNL     1       2.936   5.884  19.036  0.00  0.00    +0.000 N 
ENDROOT
BRANCH   1   2
ATOM      2  C   UNL     1       2.164   4.678  19.255  0.00  0.00    +0.000 A 
ATOM      3  C   UNL     1       1.730   3.829  18.219  0.00  0.00    +0.000 A 
ATOM      4  C   UNL     1       1.065   2.623  18.487  0.00  0.00    +0.000 A 
ATOM      5  C   UNL     1       0.817   2.234  19.800  0.00  0.00    +0.000 A 
ATOM      6  C   UNL     1       1.209   3.063  20.844  0.00  0.00    +0.000 A 
ATOM      7  C   UNL     1       1.854   4.275  20.573  0.00  0.00    +0.000 A 
ENDBRANCH   1   2
BRANCH   1   8
ATOM      8  C   UNL     1       2.321   7.200  19.086  0.00  0.00    +0.000 A 
ATOM      9  C   UNL     1       2.230   8.022  17.950  0.00  0.00    +0.000 A 
ATOM     10  C   UNL     1       1.643   9.290  17.975  0.00  0.00    +0.000 A 
ATOM     11  C   UNL     1       1.099   9.775  19.153  0.00  0.00    +0.000 A 
ATOM     12  C   UNL     1       1.166   8.995  20.304  0.00  0.00    +0.000 A 
ATOM     13  C   UNL     1       1.779   7.735  20.272  0.00  0.00    +0.000 A 
ENDBRANCH   1   8
BRANCH   1  14
ATOM     14  S   UNL     1       4.607   5.836  19.398  0.00  0.00    +0.000 S 
BRANCH  14  18
ATOM     15  C   UNL     1       6.516   5.166  15.261  0.00  0.00    +0.000 A 
ATOM     16  C   UNL     1       7.160   4.708  16.408  0.00  0.00    +0.000 A 
ATOM     17  C   UNL     1       6.584   4.952  17.658  0.00  0.00    +0.000 A 
ATOM     18  C   UNL     1       5.412   5.712  17.798  0.00  0.00    +0.000 A 
ATOM     19  C   UNL     1       4.784   6.174  16.633  0.00  0.00    +0.000 A 
ATOM     20  C   UNL     1       5.325   5.894  15.365  0.00  0.00    +0.000 A 
BRANCH  15  22
ATOM     21  O   UNL     1       8.023   5.498  13.524  0.00  0.00    +0.000 OA
ATOM     22  N   UNL     1       7.073   4.827  13.942  0.00  0.00    +0.000 N 
ATOM     23  O   UNL     1       6.562   3.876  13.331  0.00  0.00    +0.000 OA
ENDBRANCH  15  22
ENDBRANCH  14  18
ENDBRANCH   1  14
TORSDOF 5
ENDMDL
MODEL 4
REMARK VINA RESULT:      -8.4      0.141      1.196
REMARK  Name = 
REMARK  5 active torsions:
REMARK  status: ('A' for Active; 'I' for Inactive)
REMARK    1  A    between atoms: N_2  and  C_4
REMARK    2  A    between atoms: C_7  and  S_8
REMARK    3  A    between atoms: S_8  and  N_9
REMARK    4  A    between atoms: N_9  and  C_10
REMARK    5  A    between atoms: N_9  and  C_16
REMARK                            x       y       z     vdW  Elec       q    Type
REMARK                         _______ _______ _______ _____ _____    ______ ____
ROOT
ATOM      1  N   UNL     1       3.002   5.832  19.035  0.00  0.00    +0.000 N 
ENDROOT
BRANCH   1   2
ATOM      2  C   UNL     1       2.236   4.648  19.372  0.00  0.00    +0.000 A 
ATOM      3  C   UNL     1       1.516   3.890  18.429  0.00  0.00    +0.000 A 
ATOM      4  C   UNL     1       0.866   2.699  18.786  0.00  0.00    +0.000 A 
ATOM      5  C   UNL     1       0.919   2.235  20.097  0.00  0.00    +0.000 A 
ATOM      6  C   UNL     1       1.599   2.976  21.057  0.00  0.00    +0.000 A 
ATOM      7  C   UNL     1       2.230   4.173  20.702  0.00  0.00    +0.000 A 
ENDBRANCH   1   2
BRANCH   1   8
ATOM      8  C   UNL     1       2.399   7.154  19.042  0.00  0.00    +0.000 A 
ATOM      9  C   UNL     1       1.785   7.685  20.188  0.00  0.00    +0.000 A 
ATOM     10  C   UNL     1       1.199   8.954  20.217  0.00  0.00    +0.000 A 
ATOM     11  C   UNL     1       1.230   9.754  19.087  0.00  0.00    +0.000 A 
ATOM     12  C   UNL     1       1.828   9.269  17.927  0.00  0.00    +0.000 A 
ATOM     13  C   UNL     1       2.391   7.985  17.904  0.00  0.00    +0.000 A 
ENDBRANCH   1   8
BRANCH   1  14
ATOM     14  S   UNL     1       4.691   5.788  19.303  0.00  0.00    +0.000 S 
BRANCH  14  18
ATOM     15  C   UNL     1       6.607   5.019  15.187  0.00  0.00    +0.000 A 
ATOM     16  C   UNL     1       5.313   5.529  15.269  0.00  0.00    +0.000 A 
ATOM     17  C   UNL     1       4.734   5.722  16.526  0.00  0.00    +0.000 A 
ATOM     18  C   UNL     1       5.389   5.346  17.709  0.00  0.00    +0.000 A 
ATOM     19  C   UNL     1       6.686   4.824  17.606  0.00  0.00    +0.000 A 
ATOM     20  C   UNL     1       7.302   4.670  16.350  0.00  0.00    +0.000 A 
BRANCH  15  22
ATOM     21  O   UNL     1       6.781   4.094  13.062  0.00  0.00    +0.000 OA
ATOM     22  N   UNL     1       7.251   4.906  13.869  0.00  0.00    +0.000 N 
ATOM     23  O   UNL     1       8.221   5.643  13.639  0.00  0.00    +0.000 OA
ENDBRANCH  15  22
ENDBRANCH  14  18
ENDBRANCH   1  14
TORSDOF 5
ENDMDL
MODEL 5
REMARK VINA RESULT:      -8.4      0.311      1.569
REMARK  Name = 
REMARK  5 active torsions:
REMARK  status: ('A' for Active; 'I' for Inactive)
REMARK    1  A    between atoms: N_2  and  C_4
REMARK    2  A    between atoms: C_7  and  S_8
REMARK    3  A    between atoms: S_8  and  N_9
REMARK    4  A    between atoms: N_9  and  C_10
REMARK    5  A    between atoms: N_9  and  C_16
REMARK                            x       y       z     vdW  Elec       q    Type
REMARK                         _______ _______ _______ _____ _____    ______ ____
ROOT
ATOM      1  N   UNL     1       2.928   5.936  18.964  0.00  0.00    +0.000 N 
ENDROOT
BRANCH   1   2
ATOM      2  C   UNL     1       2.156   4.723  19.149  0.00  0.00    +0.000 A 
ATOM      3  C   UNL     1       1.838   3.832  18.105  0.00  0.00    +0.000 A 
ATOM      4  C   UNL     1       1.169   2.624  18.349  0.00  0.00    +0.000 A 
ATOM      5  C   UNL     1       0.799   2.274  19.644  0.00  0.00    +0.000 A 
ATOM      6  C   UNL     1       1.074   3.144  20.692  0.00  0.00    +0.000 A 
ATOM      7  C   UNL     1       1.725   4.358  20.443  0.00  0.00    +0.000 A 
ENDBRANCH   1   2
BRANCH   1   8
ATOM      8  C   UNL     1       2.313   7.249  19.057  0.00  0.00    +0.000 A 
ATOM      9  C   UNL     1       1.791   7.741  20.265  0.00  0.00    +0.000 A 
ATOM     10  C   UNL     1       1.195   9.001  20.377  0.00  0.00    +0.000 A 
ATOM     11  C   UNL     1       1.122   9.831  19.271  0.00  0.00    +0.000 A 
ATOM     12  C   UNL     1       1.626   9.385  18.052  0.00  0.00    +0.000 A 
ATOM     13  C   UNL     1       2.199   8.109  17.946  0.00  0.00    +0.000 A 
ENDBRANCH   1   8
BRANCH   1  14
ATOM     14  S   UNL     1       4.599   5.876  19.319  0.00  0.00    +0.000 S 
BRANCH  14  18
ATOM     15  C   UNL     1       6.427   5.079  15.167  0.00  0.00    +0.000 A 
ATOM     16  C   UNL     1       6.976   4.477  16.298  0.00  0.00    +0.000 A 
ATOM     17  C   UNL     1       6.432   4.759  17.554  0.00  0.00    +0.000 A 
ATOM     18  C   UNL     1       5.394   5.690  17.719  0.00  0.00    +0.000 A 
ATOM     19  C   UNL     1       4.862   6.294  16.572  0.00  0.00    +0.000 A 
ATOM     20  C   UNL     1       5.366   5.983  15.295  0.00  0.00    +0.000 A 
BRANCH  15  22
ATOM     21  O   UNL     1       6.468   3.703  13.296  0.00  0.00    +0.000 OA
ATOM     22  N   UNL     1       6.939   4.709  13.839  0.00  0.00    +0.000 N 
ATOM     23  O   UNL     1       7.805   5.440  13.334  0.00  0.00    +0.000 OA
ENDBRANCH  15  22
ENDBRANCH  14  18
ENDBRANCH   1  14
TORSDOF 5
ENDMDL
MODEL 6
REMARK VINA RESULT:      -8.3      0.331      1.443
REMARK  Name = 
REMARK  5 active torsions:
REMARK  status: ('A' for Active; 'I' for Inactive)
REMARK    1  A    between atoms: N_2  and  C_4
REMARK    2  A    between atoms: C_7  and  S_8
REMARK    3  A    between atoms: S_8  and  N_9
REMARK    4  A    between atoms: N_9  and  C_10
REMARK    5  A    between atoms: N_9  and  C_16
REMARK                            x       y       z     vdW  Elec       q    Type
REMARK                         _______ _______ _______ _____ _____    ______ ____
ROOT
ATOM      1  N   UNL     1       3.016   5.955  19.041  0.00  0.00    +0.000 N 
ENDROOT
BRANCH   1   2
ATOM      2  C   UNL     1       2.295   4.721  19.283  0.00  0.00    +0.000 A 
ATOM      3  C   UNL     1       1.908   4.280  20.564  0.00  0.00    +0.000 A 
ATOM      4  C   UNL     1       1.131   3.126  20.741  0.00  0.00    +0.000 A 
ATOM      5  C   UNL     1       0.720   2.381  19.640  0.00  0.00    +0.000 A 
ATOM      6  C   UNL     1       1.109   2.773  18.364  0.00  0.00    +0.000 A 
ATOM      7  C   UNL     1       1.901   3.915  18.193  0.00  0.00    +0.000 A 
ENDBRANCH   1   2
BRANCH   1   8
ATOM      8  C   UNL     1       2.355   7.247  19.115  0.00  0.00    +0.000 A 
ATOM      9  C   UNL     1       2.227   8.081  17.992  0.00  0.00    +0.000 A 
ATOM     10  C   UNL     1       1.595   9.328  18.040  0.00  0.00    +0.000 A 
ATOM     11  C   UNL     1       1.045   9.777  19.229  0.00  0.00    +0.000 A 
ATOM     12  C   UNL     1       1.148   8.984  20.368  0.00  0.00    +0.000 A 
ATOM     13  C   UNL     1       1.805   7.746  20.313  0.00  0.00    +0.000 A 
ENDBRANCH   1   8
BRANCH   1  14
ATOM     14  S   UNL     1       4.698   5.966  19.348  0.00  0.00    +0.000 S 
BRANCH  14  18
ATOM     15  C   UNL     1       6.421   5.081  15.169  0.00  0.00    +0.000 A 
ATOM     16  C   UNL     1       6.998   4.504  16.298  0.00  0.00    +0.000 A 
ATOM     17  C   UNL     1       6.486   4.812  17.561  0.00  0.00    +0.000 A 
ATOM     18  C   UNL     1       5.452   5.746  17.733  0.00  0.00    +0.000 A 
ATOM     19  C   UNL     1       4.890   6.325  16.586  0.00  0.00    +0.000 A 
ATOM     20  C   UNL     1       5.363   5.987  15.305  0.00  0.00    +0.000 A 
BRANCH  15  22
ATOM     21  O   UNL     1       7.747   5.396  13.288  0.00  0.00    +0.000 OA
ATOM     22  N   UNL     1       6.899   4.683  13.836  0.00  0.00    +0.000 N 
ATOM     23  O   UNL     1       6.430   3.645  13.345  0.00  0.00    +0.000 OA
ENDBRANCH  15  22
ENDBRANCH  14  18
ENDBRANCH   1  14
TORSDOF 5
ENDMDL
MODEL 7
REMARK VINA RESULT:      -8.2      0.369      1.867
REMARK  Name = 
REMARK  5 active torsions:
REMARK  status: ('A' for Active; 'I' for Inactive)
REMARK    1  A    between atoms: N_2  and  C_4
REMARK    2  A    between atoms: C_7  and  S_8
REMARK    3  A    between atoms: S_8  and  N_9
REMARK    4  A    between atoms: N_9  and  C_10
REMARK    5  A    between atoms: N_9  and  C_16
REMARK                            x       y       z     vdW  Elec       q    Type
REMARK                         _______ _______ _______ _____ _____    ______ ____
ROOT
ATOM      1  N   UNL     1       2.986   6.021  18.972  0.00  0.00    +0.000 N 
ENDROOT
BRANCH   1   2
ATOM      2  C   UNL     1       2.256   4.789  19.195  0.00  0.00    +0.000 A 
ATOM      3  C   UNL     1       1.741   4.402  20.448  0.00  0.00    +0.000 A 
ATOM      4  C   UNL     1       0.961   3.246  20.596  0.00  0.00    +0.000 A 
ATOM      5  C   UNL     1       0.677   2.444  19.494  0.00  0.00    +0.000 A 
ATOM      6  C   UNL     1       1.195   2.783  18.249  0.00  0.00    +0.000 A 
ATOM      7  C   UNL     1       1.988   3.928  18.109  0.00  0.00    +0.000 A 
ENDBRANCH   1   2
BRANCH   1   8
ATOM      8  C   UNL     1       2.331   7.317  19.052  0.00  0.00    +0.000 A 
ATOM      9  C   UNL     1       1.782   7.798  20.252  0.00  0.00    +0.000 A 
ATOM     10  C   UNL     1       1.148   9.040  20.353  0.00  0.00    +0.000 A 
ATOM     11  C   UNL     1       1.063   9.863  19.242  0.00  0.00    +0.000 A 
ATOM     12  C   UNL     1       1.595   9.428  18.031  0.00  0.00    +0.000 A 
ATOM     13  C   UNL     1       2.206   8.169  17.938  0.00  0.00    +0.000 A 
ENDBRANCH   1   8
BRANCH   1  14
ATOM     14  S   UNL     1       4.665   6.021  19.294  0.00  0.00    +0.000 S 
BRANCH  14  18
ATOM     15  C   UNL     1       6.426   5.120  15.135  0.00  0.00    +0.000 A 
ATOM     16  C   UNL     1       7.001   4.557  16.272  0.00  0.00    +0.000 A 
ATOM     17  C   UNL     1       6.476   4.870  17.529  0.00  0.00    +0.000 A 
ATOM     18  C   UNL     1       5.433   5.796  17.687  0.00  0.00    +0.000 A 
ATOM     19  C   UNL     1       4.874   6.361  16.532  0.00  0.00    +0.000 A 
ATOM     20  C   UNL     1       5.359   6.018  15.256  0.00  0.00    +0.000 A 
BRANCH  15  22
ATOM     21  O   UNL     1       6.433   3.702  13.295  0.00  0.00    +0.000 OA
ATOM     22  N   UNL     1       6.917   4.717  13.808  0.00  0.00    +0.000 N 
ATOM     23  O   UNL     1       7.782   5.429  13.276  0.00  0.00    +0.000 OA
ENDBRANCH  15  22
ENDBRANCH  14  18
ENDBRANCH   1  14
TORSDOF 5
ENDMDL
MODEL 8
REMARK VINA RESULT:      -8.0      0.638      1.667
REMARK  Name = 
REMARK  5 active torsions:
REMARK  status: ('A' for Active; 'I' for Inactive)
REMARK    1  A    between atoms: N_2  and  C_4
REMARK    2  A    between atoms: C_7  and  S_8
REMARK    3  A    between atoms: S_8  and  N_9
REMARK    4  A    between atoms: N_9  and  C_10
REMARK    5  A    between atoms: N_9  and  C_16
REMARK                            x       y       z     vdW  Elec       q    Type
REMARK                         _______ _______ _______ _____ _____    ______ ____
ROOT
ATOM      1  N   UNL     1       3.018   5.951  19.129  0.00  0.00    +0.000 N 
ENDROOT
BRANCH   1   2
ATOM      2  C   UNL     1       2.387   4.773  19.690  0.00  0.00    +0.000 A 
ATOM      3  C   UNL     1       2.524   4.380  21.035  0.00  0.00    +0.000 A 
ATOM      4  C   UNL     1       1.819   3.284  21.556  0.00  0.00    +0.000 A 
ATOM      5  C   UNL     1       0.959   2.552  20.743  0.00  0.00    +0.000 A 
ATOM      6  C   UNL     1       0.824   2.898  19.403  0.00  0.00    +0.000 A 
ATOM      7  C   UNL     1       1.543   3.980  18.882  0.00  0.00    +0.000 A 
ENDBRANCH   1   2
BRANCH   1   8
ATOM      8  C   UNL     1       2.354   7.244  19.133  0.00  0.00    +0.000 A 
ATOM      9  C   UNL     1       1.748   7.763  20.289  0.00  0.00    +0.000 A 
ATOM     10  C   UNL     1       1.104   9.004  20.317  0.00  0.00    +0.000 A 
ATOM     11  C   UNL     1       1.065   9.787  19.175  0.00  0.00    +0.000 A 
ATOM     12  C   UNL     1       1.653   9.312  18.005  0.00  0.00    +0.000 A 
ATOM     13  C   UNL     1       2.274   8.056  17.984  0.00  0.00    +0.000 A 
ENDBRANCH   1   8
BRANCH   1  14
ATOM     14  S   UNL     1       4.727   5.999  19.097  0.00  0.00    +0.000 S 
BRANCH  14  18
ATOM     15  C   UNL     1       6.184   4.870  14.877  0.00  0.00    +0.000 A 
ATOM     16  C   UNL     1       5.587   6.108  15.100  0.00  0.00    +0.000 A 
ATOM     17  C   UNL     1       5.117   6.420  16.379  0.00  0.00    +0.000 A 
ATOM     18  C   UNL     1       5.162   5.492  17.431  0.00  0.00    +0.000 A 
ATOM     19  C   UNL     1       5.757   4.246  17.185  0.00  0.00    +0.000 A 
ATOM     20  C   UNL     1       6.279   3.936  15.915  0.00  0.00    +0.000 A 
BRANCH  15  22
ATOM     21  O   UNL     1       6.348   3.587  12.947  0.00  0.00    +0.000 OA
ATOM     22  N   UNL     1       6.763   4.580  13.556  0.00  0.00    +0.000 N 
ATOM     23  O   UNL     1       7.625   5.360  13.124  0.00  0.00    +0.000 OA
ENDBRANCH  15  22
ENDBRANCH  14  18
ENDBRANCH   1  14
TORSDOF 5
ENDMDL
MODEL 9
REMARK VINA RESULT:      -7.9      4.455      6.750
REMARK  Name = 
REMARK  5 active torsions:
REMARK  status: ('A' for Active; 'I' for Inactive)
REMARK    1  A    between atoms: N_2  and  C_4
REMARK    2  A    between atoms: C_7  and  S_8
REMARK    3  A    between atoms: S_8  and  N_9
REMARK    4  A    between atoms: N_9  and  C_10
REMARK    5  A    between atoms: N_9  and  C_16
REMARK                            x       y       z     vdW  Elec       q    Type
REMARK                         _______ _______ _______ _____ _____    ______ ____
ROOT
ATOM      1  N   UNL     1       3.287   5.992  18.421  0.00  0.00    +0.000 N 
ENDROOT
BRANCH   1   2
ATOM      2  C   UNL     1       2.587   4.725  18.495  0.00  0.00    +0.000 A 
ATOM      3  C   UNL     1       2.795   3.664  17.593  0.00  0.00    +0.000 A 
ATOM      4  C   UNL     1       2.163   2.422  17.761  0.00  0.00    +0.000 A 
ATOM      5  C   UNL     1       1.305   2.210  18.836  0.00  0.00    +0.000 A 
ATOM      6  C   UNL     1       1.057   3.247  19.728  0.00  0.00    +0.000 A 
ATOM      7  C   UNL     1       1.675   4.491  19.547  0.00  0.00    +0.000 A 
ENDBRANCH   1   2
BRANCH   1   8
ATOM      8  C   UNL     1       4.737   6.057  18.356  0.00  0.00    +0.000 A 
ATOM      9  C   UNL     1       5.404   6.784  17.356  0.00  0.00    +0.000 A 
ATOM     10  C   UNL     1       6.798   6.860  17.274  0.00  0.00    +0.000 A 
ATOM     11  C   UNL     1       7.580   6.218  18.219  0.00  0.00    +0.000 A 
ATOM     12  C   UNL     1       6.963   5.486  19.229  0.00  0.00    +0.000 A 
ATOM     13  C   UNL     1       5.564   5.397  19.286  0.00  0.00    +0.000 A 
ENDBRANCH   1   8
BRANCH   1  14
ATOM     14  S   UNL     1       2.457   7.319  17.731  0.00  0.00    +0.000 S 
BRANCH  14  18
ATOM     15  C   UNL     1       0.614   9.632  21.262  0.00  0.00    +0.000 A 
ATOM     16  C   UNL     1       0.643  10.205  19.992  0.00  0.00    +0.000 A 
ATOM     17  C   UNL     1       1.239   9.504  18.940  0.00  0.00    +0.000 A 
ATOM     18  C   UNL     1       1.877   8.270  19.140  0.00  0.00    +0.000 A 
ATOM     19  C   UNL     1       1.848   7.714  20.426  0.00  0.00    +0.000 A 
ATOM     20  C   UNL     1       1.209   8.384  21.485  0.00  0.00    +0.000 A 
BRANCH  15  22
ATOM     21  O   UNL     1       0.149   9.988  23.510  0.00  0.00    +0.000 OA
ATOM     22  N   UNL     1      -0.095  10.327  22.346  0.00  0.00    +0.000 N 
ATOM     23  O   UNL     1      -0.890  11.225  22.028  0.00  0.00    +0.000 OA
ENDBRANCH  15  22
ENDBRANCH  14  18
ENDBRANCH   1  14
TORSDOF 5
ENDMDL
