MODEL 1
REMARK VINA RESULT:      -7.6      0.000      0.000
REMARK  Name = 
REMARK  6 active torsions:
REMARK  status: ('A' for Active; 'I' for Inactive)
REMARK    1  A    between atoms: C_2  and  O_3
REMARK    2  A    between atoms: C_2  and  C_17
REMARK    3  A    between atoms: O_3  and  C_4
REMARK    4  A    between atoms: C_4  and  N_5
REMARK    5  A    between atoms: C_9  and  S_10
REMARK    6  A    between atoms: S_10  and  C_11
REMARK                            x       y       z     vdW  Elec       q    Type
REMARK                         _______ _______ _______ _____ _____    ______ ____
ROOT
ATOM      1  N   UNL     1       5.976   4.791  17.562  0.00  0.00    +0.000 N 
ATOM      2  C   UNL     1       7.309   4.904  17.392  0.00  0.00    +0.000 C 
ATOM      3  O   UNL     1       8.194   4.085  17.354  0.00  0.00    +0.000 OA
ATOM      4  C   UNL     1       7.187   6.438  17.299  0.00  0.00    +0.000 C 
ATOM      5  C   UNL     1       5.745   6.205  17.814  0.00  0.00    +0.000 C 
ENDROOT
BRANCH   1   6
ATOM      6  C   UNL     1       5.225   3.659  18.000  0.00  0.00    +0.000 C 
BRANCH   6   7
ATOM      7  O   UNL     1       5.368   3.521  19.412  0.00  0.00    +0.000 OA
BRANCH   7   9
ATOM      8  O   UNL     1       5.197   1.472  20.441  0.00  0.00    +0.000 OA
ATOM      9  C   UNL     1       4.700   2.479  19.965  0.00  0.00    +0.000 C 
BRANCH   9  10
ATOM     10  C   UNL     1       3.232   2.709  19.903  0.00  0.00    +0.000 A 
ATOM     11  C   UNL     1       2.523   2.177  18.815  0.00  0.00    +0.000 A 
ATOM     12  C   UNL     1       1.143   2.362  18.712  0.00  0.00    +0.000 A 
ATOM     13  C   UNL     1       0.462   3.078  19.696  0.00  0.00    +0.000 A 
ATOM     14  C   UNL     1       1.157   3.606  20.784  0.00  0.00    +0.000 A 
ATOM     15  C   UNL     1       2.538   3.424  20.890  0.00  0.00    +0.000 A 
ENDBRANCH   9  10
ENDBRANCH   7   9
ENDBRANCH   6   7
ENDBRANCH   1   6
BRANCH   5  16
ATOM     16  S   UNL     1       4.422   6.791  16.710  0.00  0.00    +0.000 S 
BRANCH  16  17
ATOM     17  C   UNL     1       3.270   7.381  17.927  0.00  0.00    +0.000 A 
ATOM     18  C   UNL     1       3.063   6.609  19.073  0.00  0.00    +0.000 A 
ATOM     19  C   UNL     1       2.136   7.009  20.035  0.00  0.00    +0.000 A 
ATOM     20  C   UNL     1       1.421   8.192  19.857  0.00  0.00    +0.000 A 
ATOM     21  C   UNL     1       1.643   8.982  18.731  0.00  0.00    +0.000 A 
ATOM     22  C   UNL     1       2.572   8.583  17.770  0.00  0.00    +0.000 A 
ENDBRANCH  16  17
ENDBRANCH   5  16
TORSDOF 6
ENDMDL
MODEL 2
REMARK VINA RESULT:      -7.6      0.524      1.535
REMARK  Name = 
REMARK  6 active torsions:
REMARK  status: ('A' for Active; 'I' for Inactive)
REMARK    1  A    between atoms: C_2  and  O_3
REMARK    2  A    between atoms: C_2  and  C_17
REMARK    3  A    between atoms: O_3  and  C_4
REMARK    4  A    between atoms: C_4  and  N_5
REMARK    5  A    between atoms: C_9  and  S_10
REMARK    6  A    between atoms: S_10  and  C_11
REMARK                            x       y       z     vdW  Elec       q    Type
REMARK                         _______ _______ _______ _____ _____    ______ ____
ROOT
ATOM      1  N   UNL     1       6.220   5.043  18.209  0.00  0.00    +0.000 N 
ATOM      2  C   UNL     1       7.474   4.955  17.721  0.00  0.00    +0.000 C 
ATOM      3  O   UNL     1       8.385   4.200  17.959  0.00  0.00    +0.000 OA
ATOM      4  C   UNL     1       7.227   6.174  16.811  0.00  0.00    +0.000 C 
ATOM      5  C   UNL     1       5.949   6.365  17.665  0.00  0.00    +0.000 C 
ENDROOT
BRANCH   1   6
ATOM      6  C   UNL     1       5.662   4.405  19.357  0.00  0.00    +0.000 C 
BRANCH   6   7
ATOM      7  O   UNL     1       5.328   3.058  19.026  0.00  0.00    +0.000 OA
BRANCH   7   9
ATOM      8  O   UNL     1       5.181   1.622  20.815  0.00  0.00    +0.000 OA
ATOM      9  C   UNL     1       4.675   2.367  19.993  0.00  0.00    +0.000 C 
BRANCH   9  10
ATOM     10  C   UNL     1       3.211   2.620  19.917  0.00  0.00    +0.000 A 
ATOM     11  C   UNL     1       2.559   3.082  21.070  0.00  0.00    +0.000 A 
ATOM     12  C   UNL     1       1.186   3.337  21.051  0.00  0.00    +0.000 A 
ATOM     13  C   UNL     1       0.458   3.135  19.879  0.00  0.00    +0.000 A 
ATOM     14  C   UNL     1       1.099   2.681  18.727  0.00  0.00    +0.000 A 
ATOM     15  C   UNL     1       2.472   2.423  18.742  0.00  0.00    +0.000 A 
ENDBRANCH   9  10
ENDBRANCH   7   9
ENDBRANCH   6   7
ENDBRANCH   1   6
BRANCH   5  16
ATOM     16  S   UNL     1       4.382   6.313  16.742  0.00  0.00    +0.000 S 
BRANCH  16  17
ATOM     17  C   UNL     1       3.292   6.959  17.986  0.00  0.00    +0.000 A 
ATOM     18  C   UNL     1       2.718   8.216  17.776  0.00  0.00    +0.000 A 
ATOM     19  C   UNL     1       1.890   8.783  18.745  0.00  0.00    +0.000 A 
ATOM     20  C   UNL     1       1.626   8.088  19.924  0.00  0.00    +0.000 A 
ATOM     21  C   UNL     1       2.173   6.823  20.127  0.00  0.00    +0.000 A 
ATOM     22  C   UNL     1       2.999   6.254  19.157  0.00  0.00    +0.000 A 
ENDBRANCH  16  17
ENDBRANCH   5  16
TORSDOF 6
ENDMDL
MODEL 3
REMARK VINA RESULT:      -7.6      1.196      1.666
REMARK  Name = 
REMARK  6 active torsions:
REMARK  status: ('A' for Active; 'I' for Inactive)
REMARK    1  A    between atoms: C_2  and  O_3
REMARK    2  A    between atoms: C_2  and  C_17
REMARK    3  A    between atoms: O_3  and  C_4
REMARK    4  A    between atoms: C_4  and  N_5
REMARK    5  A    between atoms: C_9  and  S_10
REMARK    6  A    between atoms: S_10  and  C_11
REMARK                            x       y       z     vdW  Elec       q    Type
REMARK                         _______ _______ _______ _____ _____    ______ ____
ROOT
ATOM      1  N   UNL     1       5.869   4.774  16.954  0.00  0.00    +0.000 N 
ATOM      2  C   UNL     1       7.175   4.891  17.272  0.00  0.00    +0.000 C 
ATOM      3  O   UNL     1       8.122   4.167  17.086  0.00  0.00    +0.000 OA
ATOM      4  C   UNL     1       6.909   6.252  17.944  0.00  0.00    +0.000 C 
ATOM      5  C   UNL     1       5.417   5.859  17.810  0.00  0.00    +0.000 C 
ENDROOT
BRANCH   1   6
ATOM      6  C   UNL     1       5.160   3.620  16.504  0.00  0.00    +0.000 C 
BRANCH   6   7
ATOM      7  O   UNL     1       4.491   3.022  17.614  0.00  0.00    +0.000 OA
BRANCH   7   9
ATOM      8  O   UNL     1       2.433   3.263  16.617  0.00  0.00    +0.000 OA
ATOM      9  C   UNL     1       3.139   3.127  17.602  0.00  0.00    +0.000 C 
BRANCH   9  10
ATOM     10  C   UNL     1       2.600   3.075  18.987  0.00  0.00    +0.000 A 
ATOM     11  C   UNL     1       1.242   3.373  19.181  0.00  0.00    +0.000 A 
ATOM     12  C   UNL     1       0.687   3.336  20.462  0.00  0.00    +0.000 A 
ATOM     13  C   UNL     1       1.483   2.998  21.556  0.00  0.00    +0.000 A 
ATOM     14  C   UNL     1       2.832   2.695  21.372  0.00  0.00    +0.000 A 
ATOM     15  C   UNL     1       3.392   2.733  20.092  0.00  0.00    +0.000 A 
ENDBRANCH   9  10
ENDBRANCH   7   9
ENDBRANCH   6   7
ENDBRANCH   1   6
BRANCH   5  16
ATOM     16  S   UNL     1       4.398   7.002  16.827  0.00  0.00    +0.000 S 
BRANCH  16  17
ATOM     17  C   UNL     1       3.218   7.476  18.066  0.00  0.00    +0.000 A 
ATOM     18  C   UNL     1       3.068   6.657  19.187  0.00  0.00    +0.000 A 
ATOM     19  C   UNL     1       2.122   6.966  20.164  0.00  0.00    +0.000 A 
ATOM     20  C   UNL     1       1.329   8.104  20.027  0.00  0.00    +0.000 A 
ATOM     21  C   UNL     1       1.493   8.941  18.925  0.00  0.00    +0.000 A 
ATOM     22  C   UNL     1       2.441   8.634  17.948  0.00  0.00    +0.000 A 
ENDBRANCH  16  17
ENDBRANCH   5  16
TORSDOF 6
ENDMDL
MODEL 4
REMARK VINA RESULT:      -7.6      1.177      1.712
REMARK  Name = 
REMARK  6 active torsions:
REMARK  status: ('A' for Active; 'I' for Inactive)
REMARK    1  A    between atoms: C_2  and  O_3
REMARK    2  A    between atoms: C_2  and  C_17
REMARK    3  A    between atoms: O_3  and  C_4
REMARK    4  A    between atoms: C_4  and  N_5
REMARK    5  A    between atoms: C_9  and  S_10
REMARK    6  A    between atoms: S_10  and  C_11
REMARK                            x       y       z     vdW  Elec       q    Type
REMARK                         _______ _______ _______ _____ _____    ______ ____
ROOT
ATOM      1  N   UNL     1       5.864   4.837  16.913  0.00  0.00    +0.000 N 
ATOM      2  C   UNL     1       7.187   4.959  17.142  0.00  0.00    +0.000 C 
ATOM      3  O   UNL     1       8.116   4.217  16.938  0.00  0.00    +0.000 OA
ATOM      4  C   UNL     1       6.973   6.357  17.753  0.00  0.00    +0.000 C 
ATOM      5  C   UNL     1       5.473   5.973  17.734  0.00  0.00    +0.000 C 
ENDROOT
BRANCH   1   6
ATOM      6  C   UNL     1       5.121   3.667  16.574  0.00  0.00    +0.000 C 
BRANCH   6   7
ATOM      7  O   UNL     1       4.458   3.180  17.740  0.00  0.00    +0.000 OA
BRANCH   7   9
ATOM      8  O   UNL     1       2.430   3.217  16.657  0.00  0.00    +0.000 OA
ATOM      9  C   UNL     1       3.104   3.157  17.671  0.00  0.00    +0.000 C 
BRANCH   9  10
ATOM     10  C   UNL     1       2.514   3.067  19.034  0.00  0.00    +0.000 A 
ATOM     11  C   UNL     1       3.359   2.718  20.099  0.00  0.00    +0.000 A 
ATOM     12  C   UNL     1       2.854   2.622  21.398  0.00  0.00    +0.000 A 
ATOM     13  C   UNL     1       1.505   2.876  21.640  0.00  0.00    +0.000 A 
ATOM     14  C   UNL     1       0.659   3.228  20.588  0.00  0.00    +0.000 A 
ATOM     15  C   UNL     1       1.159   3.324  19.287  0.00  0.00    +0.000 A 
ENDBRANCH   9  10
ENDBRANCH   7   9
ENDBRANCH   6   7
ENDBRANCH   1   6
BRANCH   5  16
ATOM     16  S   UNL     1       4.401   7.069  16.754  0.00  0.00    +0.000 S 
BRANCH  16  17
ATOM     17  C   UNL     1       3.227   7.521  18.007  0.00  0.00    +0.000 A 
ATOM     18  C   UNL     1       3.036   6.650  19.082  0.00  0.00    +0.000 A 
ATOM     19  C   UNL     1       2.092   6.942  20.067  0.00  0.00    +0.000 A 
ATOM     20  C   UNL     1       1.344   8.115  19.984  0.00  0.00    +0.000 A 
ATOM     21  C   UNL     1       1.550   9.002  18.929  0.00  0.00    +0.000 A 
ATOM     22  C   UNL     1       2.496   8.712  17.945  0.00  0.00    +0.000 A 
ENDBRANCH  16  17
ENDBRANCH   5  16
TORSDOF 6
ENDMDL
MODEL 5
REMARK VINA RESULT:      -7.5      1.205      2.011
REMARK  Name = 
REMARK  6 active torsions:
REMARK  status: ('A' for Active; 'I' for Inactive)
REMARK    1  A    between atoms: C_2  and  O_3
REMARK    2  A    between atoms: C_2  and  C_17
REMARK    3  A    between atoms: O_3  and  C_4
REMARK    4  A    between atoms: C_4  and  N_5
REMARK    5  A    between atoms: C_9  and  S_10
REMARK    6  A    between atoms: S_10  and  C_11
REMARK                            x       y       z     vdW  Elec       q    Type
REMARK                         _______ _______ _______ _____ _____    ______ ____
ROOT
ATOM      1  N   UNL     1       5.784   4.910  16.811  0.00  0.00    +0.000 N 
ATOM      2  C   UNL     1       7.113   5.058  16.992  0.00  0.00    +0.000 C 
ATOM      3  O   UNL     1       8.049   4.336  16.750  0.00  0.00    +0.000 OA
ATOM      4  C   UNL     1       6.892   6.450  17.616  0.00  0.00    +0.000 C 
ATOM      5  C   UNL     1       5.401   6.033  17.652  0.00  0.00    +0.000 C 
ENDROOT
BRANCH   1   6
ATOM      6  C   UNL     1       5.054   3.725  16.494  0.00  0.00    +0.000 C 
BRANCH   6   7
ATOM      7  O   UNL     1       4.433   3.229  17.679  0.00  0.00    +0.000 OA
BRANCH   7   9
ATOM      8  O   UNL     1       2.390   3.122  16.629  0.00  0.00    +0.000 OA
ATOM      9  C   UNL     1       3.081   3.144  17.634  0.00  0.00    +0.000 C 
BRANCH   9  10
ATOM     10  C   UNL     1       2.515   3.098  19.009  0.00  0.00    +0.000 A 
ATOM     11  C   UNL     1       3.357   2.700  20.058  0.00  0.00    +0.000 A 
ATOM     12  C   UNL     1       2.875   2.643  21.368  0.00  0.00    +0.000 A 
ATOM     13  C   UNL     1       1.550   2.986  21.637  0.00  0.00    +0.000 A 
ATOM     14  C   UNL     1       0.708   3.387  20.601  0.00  0.00    +0.000 A 
ATOM     15  C   UNL     1       1.185   3.444  19.289  0.00  0.00    +0.000 A 
ENDBRANCH   9  10
ENDBRANCH   7   9
ENDBRANCH   6   7
ENDBRANCH   1   6
BRANCH   5  16
ATOM     16  S   UNL     1       4.271   7.111  16.716  0.00  0.00    +0.000 S 
BRANCH  16  17
ATOM     17  C   UNL     1       3.126   7.522  18.010  0.00  0.00    +0.000 A 
ATOM     18  C   UNL     1       2.403   8.712  17.903  0.00  0.00    +0.000 A 
ATOM     19  C   UNL     1       1.526   9.098  18.916  0.00  0.00    +0.000 A 
ATOM     20  C   UNL     1       1.361   8.286  20.036  0.00  0.00    +0.000 A 
ATOM     21  C   UNL     1       2.058   7.083  20.137  0.00  0.00    +0.000 A 
ATOM     22  C   UNL     1       2.933   6.696  19.123  0.00  0.00    +0.000 A 
ENDBRANCH  16  17
ENDBRANCH   5  16
TORSDOF 6
ENDMDL
MODEL 6
REMARK VINA RESULT:      -7.5      0.556      1.164
REMARK  Name = 
REMARK  6 active torsions:
REMARK  status: ('A' for Active; 'I' for Inactive)
REMARK    1  A    between atoms: C_2  and  O_3
REMARK    2  A    between atoms: C_2  and  C_17
REMARK    3  A    between atoms: O_3  and  C_4
REMARK    4  A    between atoms: C_4  and  N_5
REMARK    5  A    between atoms: C_9  and  S_10
REMARK    6  A    between atoms: S_10  and  C_11
REMARK                            x       y       z     vdW  Elec       q    Type
REMARK                         _______ _______ _______ _____ _____    ______ ____
ROOT
ATOM      1  N   UNL     1       6.094   5.171  18.411  0.00  0.00    +0.000 N 
ATOM      2  C   UNL     1       7.369   5.109  17.975  0.00  0.00    +0.000 C 
ATOM      3  O   UNL     1       8.285   4.374  18.251  0.00  0.00    +0.000 OA
ATOM      4  C   UNL     1       7.133   6.324  17.056  0.00  0.00    +0.000 C 
ATOM      5  C   UNL     1       5.818   6.487  17.857  0.00  0.00    +0.000 C 
ENDROOT
BRANCH   1   6
ATOM      6  C   UNL     1       5.504   4.520  19.536  0.00  0.00    +0.000 C 
BRANCH   6   7
ATOM      7  O   UNL     1       5.383   3.126  19.258  0.00  0.00    +0.000 OA
BRANCH   7   9
ATOM      8  O   UNL     1       5.127   1.641  20.994  0.00  0.00    +0.000 OA
ATOM      9  C   UNL     1       4.673   2.412  20.166  0.00  0.00    +0.000 C 
BRANCH   9  10
ATOM     10  C   UNL     1       3.217   2.676  20.015  0.00  0.00    +0.000 A 
ATOM     11  C   UNL     1       2.593   2.284  18.821  0.00  0.00    +0.000 A 
ATOM     12  C   UNL     1       1.228   2.507  18.631  0.00  0.00    +0.000 A 
ATOM     13  C   UNL     1       0.477   3.120  19.633  0.00  0.00    +0.000 A 
ATOM     14  C   UNL     1       1.088   3.508  20.826  0.00  0.00    +0.000 A 
ATOM     15  C   UNL     1       2.454   3.288  21.019  0.00  0.00    +0.000 A 
ENDBRANCH   9  10
ENDBRANCH   7   9
ENDBRANCH   6   7
ENDBRANCH   1   6
BRANCH   5  16
ATOM     16  S   UNL     1       4.291   6.402  16.870  0.00  0.00    +0.000 S 
BRANCH  16  17
ATOM     17  C   UNL     1       3.166   7.165  18.013  0.00  0.00    +0.000 A 
ATOM     18  C   UNL     1       2.610   8.400  17.672  0.00  0.00    +0.000 A 
ATOM     19  C   UNL     1       1.756   9.057  18.558  0.00  0.00    +0.000 A 
ATOM     20  C   UNL     1       1.447   8.473  19.784  0.00  0.00    +0.000 A 
ATOM     21  C   UNL     1       1.975   7.228  20.119  0.00  0.00    +0.000 A 
ATOM     22  C   UNL     1       2.827   6.569  19.233  0.00  0.00    +0.000 A 
ENDBRANCH  16  17
ENDBRANCH   5  16
TORSDOF 6
ENDMDL
MODEL 7
REMARK VINA RESULT:      -7.5      1.082      1.692
REMARK  Name = 
REMARK  6 active torsions:
REMARK  status: ('A' for Active; 'I' for Inactive)
REMARK    1  A    between atoms: C_2  and  O_3
REMARK    2  A    between atoms: C_2  and  C_17
REMARK    3  A    between atoms: O_3  and  C_4
REMARK    4  A    between atoms: C_4  and  N_5
REMARK    5  A    between atoms: C_9  and  S_10
REMARK    6  A    between atoms: S_10  and  C_11
REMARK                            x       y       z     vdW  Elec       q    Type
REMARK                         _______ _______ _______ _____ _____    ______ ____
ROOT
ATOM      1  N   UNL     1       5.890   4.829  16.889  0.00  0.00    +0.000 N 
ATOM      2  C   UNL     1       7.219   4.952  17.083  0.00  0.00    +0.000 C 
ATOM      3  O   UNL     1       8.146   4.223  16.828  0.00  0.00    +0.000 OA
ATOM      4  C   UNL     1       7.014   6.328  17.747  0.00  0.00    +0.000 C 
ATOM      5  C   UNL     1       5.517   5.933  17.759  0.00  0.00    +0.000 C 
ENDROOT
BRANCH   1   6
ATOM      6  C   UNL     1       5.144   3.665  16.532  0.00  0.00    +0.000 C 
BRANCH   6   7
ATOM      7  O   UNL     1       3.922   3.651  17.268  0.00  0.00    +0.000 OA
BRANCH   7   9
ATOM      8  O   UNL     1       3.961   1.366  17.523  0.00  0.00    +0.000 OA
ATOM      9  C   UNL     1       3.633   2.482  17.891  0.00  0.00    +0.000 C 
BRANCH   9  10
ATOM     10  C   UNL     1       2.823   2.728  19.114  0.00  0.00    +0.000 A 
ATOM     11  C   UNL     1       1.474   3.080  18.954  0.00  0.00    +0.000 A 
ATOM     12  C   UNL     1       0.669   3.320  20.070  0.00  0.00    +0.000 A 
ATOM     13  C   UNL     1       1.206   3.206  21.352  0.00  0.00    +0.000 A 
ATOM     14  C   UNL     1       2.545   2.851  21.520  0.00  0.00    +0.000 A 
ATOM     15  C   UNL     1       3.354   2.612  20.406  0.00  0.00    +0.000 A 
ENDBRANCH   9  10
ENDBRANCH   7   9
ENDBRANCH   6   7
ENDBRANCH   1   6
BRANCH   5  16
ATOM     16  S   UNL     1       4.411   7.054  16.847  0.00  0.00    +0.000 S 
BRANCH  16  17
ATOM     17  C   UNL     1       3.222   7.388  18.123  0.00  0.00    +0.000 A 
ATOM     18  C   UNL     1       2.498   8.582  18.059  0.00  0.00    +0.000 A 
ATOM     19  C   UNL     1       1.586   8.908  19.063  0.00  0.00    +0.000 A 
ATOM     20  C   UNL     1       1.387   8.033  20.129  0.00  0.00    +0.000 A 
ATOM     21  C   UNL     1       2.084   6.827  20.183  0.00  0.00    +0.000 A 
ATOM     22  C   UNL     1       2.994   6.500  19.179  0.00  0.00    +0.000 A 
ENDBRANCH  16  17
ENDBRANCH   5  16
TORSDOF 6
ENDMDL
MODEL 8
REMARK VINA RESULT:      -7.4      3.046      5.103
REMARK  Name = 
REMARK  6 active torsions:
REMARK  status: ('A' for Active; 'I' for Inactive)
REMARK    1  A    between atoms: C_2  and  O_3
REMARK    2  A    between atoms: C_2  and  C_17
REMARK    3  A    between atoms: O_3  and  C_4
REMARK    4  A    between atoms: C_4  and  N_5
REMARK    5  A    between atoms: C_9  and  S_10
REMARK    6  A    between atoms: S_10  and  C_11
REMARK                            x       y       z     vdW  Elec       q    Type
REMARK                         _______ _______ _______ _____ _____    ______ ____
ROOT
ATOM      1  N   UNL     1       5.871   5.713  17.880  0.00  0.00    +0.000 N 
ATOM      2  C   UNL     1       6.826   5.354  18.762  0.00  0.00    +0.000 C 
ATOM      3  O   UNL     1       7.024   5.662  19.912  0.00  0.00    +0.000 OA
ATOM      4  C   UNL     1       7.500   4.464  17.700  0.00  0.00    +0.000 C 
ATOM      5  C   UNL     1       6.555   5.187  16.709  0.00  0.00    +0.000 C 
ENDROOT
BRANCH   1   6
ATOM      6  C   UNL     1       4.924   6.777  17.973  0.00  0.00    +0.000 C 
BRANCH   6   7
ATOM      7  O   UNL     1       3.613   6.254  17.763  0.00  0.00    +0.000 OA
BRANCH   7   9
ATOM      8  O   UNL     1       2.542   7.406  19.439  0.00  0.00    +0.000 OA
ATOM      9  C   UNL     1       2.760   6.386  18.808  0.00  0.00    +0.000 C 
BRANCH   9  10
ATOM     10  C   UNL     1       2.111   5.084  19.119  0.00  0.00    +0.000 A 
ATOM     11  C   UNL     1       1.959   4.154  18.079  0.00  0.00    +0.000 A 
ATOM     12  C   UNL     1       1.359   2.917  18.320  0.00  0.00    +0.000 A 
ATOM     13  C   UNL     1       0.908   2.600  19.601  0.00  0.00    +0.000 A 
ATOM     14  C   UNL     1       1.060   3.516  20.642  0.00  0.00    +0.000 A 
ATOM     15  C   UNL     1       1.659   4.756  20.405  0.00  0.00    +0.000 A 
ENDBRANCH   9  10
ENDBRANCH   7   9
ENDBRANCH   6   7
ENDBRANCH   1   6
BRANCH   5  16
ATOM     16  S   UNL     1       5.412   4.105  15.795  0.00  0.00    +0.000 S 
BRANCH  16  17
ATOM     17  C   UNL     1       6.164   4.182  14.188  0.00  0.00    +0.000 A 
ATOM     18  C   UNL     1       7.250   5.042  14.004  0.00  0.00    +0.000 A 
ATOM     19  C   UNL     1       7.845   5.169  12.749  0.00  0.00    +0.000 A 
ATOM     20  C   UNL     1       7.360   4.426  11.675  0.00  0.00    +0.000 A 
ATOM     21  C   UNL     1       6.295   3.546  11.857  0.00  0.00    +0.000 A 
ATOM     22  C   UNL     1       5.702   3.416  13.113  0.00  0.00    +0.000 A 
ENDBRANCH  16  17
ENDBRANCH   5  16
TORSDOF 6
ENDMDL
MODEL 9
REMARK VINA RESULT:      -7.4      2.968      4.980
REMARK  Name = 
REMARK  6 active torsions:
REMARK  status: ('A' for Active; 'I' for Inactive)
REMARK    1  A    between atoms: C_2  and  O_3
REMARK    2  A    between atoms: C_2  and  C_17
REMARK    3  A    between atoms: O_3  and  C_4
REMARK    4  A    between atoms: C_4  and  N_5
REMARK    5  A    between atoms: C_9  and  S_10
REMARK    6  A    between atoms: S_10  and  C_11
REMARK                            x       y       z     vdW  Elec       q    Type
REMARK                         _______ _______ _______ _____ _____    ______ ____
ROOT
ATOM      1  N   UNL     1       6.008   5.550  18.146  0.00  0.00    +0.000 N 
ATOM      2  C   UNL     1       7.095   5.260  18.889  0.00  0.00    +0.000 C 
ATOM      3  O   UNL     1       7.381   5.504  20.035  0.00  0.00    +0.000 OA
ATOM      4  C   UNL     1       7.752   4.551  17.688  0.00  0.00    +0.000 C 
ATOM      5  C   UNL     1       6.616   5.211  16.868  0.00  0.00    +0.000 C 
ENDROOT
BRANCH   1   6
ATOM      6  C   UNL     1       4.950   6.464  18.431  0.00  0.00    +0.000 C 
BRANCH   6   7
ATOM      7  O   UNL     1       4.161   5.946  19.500  0.00  0.00    +0.000 OA
BRANCH   7   9
ATOM      8  O   UNL     1       2.243   7.206  19.356  0.00  0.00    +0.000 OA
ATOM      9  C   UNL     1       2.823   6.134  19.379  0.00  0.00    +0.000 C 
BRANCH   9  10
ATOM     10  C   UNL     1       2.118   4.827  19.293  0.00  0.00    +0.000 A 
ATOM     11  C   UNL     1       2.255   4.077  18.114  0.00  0.00    +0.000 A 
ATOM     12  C   UNL     1       1.615   2.843  17.984  0.00  0.00    +0.000 A 
ATOM     13  C   UNL     1       0.838   2.349  19.031  0.00  0.00    +0.000 A 
ATOM     14  C   UNL     1       0.700   3.085  20.208  0.00  0.00    +0.000 A 
ATOM     15  C   UNL     1       1.337   4.321  20.342  0.00  0.00    +0.000 A 
ENDBRANCH   9  10
ENDBRANCH   7   9
ENDBRANCH   6   7
ENDBRANCH   1   6
BRANCH   5  16
ATOM     16  S   UNL     1       5.523   4.055  15.984  0.00  0.00    +0.000 S 
BRANCH  16  17
ATOM     17  C   UNL     1       6.208   4.201  14.352  0.00  0.00    +0.000 A 
ATOM     18  C   UNL     1       5.677   3.402  13.336  0.00  0.00    +0.000 A 
ATOM     19  C   UNL     1       6.213   3.450  12.049  0.00  0.00    +0.000 A 
ATOM     20  C   UNL     1       7.275   4.308  11.772  0.00  0.00    +0.000 A 
ATOM     21  C   UNL     1       7.790   5.128  12.774  0.00  0.00    +0.000 A 
ATOM     22  C   UNL     1       7.254   5.083  14.061  0.00  0.00    +0.000 A 
ENDBRANCH  16  17
ENDBRANCH   5  16
TORSDOF 6
ENDMDL
