MODEL 1
REMARK VINA RESULT:      -8.2      0.000      0.000
REMARK  Name = 
REMARK  11 active torsions:
REMARK  status: ('A' for Active; 'I' for Inactive)
REMARK    1  A    between atoms: C_1  and  C_2
REMARK    2  A    between atoms: C_2  and  C_3
REMARK    3  A    between atoms: C_4  and  C_5
REMARK    4  A    between atoms: C_12  and  C_13
REMARK    5  A    between atoms: C_13  and  N_14
REMARK    6  A    between atoms: N_14  and  C_15
REMARK    7  A    between atoms: N_14  and  C_16
REMARK    8  A    between atoms: N_17  and  C_18
REMARK    9  A    between atoms: C_22  and  C_23
REMARK   10  A    between atoms: C_23  and  O_25
REMARK   11  A    between atoms: C_26  and  O_27
REMARK                            x       y       z     vdW  Elec       q    Type
REMARK                         _______ _______ _______ _____ _____    ______ ____
ROOT
ATOM      1  C   UNL     1       4.194   5.370  18.850  0.00  0.00    +0.000 A 
ATOM      2  C   UNL     1       2.946   5.611  19.308  0.00  0.00    +0.000 A 
ATOM      3  N   UNL     1       2.200   4.603  19.869  0.00  0.00    +0.000 N 
ATOM      4  C   UNL     1       2.616   3.311  19.978  0.00  0.00    +0.000 A 
ATOM      5  O   UNL     1       1.907   2.427  20.448  0.00  0.00    +0.000 OA
ATOM      6  C   UNL     1       3.988   2.997  19.503  0.00  0.00    +0.000 A 
ATOM      7  C   UNL     1       4.727   4.011  18.989  0.00  0.00    +0.000 A 
ATOM      8  H   UNL     1       1.274   4.812  20.220  0.00  0.00    +0.000 HD
ENDROOT
BRANCH   2   9
ATOM      9  C   UNL     1       2.305   6.931  19.311  0.00  0.00    +0.000 A 
ATOM     10  C   UNL     1       2.235   7.656  18.118  0.00  0.00    +0.000 A 
ATOM     11  C   UNL     1       1.739   8.959  18.092  0.00  0.00    +0.000 A 
ATOM     12  C   UNL     1       1.302   9.517  19.303  0.00  0.00    +0.000 A 
ATOM     13  C   UNL     1       1.303   8.795  20.495  0.00  0.00    +0.000 A 
ATOM     14  C   UNL     1       1.823   7.486  20.507  0.00  0.00    +0.000 A 
ATOM     15  C   UNL     1       0.723   9.631  21.482  0.00  0.00    +0.000 A 
ATOM     16  C   UNL     1       0.399  10.844  20.902  0.00  0.00    +0.000 A 
ATOM     17  N   UNL     1       0.847  10.791  19.599  0.00  0.00    +0.000 N 
ATOM     18  C   UNL     1       0.914  11.884  18.653  0.00  0.00    +0.000 C 
BRANCH  16  19
ATOM     19  C   UNL     1      -0.272  12.023  21.547  0.00  0.00    +0.000 C 
BRANCH  19  20
ATOM     20  N   UNL     1      -1.728  11.869  21.688  0.00  0.00    +0.000 NA
ATOM     21  C   UNL     1      -2.181  12.060  23.072  0.00  0.00    +0.000 C 
ATOM     22  C   UNL     1      -2.405  12.857  20.837  0.00  0.00    +0.000 C 
ENDBRANCH  19  20
ENDBRANCH  16  19
ENDBRANCH   2   9
BRANCH   1  24
ATOM     23  C   UNL     1       5.036   6.346  16.692  0.00  0.00    +0.000 C 
ATOM     24  C   UNL     1       5.071   6.426  18.212  0.00  0.00    +0.000 C 
ENDBRANCH   1  24
BRANCH   6  25
ATOM     25  C   UNL     1       4.541   1.638  19.592  0.00  0.00    +0.000 C 
ATOM     26  O   UNL     1       5.338   1.306  20.467  0.00  0.00    +0.000 OA
BRANCH  25  27
ATOM     27  O   UNL     1       4.139   0.779  18.625  0.00  0.00    +0.000 OA
ATOM     28  H   UNL     1       3.335   0.255  18.857  0.00  0.00    +0.000 HD
ENDBRANCH  25  27
ENDBRANCH   6  25
BRANCH   7  29
ATOM     29  O   UNL     1       6.041   3.879  18.577  0.00  0.00    +0.000 OA
ATOM     30  H   UNL     1       6.308   4.689  18.088  0.00  0.00    +0.000 HD
ENDBRANCH   7  29
TORSDOF 7
ENDMDL
MODEL 2
REMARK VINA RESULT:      -8.2      2.025      3.176
REMARK  Name = 
REMARK  11 active torsions:
REMARK  status: ('A' for Active; 'I' for Inactive)
REMARK    1  A    between atoms: C_1  and  C_2
REMARK    2  A    between atoms: C_2  and  C_3
REMARK    3  A    between atoms: C_4  and  C_5
REMARK    4  A    between atoms: C_12  and  C_13
REMARK    5  A    between atoms: C_13  and  N_14
REMARK    6  A    between atoms: N_14  and  C_15
REMARK    7  A    between atoms: N_14  and  C_16
REMARK    8  A    between atoms: N_17  and  C_18
REMARK    9  A    between atoms: C_22  and  C_23
REMARK   10  A    between atoms: C_23  and  O_25
REMARK   11  A    between atoms: C_26  and  O_27
REMARK                            x       y       z     vdW  Elec       q    Type
REMARK                         _______ _______ _______ _____ _____    ______ ____
ROOT
ATOM      1  C   UNL     1       3.094   5.438  17.957  0.00  0.00    +0.000 A 
ATOM      2  C   UNL     1       3.310   6.768  18.062  0.00  0.00    +0.000 A 
ATOM      3  N   UNL     1       4.482   7.324  17.608  0.00  0.00    +0.000 N 
ATOM      4  C   UNL     1       5.508   6.613  17.066  0.00  0.00    +0.000 A 
ATOM      5  O   UNL     1       6.558   7.138  16.708  0.00  0.00    +0.000 OA
ATOM      6  C   UNL     1       5.314   5.148  16.914  0.00  0.00    +0.000 A 
ATOM      7  C   UNL     1       4.137   4.620  17.330  0.00  0.00    +0.000 A 
ATOM      8  H   UNL     1       4.612   8.325  17.683  0.00  0.00    +0.000 HD
ENDROOT
BRANCH   2   9
ATOM      9  C   UNL     1       2.334   7.726  18.593  0.00  0.00    +0.000 A 
ATOM     10  C   UNL     1       1.737   8.642  17.721  0.00  0.00    +0.000 A 
ATOM     11  C   UNL     1       0.891   9.644  18.195  0.00  0.00    +0.000 A 
ATOM     12  C   UNL     1       0.648   9.698  19.576  0.00  0.00    +0.000 A 
ATOM     13  C   UNL     1       1.179   8.759  20.458  0.00  0.00    +0.000 A 
ATOM     14  C   UNL     1       2.046   7.764  19.966  0.00  0.00    +0.000 A 
ATOM     15  C   UNL     1       0.663   9.065  21.743  0.00  0.00    +0.000 A 
ATOM     16  C   UNL     1      -0.146  10.182  21.642  0.00  0.00    +0.000 A 
ATOM     17  N   UNL     1      -0.067  10.610  20.333  0.00  0.00    +0.000 N 
ATOM     18  C   UNL     1      -0.580  11.848  19.786  0.00  0.00    +0.000 C 
BRANCH  16  19
ATOM     19  C   UNL     1      -0.938  10.847  22.731  0.00  0.00    +0.000 C 
BRANCH  19  20
ATOM     20  N   UNL     1      -1.535  12.129  22.328  0.00  0.00    +0.000 NA
ATOM     21  C   UNL     1      -2.949  12.236  22.713  0.00  0.00    +0.000 C 
ATOM     22  C   UNL     1      -0.797  13.230  22.962  0.00  0.00    +0.000 C 
ENDBRANCH  19  20
ENDBRANCH  16  19
ENDBRANCH   2   9
BRANCH   1  24
ATOM     23  C   UNL     1       1.993   4.222  19.861  0.00  0.00    +0.000 C 
ATOM     24  C   UNL     1       1.835   4.753  18.443  0.00  0.00    +0.000 C 
ENDBRANCH   1  24
BRANCH   6  25
ATOM     25  C   UNL     1       6.353   4.292  16.324  0.00  0.00    +0.000 C 
ATOM     26  O   UNL     1       6.142   3.577  15.347  0.00  0.00    +0.000 OA
BRANCH  25  27
ATOM     27  O   UNL     1       7.555   4.316  16.949  0.00  0.00    +0.000 OA
ATOM     28  H   UNL     1       7.961   3.425  17.078  0.00  0.00    +0.000 HD
ENDBRANCH  25  27
ENDBRANCH   6  25
BRANCH   7  29
ATOM     29  O   UNL     1       3.792   3.289  17.183  0.00  0.00    +0.000 OA
ATOM     30  H   UNL     1       3.981   2.812  18.022  0.00  0.00    +0.000 HD
ENDBRANCH   7  29
TORSDOF 7
ENDMDL
MODEL 3
REMARK VINA RESULT:      -8.0      4.308      8.609
REMARK  Name = 
REMARK  11 active torsions:
REMARK  status: ('A' for Active; 'I' for Inactive)
REMARK    1  A    between atoms: C_1  and  C_2
REMARK    2  A    between atoms: C_2  and  C_3
REMARK    3  A    between atoms: C_4  and  C_5
REMARK    4  A    between atoms: C_12  and  C_13
REMARK    5  A    between atoms: C_13  and  N_14
REMARK    6  A    between atoms: N_14  and  C_15
REMARK    7  A    between atoms: N_14  and  C_16
REMARK    8  A    between atoms: N_17  and  C_18
REMARK    9  A    between atoms: C_22  and  C_23
REMARK   10  A    between atoms: C_23  and  O_25
REMARK   11  A    between atoms: C_26  and  O_27
REMARK                            x       y       z     vdW  Elec       q    Type
REMARK                         _______ _______ _______ _____ _____    ______ ____
ROOT
ATOM      1  C   UNL     1       0.437   9.904  19.941  0.00  0.00    +0.000 A 
ATOM      2  C   UNL     1       0.948   8.869  20.646  0.00  0.00    +0.000 A 
ATOM      3  N   UNL     1       0.819   8.823  22.013  0.00  0.00    +0.000 N 
ATOM      4  C   UNL     1       0.222   9.793  22.760  0.00  0.00    +0.000 A 
ATOM      5  O   UNL     1       0.160   9.738  23.984  0.00  0.00    +0.000 OA
ATOM      6  C   UNL     1      -0.369  10.944  22.031  0.00  0.00    +0.000 A 
ATOM      7  C   UNL     1      -0.269  10.956  20.679  0.00  0.00    +0.000 A 
ATOM      8  H   UNL     1       1.194   8.029  22.516  0.00  0.00    +0.000 HD
ENDROOT
BRANCH   2   9
ATOM      9  C   UNL     1       1.610   7.705  20.046  0.00  0.00    +0.000 A 
ATOM     10  C   UNL     1       1.509   6.464  20.680  0.00  0.00    +0.000 A 
ATOM     11  C   UNL     1       2.213   5.354  20.213  0.00  0.00    +0.000 A 
ATOM     12  C   UNL     1       3.019   5.522  19.077  0.00  0.00    +0.000 A 
ATOM     13  C   UNL     1       3.088   6.732  18.389  0.00  0.00    +0.000 A 
ATOM     14  C   UNL     1       2.385   7.847  18.885  0.00  0.00    +0.000 A 
ATOM     15  C   UNL     1       3.918   6.515  17.260  0.00  0.00    +0.000 A 
ATOM     16  C   UNL     1       4.360   5.205  17.278  0.00  0.00    +0.000 A 
ATOM     17  N   UNL     1       3.881   4.642  18.442  0.00  0.00    +0.000 N 
ATOM     18  C   UNL     1       4.236   3.356  19.003  0.00  0.00    +0.000 C 
BRANCH  16  19
ATOM     19  C   UNL     1       5.226   4.511  16.266  0.00  0.00    +0.000 C 
BRANCH  19  20
ATOM     20  N   UNL     1       6.575   5.085  16.150  0.00  0.00    +0.000 NA
ATOM     21  C   UNL     1       7.490   4.581  17.183  0.00  0.00    +0.000 C 
ATOM     22  C   UNL     1       7.133   4.752  14.832  0.00  0.00    +0.000 C 
ENDBRANCH  19  20
ENDBRANCH  16  19
ENDBRANCH   2   9
BRANCH   1  24
ATOM     23  C   UNL     1      -0.759   9.676  17.743  0.00  0.00    +0.000 C 
ATOM     24  C   UNL     1       0.549  10.028  18.437  0.00  0.00    +0.000 C 
ENDBRANCH   1  24
BRANCH   6  25
ATOM     25  C   UNL     1      -1.051  12.036  22.741  0.00  0.00    +0.000 C 
ATOM     26  O   UNL     1      -0.638  13.193  22.724  0.00  0.00    +0.000 OA
BRANCH  25  27
ATOM     27  O   UNL     1      -2.150  11.677  23.446  0.00  0.00    +0.000 OA
ATOM     28  H   UNL     1      -2.397  12.311  24.162  0.00  0.00    +0.000 HD
ENDBRANCH  25  27
ENDBRANCH   6  25
BRANCH   7  29
ATOM     29  O   UNL     1      -0.834  11.924  19.870  0.00  0.00    +0.000 OA
ATOM     30  H   UNL     1      -0.442  11.862  18.970  0.00  0.00    +0.000 HD
ENDBRANCH   7  29
TORSDOF 7
ENDMDL
MODEL 4
REMARK VINA RESULT:      -8.0      0.757      1.047
REMARK  Name = 
REMARK  11 active torsions:
REMARK  status: ('A' for Active; 'I' for Inactive)
REMARK    1  A    between atoms: C_1  and  C_2
REMARK    2  A    between atoms: C_2  and  C_3
REMARK    3  A    between atoms: C_4  and  C_5
REMARK    4  A    between atoms: C_12  and  C_13
REMARK    5  A    between atoms: C_13  and  N_14
REMARK    6  A    between atoms: N_14  and  C_15
REMARK    7  A    between atoms: N_14  and  C_16
REMARK    8  A    between atoms: N_17  and  C_18
REMARK    9  A    between atoms: C_22  and  C_23
REMARK   10  A    between atoms: C_23  and  O_25
REMARK   11  A    between atoms: C_26  and  O_27
REMARK                            x       y       z     vdW  Elec       q    Type
REMARK                         _______ _______ _______ _____ _____    ______ ____
ROOT
ATOM      1  C   UNL     1       4.209   5.516  18.787  0.00  0.00    +0.000 A 
ATOM      2  C   UNL     1       2.951   5.777  19.209  0.00  0.00    +0.000 A 
ATOM      3  N   UNL     1       2.195   4.795  19.802  0.00  0.00    +0.000 N 
ATOM      4  C   UNL     1       2.610   3.510  19.979  0.00  0.00    +0.000 A 
ATOM      5  O   UNL     1       1.892   2.648  20.477  0.00  0.00    +0.000 OA
ATOM      6  C   UNL     1       3.991   3.176  19.546  0.00  0.00    +0.000 A 
ATOM      7  C   UNL     1       4.739   4.166  19.000  0.00  0.00    +0.000 A 
ATOM      8  H   UNL     1       1.263   5.020  20.125  0.00  0.00    +0.000 HD
ENDROOT
BRANCH   2   9
ATOM      9  C   UNL     1       2.310   7.095  19.138  0.00  0.00    +0.000 A 
ATOM     10  C   UNL     1       2.435   7.850  17.969  0.00  0.00    +0.000 A 
ATOM     11  C   UNL     1       1.942   9.152  17.893  0.00  0.00    +0.000 A 
ATOM     12  C   UNL     1       1.305   9.678  19.028  0.00  0.00    +0.000 A 
ATOM     13  C   UNL     1       1.111   8.925  20.184  0.00  0.00    +0.000 A 
ATOM     14  C   UNL     1       1.631   7.618  20.250  0.00  0.00    +0.000 A 
ATOM     15  C   UNL     1       0.369   9.734  21.081  0.00  0.00    +0.000 A 
ATOM     16  C   UNL     1       0.138  10.960  20.486  0.00  0.00    +0.000 A 
ATOM     17  N   UNL     1       0.798  10.943  19.275  0.00  0.00    +0.000 N 
ATOM     18  C   UNL     1       1.015  12.060  18.381  0.00  0.00    +0.000 C 
BRANCH  16  19
ATOM     19  C   UNL     1      -0.640  12.120  21.038  0.00  0.00    +0.000 C 
BRANCH  19  20
ATOM     20  N   UNL     1       0.076  12.865  22.086  0.00  0.00    +0.000 NA
ATOM     21  C   UNL     1       0.938  13.919  21.535  0.00  0.00    +0.000 C 
ATOM     22  C   UNL     1      -0.899  13.489  22.990  0.00  0.00    +0.000 C 
ENDBRANCH  19  20
ENDBRANCH  16  19
ENDBRANCH   2   9
BRANCH   1  24
ATOM     23  C   UNL     1       5.136   6.356  16.607  0.00  0.00    +0.000 C 
ATOM     24  C   UNL     1       5.097   6.543  18.117  0.00  0.00    +0.000 C 
ENDBRANCH   1  24
BRANCH   6  25
ATOM     25  C   UNL     1       4.542   1.824  19.710  0.00  0.00    +0.000 C 
ATOM     26  O   UNL     1       5.331   1.537  20.607  0.00  0.00    +0.000 OA
BRANCH  25  27
ATOM     27  O   UNL     1       4.150   0.916  18.784  0.00  0.00    +0.000 OA
ATOM     28  H   UNL     1       3.453   1.244  18.166  0.00  0.00    +0.000 HD
ENDBRANCH  25  27
ENDBRANCH   6  25
BRANCH   7  29
ATOM     29  O   UNL     1       6.061   4.017  18.620  0.00  0.00    +0.000 OA
ATOM     30  H   UNL     1       6.150   3.204  18.075  0.00  0.00    +0.000 HD
ENDBRANCH   7  29
TORSDOF 7
ENDMDL
MODEL 5
REMARK VINA RESULT:      -7.9      2.301      3.714
REMARK  Name = 
REMARK  11 active torsions:
REMARK  status: ('A' for Active; 'I' for Inactive)
REMARK    1  A    between atoms: C_1  and  C_2
REMARK    2  A    between atoms: C_2  and  C_3
REMARK    3  A    between atoms: C_4  and  C_5
REMARK    4  A    between atoms: C_12  and  C_13
REMARK    5  A    between atoms: C_13  and  N_14
REMARK    6  A    between atoms: N_14  and  C_15
REMARK    7  A    between atoms: N_14  and  C_16
REMARK    8  A    between atoms: N_17  and  C_18
REMARK    9  A    between atoms: C_22  and  C_23
REMARK   10  A    between atoms: C_23  and  O_25
REMARK   11  A    between atoms: C_26  and  O_27
REMARK                            x       y       z     vdW  Elec       q    Type
REMARK                         _______ _______ _______ _____ _____    ______ ____
ROOT
ATOM      1  C   UNL     1       3.221   5.400  17.718  0.00  0.00    +0.000 A 
ATOM      2  C   UNL     1       3.516   6.695  17.969  0.00  0.00    +0.000 A 
ATOM      3  N   UNL     1       4.725   7.224  17.586  0.00  0.00    +0.000 N 
ATOM      4  C   UNL     1       5.714   6.513  16.976  0.00  0.00    +0.000 A 
ATOM      5  O   UNL     1       6.797   7.008  16.684  0.00  0.00    +0.000 OA
ATOM      6  C   UNL     1       5.433   5.088  16.664  0.00  0.00    +0.000 A 
ATOM      7  C   UNL     1       4.220   4.592  17.012  0.00  0.00    +0.000 A 
ATOM      8  H   UNL     1       4.915   8.201  17.769  0.00  0.00    +0.000 HD
ENDROOT
BRANCH   2   9
ATOM      9  C   UNL     1       2.593   7.649  18.594  0.00  0.00    +0.000 A 
ATOM     10  C   UNL     1       2.424   7.623  19.981  0.00  0.00    +0.000 A 
ATOM     11  C   UNL     1       1.476   8.430  20.609  0.00  0.00    +0.000 A 
ATOM     12  C   UNL     1       0.703   9.280  19.804  0.00  0.00    +0.000 A 
ATOM     13  C   UNL     1       0.894   9.372  18.426  0.00  0.00    +0.000 A 
ATOM     14  C   UNL     1       1.843   8.536  17.806  0.00  0.00    +0.000 A 
ATOM     15  C   UNL     1       0.011  10.375  17.955  0.00  0.00    +0.000 A 
ATOM     16  C   UNL     1      -0.716  10.865  19.025  0.00  0.00    +0.000 A 
ATOM     17  N   UNL     1      -0.350  10.119  20.126  0.00  0.00    +0.000 N 
ATOM     18  C   UNL     1      -0.975  10.123  21.431  0.00  0.00    +0.000 C 
BRANCH  16  19
ATOM     19  C   UNL     1      -1.740  11.963  19.016  0.00  0.00    +0.000 C 
BRANCH  19  20
ATOM     20  N   UNL     1      -3.116  11.487  18.806  0.00  0.00    +0.000 NA
ATOM     21  C   UNL     1      -4.110  12.322  19.493  0.00  0.00    +0.000 C 
ATOM     22  C   UNL     1      -3.418  11.495  17.368  0.00  0.00    +0.000 C 
ENDBRANCH  19  20
ENDBRANCH  16  19
ENDBRANCH   2   9
BRANCH   1  24
ATOM     23  C   UNL     1       2.004   4.109  19.498  0.00  0.00    +0.000 C 
ATOM     24  C   UNL     1       1.916   4.746  18.119  0.00  0.00    +0.000 C 
ENDBRANCH   1  24
BRANCH   6  25
ATOM     25  C   UNL     1       6.425   4.238  15.992  0.00  0.00    +0.000 C 
ATOM     26  O   UNL     1       6.166   3.602  14.973  0.00  0.00    +0.000 OA
BRANCH  25  27
ATOM     27  O   UNL     1       7.640   4.174  16.588  0.00  0.00    +0.000 OA
ATOM     28  H   UNL     1       8.401   4.231  15.961  0.00  0.00    +0.000 HD
ENDBRANCH  25  27
ENDBRANCH   6  25
BRANCH   7  29
ATOM     29  O   UNL     1       3.797   3.308  16.720  0.00  0.00    +0.000 OA
ATOM     30  H   UNL     1       3.453   3.284  15.799  0.00  0.00    +0.000 HD
ENDBRANCH   7  29
TORSDOF 7
ENDMDL
MODEL 6
REMARK VINA RESULT:      -7.8      2.293      3.663
REMARK  Name = 
REMARK  11 active torsions:
REMARK  status: ('A' for Active; 'I' for Inactive)
REMARK    1  A    between atoms: C_1  and  C_2
REMARK    2  A    between atoms: C_2  and  C_3
REMARK    3  A    between atoms: C_4  and  C_5
REMARK    4  A    between atoms: C_12  and  C_13
REMARK    5  A    between atoms: C_13  and  N_14
REMARK    6  A    between atoms: N_14  and  C_15
REMARK    7  A    between atoms: N_14  and  C_16
REMARK    8  A    between atoms: N_17  and  C_18
REMARK    9  A    between atoms: C_22  and  C_23
REMARK   10  A    between atoms: C_23  and  O_25
REMARK   11  A    between atoms: C_26  and  O_27
REMARK                            x       y       z     vdW  Elec       q    Type
REMARK                         _______ _______ _______ _____ _____    ______ ____
ROOT
ATOM      1  C   UNL     1       3.261   5.341  17.640  0.00  0.00    +0.000 A 
ATOM      2  C   UNL     1       3.589   6.613  17.955  0.00  0.00    +0.000 A 
ATOM      3  N   UNL     1       4.814   7.128  17.605  0.00  0.00    +0.000 N 
ATOM      4  C   UNL     1       5.788   6.421  16.967  0.00  0.00    +0.000 A 
ATOM      5  O   UNL     1       6.886   6.901  16.706  0.00  0.00    +0.000 OA
ATOM      6  C   UNL     1       5.472   5.021  16.585  0.00  0.00    +0.000 A 
ATOM      7  C   UNL     1       4.244   4.541  16.901  0.00  0.00    +0.000 A 
ATOM      8  H   UNL     1       5.028   8.089  17.837  0.00  0.00    +0.000 HD
ENDROOT
BRANCH   2   9
ATOM      9  C   UNL     1       2.686   7.560  18.620  0.00  0.00    +0.000 A 
ATOM     10  C   UNL     1       2.460   7.434  19.994  0.00  0.00    +0.000 A 
ATOM     11  C   UNL     1       1.526   8.235  20.650  0.00  0.00    +0.000 A 
ATOM     12  C   UNL     1       0.827   9.183  19.887  0.00  0.00    +0.000 A 
ATOM     13  C   UNL     1       1.078   9.373  18.529  0.00  0.00    +0.000 A 
ATOM     14  C   UNL     1       2.012   8.542  17.879  0.00  0.00    +0.000 A 
ATOM     15  C   UNL     1       0.263  10.453  18.108  0.00  0.00    +0.000 A 
ATOM     16  C   UNL     1      -0.484  10.892  19.186  0.00  0.00    +0.000 A 
ATOM     17  N   UNL     1      -0.198  10.046  20.236  0.00  0.00    +0.000 N 
ATOM     18  C   UNL     1      -0.875   9.978  21.514  0.00  0.00    +0.000 C 
BRANCH  16  19
ATOM     19  C   UNL     1      -1.454  12.038  19.228  0.00  0.00    +0.000 C 
BRANCH  19  20
ATOM     20  N   UNL     1      -0.907  13.252  19.854  0.00  0.00    +0.000 NA
ATOM     21  C   UNL     1      -0.302  14.164  18.875  0.00  0.00    +0.000 C 
ATOM     22  C   UNL     1      -1.985  13.968  20.550  0.00  0.00    +0.000 C 
ENDBRANCH  19  20
ENDBRANCH  16  19
ENDBRANCH   2   9
BRANCH   1  24
ATOM     23  C   UNL     1       2.013   3.952  19.322  0.00  0.00    +0.000 C 
ATOM     24  C   UNL     1       1.937   4.702  18.000  0.00  0.00    +0.000 C 
ENDBRANCH   1  24
BRANCH   6  25
ATOM     25  C   UNL     1       6.447   4.179  15.878  0.00  0.00    +0.000 C 
ATOM     26  O   UNL     1       6.182   3.609  14.822  0.00  0.00    +0.000 OA
BRANCH  25  27
ATOM     27  O   UNL     1       7.650   4.043  16.483  0.00  0.00    +0.000 OA
ATOM     28  H   UNL     1       7.999   3.119  16.488  0.00  0.00    +0.000 HD
ENDBRANCH  25  27
ENDBRANCH   6  25
BRANCH   7  29
ATOM     29  O   UNL     1       3.789   3.285  16.544  0.00  0.00    +0.000 OA
ATOM     30  H   UNL     1       3.291   3.350  15.699  0.00  0.00    +0.000 HD
ENDBRANCH   7  29
TORSDOF 7
ENDMDL
MODEL 7
REMARK VINA RESULT:      -7.8      1.918      3.098
REMARK  Name = 
REMARK  11 active torsions:
REMARK  status: ('A' for Active; 'I' for Inactive)
REMARK    1  A    between atoms: C_1  and  C_2
REMARK    2  A    between atoms: C_2  and  C_3
REMARK    3  A    between atoms: C_4  and  C_5
REMARK    4  A    between atoms: C_12  and  C_13
REMARK    5  A    between atoms: C_13  and  N_14
REMARK    6  A    between atoms: N_14  and  C_15
REMARK    7  A    between atoms: N_14  and  C_16
REMARK    8  A    between atoms: N_17  and  C_18
REMARK    9  A    between atoms: C_22  and  C_23
REMARK   10  A    between atoms: C_23  and  O_25
REMARK   11  A    between atoms: C_26  and  O_27
REMARK                            x       y       z     vdW  Elec       q    Type
REMARK                         _______ _______ _______ _____ _____    ______ ____
ROOT
ATOM      1  C   UNL     1       3.097   5.586  18.421  0.00  0.00    +0.000 A 
ATOM      2  C   UNL     1       3.214   6.920  18.235  0.00  0.00    +0.000 A 
ATOM      3  N   UNL     1       4.329   7.447  17.630  0.00  0.00    +0.000 N 
ATOM      4  C   UNL     1       5.395   6.709  17.211  0.00  0.00    +0.000 A 
ATOM      5  O   UNL     1       6.393   7.218  16.711  0.00  0.00    +0.000 OA
ATOM      6  C   UNL     1       5.309   5.236  17.379  0.00  0.00    +0.000 A 
ATOM      7  C   UNL     1       4.185   4.728  17.942  0.00  0.00    +0.000 A 
ATOM      8  H   UNL     1       4.385   8.447  17.486  0.00  0.00    +0.000 HD
ENDROOT
BRANCH   2   9
ATOM      9  C   UNL     1       2.179   7.899  18.587  0.00  0.00    +0.000 A 
ATOM     10  C   UNL     1       1.500   8.569  17.565  0.00  0.00    +0.000 A 
ATOM     11  C   UNL     1       0.592   9.588  17.849  0.00  0.00    +0.000 A 
ATOM     12  C   UNL     1       0.371   9.912  19.196  0.00  0.00    +0.000 A 
ATOM     13  C   UNL     1       0.987   9.218  20.236  0.00  0.00    +0.000 A 
ATOM     14  C   UNL     1       1.916   8.204  19.932  0.00  0.00    +0.000 A 
ATOM     15  C   UNL     1       0.474   9.751  21.445  0.00  0.00    +0.000 A 
ATOM     16  C   UNL     1      -0.418  10.763  21.142  0.00  0.00    +0.000 A 
ATOM     17  N   UNL     1      -0.395  10.912  19.771  0.00  0.00    +0.000 N 
ATOM     18  C   UNL     1      -1.008  11.970  18.996  0.00  0.00    +0.000 C 
BRANCH  16  19
ATOM     19  C   UNL     1      -1.236  11.585  22.095  0.00  0.00    +0.000 C 
BRANCH  19  20
ATOM     20  N   UNL     1      -0.474  12.657  22.755  0.00  0.00    +0.000 NA
ATOM     21  C   UNL     1       0.269  13.488  21.799  0.00  0.00    +0.000 C 
ATOM     22  C   UNL     1      -1.399  13.522  23.501  0.00  0.00    +0.000 C 
ENDBRANCH  19  20
ENDBRANCH  16  19
ENDBRANCH   2   9
BRANCH   1  24
ATOM     23  C   UNL     1       2.132   4.737  20.580  0.00  0.00    +0.000 C 
ATOM     24  C   UNL     1       1.905   4.935  19.088  0.00  0.00    +0.000 C 
ENDBRANCH   1  24
BRANCH   6  25
ATOM     25  C   UNL     1       6.397   4.348  16.945  0.00  0.00    +0.000 C 
ATOM     26  O   UNL     1       7.538   4.434  17.394  0.00  0.00    +0.000 OA
BRANCH  25  27
ATOM     27  O   UNL     1       6.069   3.446  15.989  0.00  0.00    +0.000 OA
ATOM     28  H   UNL     1       6.195   3.772  15.065  0.00  0.00    +0.000 HD
ENDBRANCH  25  27
ENDBRANCH   6  25
BRANCH   7  29
ATOM     29  O   UNL     1       3.939   3.375  18.093  0.00  0.00    +0.000 OA
ATOM     30  H   UNL     1       3.979   3.145  19.048  0.00  0.00    +0.000 HD
ENDBRANCH   7  29
TORSDOF 7
ENDMDL
MODEL 8
REMARK VINA RESULT:      -7.7      4.171      8.488
REMARK  Name = 
REMARK  11 active torsions:
REMARK  status: ('A' for Active; 'I' for Inactive)
REMARK    1  A    between atoms: C_1  and  C_2
REMARK    2  A    between atoms: C_2  and  C_3
REMARK    3  A    between atoms: C_4  and  C_5
REMARK    4  A    between atoms: C_12  and  C_13
REMARK    5  A    between atoms: C_13  and  N_14
REMARK    6  A    between atoms: N_14  and  C_15
REMARK    7  A    between atoms: N_14  and  C_16
REMARK    8  A    between atoms: N_17  and  C_18
REMARK    9  A    between atoms: C_22  and  C_23
REMARK   10  A    between atoms: C_23  and  O_25
REMARK   11  A    between atoms: C_26  and  O_27
REMARK                            x       y       z     vdW  Elec       q    Type
REMARK                         _______ _______ _______ _____ _____    ______ ____
ROOT
ATOM      1  C   UNL     1       0.739   9.557  19.825  0.00  0.00    +0.000 A 
ATOM      2  C   UNL     1       1.198   8.541  20.589  0.00  0.00    +0.000 A 
ATOM      3  N   UNL     1       1.050   8.570  21.954  0.00  0.00    +0.000 N 
ATOM      4  C   UNL     1       0.483   9.600  22.642  0.00  0.00    +0.000 A 
ATOM      5  O   UNL     1       0.403   9.610  23.866  0.00  0.00    +0.000 OA
ATOM      6  C   UNL     1      -0.052  10.735  21.846  0.00  0.00    +0.000 A 
ATOM      7  C   UNL     1       0.066  10.672  20.497  0.00  0.00    +0.000 A 
ATOM      8  H   UNL     1       1.386   7.789  22.503  0.00  0.00    +0.000 HD
ENDROOT
BRANCH   2   9
ATOM      9  C   UNL     1       1.822   7.322  20.059  0.00  0.00    +0.000 A 
ATOM     10  C   UNL     1       1.678   6.124  20.764  0.00  0.00    +0.000 A 
ATOM     11  C   UNL     1       2.345   4.966  20.364  0.00  0.00    +0.000 A 
ATOM     12  C   UNL     1       3.157   5.040  19.221  0.00  0.00    +0.000 A 
ATOM     13  C   UNL     1       3.266   6.205  18.464  0.00  0.00    +0.000 A 
ATOM     14  C   UNL     1       2.601   7.370  18.893  0.00  0.00    +0.000 A 
ATOM     15  C   UNL     1       4.089   5.895  17.352  0.00  0.00    +0.000 A 
ATOM     16  C   UNL     1       4.486   4.575  17.447  0.00  0.00    +0.000 A 
ATOM     17  N   UNL     1       3.988   4.097  18.641  0.00  0.00    +0.000 N 
ATOM     18  C   UNL     1       4.300   2.834  19.276  0.00  0.00    +0.000 C 
BRANCH  16  19
ATOM     19  C   UNL     1       5.328   3.794  16.479  0.00  0.00    +0.000 C 
BRANCH  19  20
ATOM     20  N   UNL     1       6.727   4.246  16.415  0.00  0.00    +0.000 NA
ATOM     21  C   UNL     1       6.918   5.346  15.461  0.00  0.00    +0.000 C 
ATOM     22  C   UNL     1       7.150   4.706  17.745  0.00  0.00    +0.000 C 
ENDBRANCH  19  20
ENDBRANCH  16  19
ENDBRANCH   2   9
BRANCH   1  24
ATOM     23  C   UNL     1       2.051  10.461  17.882  0.00  0.00    +0.000 C 
ATOM     24  C   UNL     1       0.875   9.599  18.318  0.00  0.00    +0.000 C 
ENDBRANCH   1  24
BRANCH   6  25
ATOM     25  C   UNL     1      -0.699  11.887  22.490  0.00  0.00    +0.000 C 
ATOM     26  O   UNL     1      -0.252  13.028  22.403  0.00  0.00    +0.000 OA
BRANCH  25  27
ATOM     27  O   UNL     1      -1.808  11.605  23.216  0.00  0.00    +0.000 OA
ATOM     28  H   UNL     1      -2.642  11.979  22.843  0.00  0.00    +0.000 HD
ENDBRANCH  25  27
ENDBRANCH   6  25
BRANCH   7  29
ATOM     29  O   UNL     1      -0.450  11.619  19.631  0.00  0.00    +0.000 OA
ATOM     30  H   UNL     1       0.129  12.414  19.641  0.00  0.00    +0.000 HD
ENDBRANCH   7  29
TORSDOF 7
ENDMDL
MODEL 9
REMARK VINA RESULT:      -7.7      5.178      9.067
REMARK  Name = 
REMARK  11 active torsions:
REMARK  status: ('A' for Active; 'I' for Inactive)
REMARK    1  A    between atoms: C_1  and  C_2
REMARK    2  A    between atoms: C_2  and  C_3
REMARK    3  A    between atoms: C_4  and  C_5
REMARK    4  A    between atoms: C_12  and  C_13
REMARK    5  A    between atoms: C_13  and  N_14
REMARK    6  A    between atoms: N_14  and  C_15
REMARK    7  A    between atoms: N_14  and  C_16
REMARK    8  A    between atoms: N_17  and  C_18
REMARK    9  A    between atoms: C_22  and  C_23
REMARK   10  A    between atoms: C_23  and  O_25
REMARK   11  A    between atoms: C_26  and  O_27
REMARK                            x       y       z     vdW  Elec       q    Type
REMARK                         _______ _______ _______ _____ _____    ______ ____
ROOT
ATOM      1  C   UNL     1      -0.765  11.376  19.020  0.00  0.00    +0.000 A 
ATOM      2  C   UNL     1       0.568  11.208  19.175  0.00  0.00    +0.000 A 
ATOM      3  N   UNL     1       1.371  12.268  19.517  0.00  0.00    +0.000 N 
ATOM      4  C   UNL     1       0.925  13.544  19.688  0.00  0.00    +0.000 A 
ATOM      5  O   UNL     1       1.678  14.475  19.955  0.00  0.00    +0.000 OA
ATOM      6  C   UNL     1      -0.535  13.778  19.545  0.00  0.00    +0.000 A 
ATOM      7  C   UNL     1      -1.320  12.714  19.246  0.00  0.00    +0.000 A 
ATOM      8  H   UNL     1       2.363  12.113  19.644  0.00  0.00    +0.000 HD
ENDROOT
BRANCH   2   9
ATOM      9  C   UNL     1       1.259   9.918  19.060  0.00  0.00    +0.000 A 
ATOM     10  C   UNL     1       1.982   9.636  17.898  0.00  0.00    +0.000 A 
ATOM     11  C   UNL     1       2.561   8.384  17.693  0.00  0.00    +0.000 A 
ATOM     12  C   UNL     1       2.402   7.417  18.699  0.00  0.00    +0.000 A 
ATOM     13  C   UNL     1       1.740   7.693  19.894  0.00  0.00    +0.000 A 
ATOM     14  C   UNL     1       1.147   8.957  20.076  0.00  0.00    +0.000 A 
ATOM     15  C   UNL     1       1.845   6.530  20.698  0.00  0.00    +0.000 A 
ATOM     16  C   UNL     1       2.537   5.563  19.994  0.00  0.00    +0.000 A 
ATOM     17  N   UNL     1       2.785   6.087  18.742  0.00  0.00    +0.000 N 
ATOM     18  C   UNL     1       3.307   5.386  17.588  0.00  0.00    +0.000 C 
BRANCH  16  19
ATOM     19  C   UNL     1       2.925   4.188  20.456  0.00  0.00    +0.000 C 
BRANCH  19  20
ATOM     20  N   UNL     1       1.846   3.196  20.328  0.00  0.00    +0.000 NA
ATOM     21  C   UNL     1       2.179   2.124  19.380  0.00  0.00    +0.000 C 
ATOM     22  C   UNL     1       1.586   2.590  21.641  0.00  0.00    +0.000 C 
ENDBRANCH  19  20
ENDBRANCH  16  19
ENDBRANCH   2   9
BRANCH   1  24
ATOM     23  C   UNL     1      -1.777  10.070  17.126  0.00  0.00    +0.000 C 
ATOM     24  C   UNL     1      -1.711  10.258  18.635  0.00  0.00    +0.000 C 
ENDBRANCH   1  24
BRANCH   6  25
ATOM     25  C   UNL     1      -1.120  15.114  19.727  0.00  0.00    +0.000 C 
ATOM     26  O   UNL     1      -1.888  15.376  20.650  0.00  0.00    +0.000 OA
BRANCH  25  27
ATOM     27  O   UNL     1      -0.785  16.033  18.790  0.00  0.00    +0.000 OA
ATOM     28  H   UNL     1      -0.421  16.873  19.160  0.00  0.00    +0.000 HD
ENDBRANCH  25  27
ENDBRANCH   6  25
BRANCH   7  29
ATOM     29  O   UNL     1      -2.698  12.771  19.155  0.00  0.00    +0.000 OA
ATOM     30  H   UNL     1      -2.947  13.281  18.351  0.00  0.00    +0.000 HD
ENDBRANCH   7  29
TORSDOF 7
ENDMDL
