MODEL 1
REMARK VINA RESULT:      -7.9      0.000      0.000
REMARK  Name = 
REMARK  16 active torsions:
REMARK  status: ('A' for Active; 'I' for Inactive)
REMARK    1  A    between atoms: C_1  and  C_2
REMARK    2  A    between atoms: C_2  and  C_3
REMARK    3  A    between atoms: C_3  and  C_4
REMARK    4  A    between atoms: C_6  and  C_7
REMARK    5  A    between atoms: C_7  and  C_9
REMARK    6  A    between atoms: C_9  and  C_10
REMARK    7  A    between atoms: C_12  and  C_13
REMARK    8  A    between atoms: C_13  and  C_14
REMARK    9  A    between atoms: C_14  and  C_15
REMARK   10  A    between atoms: C_16  and  O_17
REMARK   11  A    between atoms: O_17  and  C_18
REMARK   12  A    between atoms: C_18  and  C_19
REMARK   13  A    between atoms: C_18  and  C_22
REMARK   14  A    between atoms: C_19  and  O_21
REMARK   15  A    between atoms: C_25  and  C_26
REMARK   16  A    between atoms: C_26  and  C_27
REMARK                            x       y       z     vdW  Elec       q    Type
REMARK                         _______ _______ _______ _____ _____    ______ ____
ROOT
ATOM      1  C   UNL     1       5.874   5.133  18.119  0.00  0.00    +0.000 A 
ATOM      2  C   UNL     1       6.428   5.087  16.834  0.00  0.00    +0.000 A 
ATOM      3  C   UNL     1       5.681   4.610  15.766  0.00  0.00    +0.000 A 
ATOM      4  C   UNL     1       4.383   4.139  15.986  0.00  0.00    +0.000 A 
ATOM      5  C   UNL     1       3.795   4.123  17.273  0.00  0.00    +0.000 A 
ATOM      6  C   UNL     1       4.563   4.625  18.351  0.00  0.00    +0.000 A 
ENDROOT
BRANCH   3   7
ATOM      7  C   UNL     1       6.290   4.632  14.407  0.00  0.00    +0.000 C 
ATOM      8  O   UNL     1       7.308   5.288  14.211  0.00  0.00    +0.000 OA
BRANCH   7   9
ATOM      9  C   UNL     1       5.603   3.839  13.308  0.00  0.00    +0.000 C 
ATOM     10  C   UNL     1       6.594   3.370  12.258  0.00  0.00    +0.000 C 
ENDBRANCH   7   9
ENDBRANCH   3   7
BRANCH   1  11
ATOM     11  C   UNL     1       6.677   5.839  19.201  0.00  0.00    +0.000 C 
BRANCH  11  13
ATOM     12  C   UNL     1       8.044   7.717  18.249  0.00  0.00    +0.000 C 
ATOM     13  C   UNL     1       8.076   6.289  18.779  0.00  0.00    +0.000 C 
ENDBRANCH  11  13
ENDBRANCH   1  11
BRANCH   5  14
ATOM     14  C   UNL     1       2.425   3.472  17.333  0.00  0.00    +0.000 C 
BRANCH  14  15
ATOM     15  C   UNL     1       2.318   1.974  17.675  0.00  0.00    +0.000 C 
ATOM     16  C   UNL     1       3.477   1.350  18.440  0.00  0.00    +0.000 C 
ENDBRANCH  14  15
ENDBRANCH   5  14
BRANCH   6  17
ATOM     17  O   UNL     1       4.239   4.629  19.677  0.00  0.00    +0.000 OA
BRANCH  17  18
ATOM     18  C   UNL     1       3.106   5.306  20.253  0.00  0.00    +0.000 C 
BRANCH  18  19
ATOM     19  C   UNL     1       2.600   6.638  19.703  0.00  0.00    +0.000 A 
ATOM     20  C   UNL     1       1.901   7.520  20.548  0.00  0.00    +0.000 A 
ATOM     21  C   UNL     1       1.317   8.691  20.058  0.00  0.00    +0.000 A 
ATOM     22  C   UNL     1       1.436   9.025  18.709  0.00  0.00    +0.000 A 
ATOM     23  C   UNL     1       2.210   8.215  17.880  0.00  0.00    +0.000 A 
ATOM     24  C   UNL     1       2.815   7.060  18.382  0.00  0.00    +0.000 A 
BRANCH  22  25
ATOM     25  C   UNL     1       0.793  10.272  18.168  0.00  0.00    +0.000 C 
ATOM     26  C   UNL     1      -0.697  10.057  17.960  0.00  0.00    +0.000 C 
ENDBRANCH  22  25
ENDBRANCH  18  19
BRANCH  18  27
ATOM     27  C   UNL     1       2.063   4.208  20.554  0.00  0.00    +0.000 C 
ATOM     28  O   UNL     1       0.870   4.230  20.296  0.00  0.00    +0.000 OA
BRANCH  27  29
ATOM     29  O   UNL     1       2.612   3.146  21.216  0.00  0.00    +0.000 OA
ATOM     30  H   UNL     1       2.854   3.398  22.134  0.00  0.00    +0.000 HD
ENDBRANCH  27  29
ENDBRANCH  18  27
ENDBRANCH  17  18
ENDBRANCH   6  17
TORSDOF 12
ENDMDL
MODEL 2
REMARK VINA RESULT:      -7.4      1.750      6.854
REMARK  Name = 
REMARK  16 active torsions:
REMARK  status: ('A' for Active; 'I' for Inactive)
REMARK    1  A    between atoms: C_1  and  C_2
REMARK    2  A    between atoms: C_2  and  C_3
REMARK    3  A    between atoms: C_3  and  C_4
REMARK    4  A    between atoms: C_6  and  C_7
REMARK    5  A    between atoms: C_7  and  C_9
REMARK    6  A    between atoms: C_9  and  C_10
REMARK    7  A    between atoms: C_12  and  C_13
REMARK    8  A    between atoms: C_13  and  C_14
REMARK    9  A    between atoms: C_14  and  C_15
REMARK   10  A    between atoms: C_16  and  O_17
REMARK   11  A    between atoms: O_17  and  C_18
REMARK   12  A    between atoms: C_18  and  C_19
REMARK   13  A    between atoms: C_18  and  C_22
REMARK   14  A    between atoms: C_19  and  O_21
REMARK   15  A    between atoms: C_25  and  C_26
REMARK   16  A    between atoms: C_26  and  C_27
REMARK                            x       y       z     vdW  Elec       q    Type
REMARK                         _______ _______ _______ _____ _____    ______ ____
ROOT
ATOM      1  C   UNL     1       2.545   6.017  20.041  0.00  0.00    +0.000 A 
ATOM      2  C   UNL     1       1.810   7.192  20.243  0.00  0.00    +0.000 A 
ATOM      3  C   UNL     1       1.883   8.230  19.324  0.00  0.00    +0.000 A 
ATOM      4  C   UNL     1       2.724   8.112  18.213  0.00  0.00    +0.000 A 
ATOM      5  C   UNL     1       3.520   6.964  17.988  0.00  0.00    +0.000 A 
ATOM      6  C   UNL     1       3.425   5.907  18.926  0.00  0.00    +0.000 A 
ENDROOT
BRANCH   3   7
ATOM      7  C   UNL     1       1.042   9.438  19.549  0.00  0.00    +0.000 C 
ATOM      8  O   UNL     1       0.812   9.810  20.695  0.00  0.00    +0.000 OA
BRANCH   7   9
ATOM      9  C   UNL     1       0.487  10.155  18.329  0.00  0.00    +0.000 C 
ATOM     10  C   UNL     1      -1.027  10.243  18.376  0.00  0.00    +0.000 C 
ENDBRANCH   7   9
ENDBRANCH   3   7
BRANCH   1  11
ATOM     11  C   UNL     1       2.273   4.854  20.982  0.00  0.00    +0.000 C 
BRANCH  11  13
ATOM     12  C   UNL     1       1.351   2.526  21.160  0.00  0.00    +0.000 C 
ATOM     13  C   UNL     1       1.165   3.901  20.533  0.00  0.00    +0.000 C 
ENDBRANCH  11  13
ENDBRANCH   1  11
BRANCH   5  14
ATOM     14  C   UNL     1       4.451   7.065  16.795  0.00  0.00    +0.000 C 
BRANCH  14  15
ATOM     15  C   UNL     1       5.825   7.738  16.968  0.00  0.00    +0.000 C 
ATOM     16  C   UNL     1       6.791   7.106  17.960  0.00  0.00    +0.000 C 
ENDBRANCH  14  15
ENDBRANCH   5  14
BRANCH   6  17
ATOM     17  O   UNL     1       4.154   4.753  18.961  0.00  0.00    +0.000 OA
BRANCH  17  18
ATOM     18  C   UNL     1       4.185   3.759  17.920  0.00  0.00    +0.000 C 
BRANCH  18  19
ATOM     19  C   UNL     1       5.045   3.932  16.669  0.00  0.00    +0.000 A 
ATOM     20  C   UNL     1       6.436   4.094  16.798  0.00  0.00    +0.000 A 
ATOM     21  C   UNL     1       7.244   4.376  15.693  0.00  0.00    +0.000 A 
ATOM     22  C   UNL     1       6.683   4.480  14.420  0.00  0.00    +0.000 A 
ATOM     23  C   UNL     1       5.322   4.223  14.261  0.00  0.00    +0.000 A 
ATOM     24  C   UNL     1       4.525   3.915  15.366  0.00  0.00    +0.000 A 
BRANCH  22  25
ATOM     25  C   UNL     1       7.541   4.804  13.228  0.00  0.00    +0.000 C 
ATOM     26  C   UNL     1       7.078   4.024  12.009  0.00  0.00    +0.000 C 
ENDBRANCH  22  25
ENDBRANCH  18  19
BRANCH  18  27
ATOM     27  C   UNL     1       4.222   2.392  18.637  0.00  0.00    +0.000 C 
ATOM     28  O   UNL     1       3.579   1.393  18.360  0.00  0.00    +0.000 OA
BRANCH  27  29
ATOM     29  O   UNL     1       5.069   2.399  19.710  0.00  0.00    +0.000 OA
ATOM     30  H   UNL     1       5.064   3.279  20.148  0.00  0.00    +0.000 HD
ENDBRANCH  27  29
ENDBRANCH  18  27
ENDBRANCH  17  18
ENDBRANCH   6  17
TORSDOF 12
ENDMDL
MODEL 3
REMARK VINA RESULT:      -7.1      0.923      1.460
REMARK  Name = 
REMARK  16 active torsions:
REMARK  status: ('A' for Active; 'I' for Inactive)
REMARK    1  A    between atoms: C_1  and  C_2
REMARK    2  A    between atoms: C_2  and  C_3
REMARK    3  A    between atoms: C_3  and  C_4
REMARK    4  A    between atoms: C_6  and  C_7
REMARK    5  A    between atoms: C_7  and  C_9
REMARK    6  A    between atoms: C_9  and  C_10
REMARK    7  A    between atoms: C_12  and  C_13
REMARK    8  A    between atoms: C_13  and  C_14
REMARK    9  A    between atoms: C_14  and  C_15
REMARK   10  A    between atoms: C_16  and  O_17
REMARK   11  A    between atoms: O_17  and  C_18
REMARK   12  A    between atoms: C_18  and  C_19
REMARK   13  A    between atoms: C_18  and  C_22
REMARK   14  A    between atoms: C_19  and  O_21
REMARK   15  A    between atoms: C_25  and  C_26
REMARK   16  A    between atoms: C_26  and  C_27
REMARK                            x       y       z     vdW  Elec       q    Type
REMARK                         _______ _______ _______ _____ _____    ______ ____
ROOT
ATOM      1  C   UNL     1       6.244   4.920  18.004  0.00  0.00    +0.000 A 
ATOM      2  C   UNL     1       6.765   4.995  16.707  0.00  0.00    +0.000 A 
ATOM      3  C   UNL     1       6.097   4.394  15.648  0.00  0.00    +0.000 A 
ATOM      4  C   UNL     1       4.919   3.679  15.890  0.00  0.00    +0.000 A 
ATOM      5  C   UNL     1       4.378   3.536  17.190  0.00  0.00    +0.000 A 
ATOM      6  C   UNL     1       5.063   4.166  18.258  0.00  0.00    +0.000 A 
ENDROOT
BRANCH   3   7
ATOM      7  C   UNL     1       6.656   4.547  14.276  0.00  0.00    +0.000 C 
ATOM      8  O   UNL     1       7.585   5.325  14.086  0.00  0.00    +0.000 OA
BRANCH   7   9
ATOM      9  C   UNL     1       6.030   3.730  13.158  0.00  0.00    +0.000 C 
ATOM     10  C   UNL     1       6.970   3.594  11.975  0.00  0.00    +0.000 C 
ENDBRANCH   7   9
ENDBRANCH   3   7
BRANCH   1  11
ATOM     11  C   UNL     1       6.924   5.756  19.078  0.00  0.00    +0.000 C 
BRANCH  11  13
ATOM     12  C   UNL     1       7.389   7.774  17.659  0.00  0.00    +0.000 C 
ATOM     13  C   UNL     1       8.000   6.715  18.568  0.00  0.00    +0.000 C 
ENDBRANCH  11  13
ENDBRANCH   1  11
BRANCH   5  14
ATOM     14  C   UNL     1       3.162   2.632  17.271  0.00  0.00    +0.000 C 
BRANCH  14  15
ATOM     15  C   UNL     1       1.843   3.194  17.832  0.00  0.00    +0.000 C 
ATOM     16  C   UNL     1       1.262   4.424  17.148  0.00  0.00    +0.000 C 
ENDBRANCH  14  15
ENDBRANCH   5  14
BRANCH   6  17
ATOM     17  O   UNL     1       4.777   4.094  19.590  0.00  0.00    +0.000 OA
BRANCH  17  18
ATOM     18  C   UNL     1       3.743   4.839  20.260  0.00  0.00    +0.000 C 
BRANCH  18  19
ATOM     19  C   UNL     1       3.097   6.069  19.624  0.00  0.00    +0.000 A 
ATOM     20  C   UNL     1       3.521   6.497  18.352  0.00  0.00    +0.000 A 
ATOM     21  C   UNL     1       3.045   7.683  17.786  0.00  0.00    +0.000 A 
ATOM     22  C   UNL     1       2.113   8.464  18.469  0.00  0.00    +0.000 A 
ATOM     23  C   UNL     1       1.608   8.002  19.684  0.00  0.00    +0.000 A 
ATOM     24  C   UNL     1       2.067   6.802  20.231  0.00  0.00    +0.000 A 
BRANCH  22  25
ATOM     25  C   UNL     1       1.611   9.753  17.877  0.00  0.00    +0.000 C 
ATOM     26  C   UNL     1       1.373  10.784  18.968  0.00  0.00    +0.000 C 
ENDBRANCH  22  25
ENDBRANCH  18  19
BRANCH  18  27
ATOM     27  C   UNL     1       2.812   3.789  20.906  0.00  0.00    +0.000 C 
ATOM     28  O   UNL     1       1.718   3.982  21.412  0.00  0.00    +0.000 OA
BRANCH  27  29
ATOM     29  O   UNL     1       3.366   2.540  20.900  0.00  0.00    +0.000 OA
ATOM     30  H   UNL     1       2.925   1.963  21.563  0.00  0.00    +0.000 HD
ENDBRANCH  27  29
ENDBRANCH  18  27
ENDBRANCH  17  18
ENDBRANCH   6  17
TORSDOF 12
ENDMDL
MODEL 4
REMARK VINA RESULT:      -7.1      0.843      3.492
REMARK  Name = 
REMARK  16 active torsions:
REMARK  status: ('A' for Active; 'I' for Inactive)
REMARK    1  A    between atoms: C_1  and  C_2
REMARK    2  A    between atoms: C_2  and  C_3
REMARK    3  A    between atoms: C_3  and  C_4
REMARK    4  A    between atoms: C_6  and  C_7
REMARK    5  A    between atoms: C_7  and  C_9
REMARK    6  A    between atoms: C_9  and  C_10
REMARK    7  A    between atoms: C_12  and  C_13
REMARK    8  A    between atoms: C_13  and  C_14
REMARK    9  A    between atoms: C_14  and  C_15
REMARK   10  A    between atoms: C_16  and  O_17
REMARK   11  A    between atoms: O_17  and  C_18
REMARK   12  A    between atoms: C_18  and  C_19
REMARK   13  A    between atoms: C_18  and  C_22
REMARK   14  A    between atoms: C_19  and  O_21
REMARK   15  A    between atoms: C_25  and  C_26
REMARK   16  A    between atoms: C_26  and  C_27
REMARK                            x       y       z     vdW  Elec       q    Type
REMARK                         _______ _______ _______ _____ _____    ______ ____
ROOT
ATOM      1  C   UNL     1       4.701   3.445  17.471  0.00  0.00    +0.000 A 
ATOM      2  C   UNL     1       5.008   3.652  16.121  0.00  0.00    +0.000 A 
ATOM      3  C   UNL     1       6.051   4.496  15.762  0.00  0.00    +0.000 A 
ATOM      4  C   UNL     1       6.769   5.169  16.754  0.00  0.00    +0.000 A 
ATOM      5  C   UNL     1       6.467   5.029  18.130  0.00  0.00    +0.000 A 
ATOM      6  C   UNL     1       5.410   4.154  18.483  0.00  0.00    +0.000 A 
ENDROOT
BRANCH   3   7
ATOM      7  C   UNL     1       6.380   4.642  14.316  0.00  0.00    +0.000 C 
ATOM      8  O   UNL     1       7.337   5.331  13.981  0.00  0.00    +0.000 OA
BRANCH   7   9
ATOM      9  C   UNL     1       5.491   3.930  13.310  0.00  0.00    +0.000 C 
ATOM     10  C   UNL     1       6.305   3.316  12.186  0.00  0.00    +0.000 C 
ENDBRANCH   7   9
ENDBRANCH   3   7
BRANCH   1  11
ATOM     11  C   UNL     1       3.677   2.369  17.797  0.00  0.00    +0.000 C 
BRANCH  11  13
ATOM     12  C   UNL     1       1.531   3.658  17.616  0.00  0.00    +0.000 C 
ATOM     13  C   UNL     1       2.344   2.498  17.058  0.00  0.00    +0.000 C 
ENDBRANCH  11  13
ENDBRANCH   1  11
BRANCH   5  14
ATOM     14  C   UNL     1       7.278   5.924  19.048  0.00  0.00    +0.000 C 
BRANCH  14  15
ATOM     15  C   UNL     1       8.170   7.020  18.436  0.00  0.00    +0.000 C 
ATOM     16  C   UNL     1       7.471   8.183  17.746  0.00  0.00    +0.000 C 
ENDBRANCH  14  15
ENDBRANCH   5  14
BRANCH   6  17
ATOM     17  O   UNL     1       4.891   3.931  19.725  0.00  0.00    +0.000 OA
BRANCH  17  18
ATOM     18  C   UNL     1       3.832   4.694  20.333  0.00  0.00    +0.000 C 
BRANCH  18  19
ATOM     19  C   UNL     1       3.224   5.914  19.644  0.00  0.00    +0.000 A 
ATOM     20  C   UNL     1       3.657   6.274  18.355  0.00  0.00    +0.000 A 
ATOM     21  C   UNL     1       3.218   7.448  17.739  0.00  0.00    +0.000 A 
ATOM     22  C   UNL     1       2.311   8.287  18.388  0.00  0.00    +0.000 A 
ATOM     23  C   UNL     1       1.796   7.894  19.622  0.00  0.00    +0.000 A 
ATOM     24  C   UNL     1       2.218   6.705  20.221  0.00  0.00    +0.000 A 
BRANCH  22  25
ATOM     25  C   UNL     1       1.849   9.564  17.742  0.00  0.00    +0.000 C 
ATOM     26  C   UNL     1       0.537  10.028  18.354  0.00  0.00    +0.000 C 
ENDBRANCH  22  25
ENDBRANCH  18  19
BRANCH  18  27
ATOM     27  C   UNL     1       2.866   3.661  20.955  0.00  0.00    +0.000 C 
ATOM     28  O   UNL     1       1.678   3.808  21.189  0.00  0.00    +0.000 OA
BRANCH  27  29
ATOM     29  O   UNL     1       3.502   2.497  21.282  0.00  0.00    +0.000 OA
ATOM     30  H   UNL     1       3.296   1.794  20.626  0.00  0.00    +0.000 HD
ENDBRANCH  27  29
ENDBRANCH  18  27
ENDBRANCH  17  18
ENDBRANCH   6  17
TORSDOF 12
ENDMDL
MODEL 5
REMARK VINA RESULT:      -7.0      3.038      6.611
REMARK  Name = 
REMARK  16 active torsions:
REMARK  status: ('A' for Active; 'I' for Inactive)
REMARK    1  A    between atoms: C_1  and  C_2
REMARK    2  A    between atoms: C_2  and  C_3
REMARK    3  A    between atoms: C_3  and  C_4
REMARK    4  A    between atoms: C_6  and  C_7
REMARK    5  A    between atoms: C_7  and  C_9
REMARK    6  A    between atoms: C_9  and  C_10
REMARK    7  A    between atoms: C_12  and  C_13
REMARK    8  A    between atoms: C_13  and  C_14
REMARK    9  A    between atoms: C_14  and  C_15
REMARK   10  A    between atoms: C_16  and  O_17
REMARK   11  A    between atoms: O_17  and  C_18
REMARK   12  A    between atoms: C_18  and  C_19
REMARK   13  A    between atoms: C_18  and  C_22
REMARK   14  A    between atoms: C_19  and  O_21
REMARK   15  A    between atoms: C_25  and  C_26
REMARK   16  A    between atoms: C_26  and  C_27
REMARK                            x       y       z     vdW  Elec       q    Type
REMARK                         _______ _______ _______ _____ _____    ______ ____
ROOT
ATOM      1  C   UNL     1       1.399   7.729  20.932  0.00  0.00    +0.000 A 
ATOM      2  C   UNL     1       1.335   6.348  21.148  0.00  0.00    +0.000 A 
ATOM      3  C   UNL     1       1.890   5.468  20.228  0.00  0.00    +0.000 A 
ATOM      4  C   UNL     1       2.482   5.968  19.064  0.00  0.00    +0.000 A 
ATOM      5  C   UNL     1       2.531   7.353  18.779  0.00  0.00    +0.000 A 
ATOM      6  C   UNL     1       1.974   8.239  19.732  0.00  0.00    +0.000 A 
ENDROOT
BRANCH   3   7
ATOM      7  C   UNL     1       1.848   4.009  20.526  0.00  0.00    +0.000 C 
ATOM      8  O   UNL     1       1.765   3.632  21.690  0.00  0.00    +0.000 OA
BRANCH   7   9
ATOM      9  C   UNL     1       1.927   3.043  19.356  0.00  0.00    +0.000 C 
ATOM     10  C   UNL     1       0.557   2.785  18.756  0.00  0.00    +0.000 C 
ENDBRANCH   7   9
ENDBRANCH   3   7
BRANCH   1  11
ATOM     11  C   UNL     1       0.941   8.635  22.064  0.00  0.00    +0.000 C 
BRANCH  11  13
ATOM     12  C   UNL     1      -0.842  10.171  22.936  0.00  0.00    +0.000 C 
ATOM     13  C   UNL     1      -0.557   8.942  22.084  0.00  0.00    +0.000 C 
ENDBRANCH  11  13
ENDBRANCH   1  11
BRANCH   5  14
ATOM     14  C   UNL     1       3.109   7.696  17.418  0.00  0.00    +0.000 C 
BRANCH  14  15
ATOM     15  C   UNL     1       4.585   7.369  17.123  0.00  0.00    +0.000 C 
ATOM     16  C   UNL     1       4.875   6.074  16.377  0.00  0.00    +0.000 C 
ENDBRANCH  14  15
ENDBRANCH   5  14
BRANCH   6  17
ATOM     17  O   UNL     1       1.833   9.593  19.631  0.00  0.00    +0.000 OA
BRANCH  17  18
ATOM     18  C   UNL     1       1.173  10.281  18.551  0.00  0.00    +0.000 C 
BRANCH  18  19
ATOM     19  C   UNL     1      -0.348  10.407  18.488  0.00  0.00    +0.000 A 
ATOM     20  C   UNL     1      -1.070   9.650  17.548  0.00  0.00    +0.000 A 
ATOM     21  C   UNL     1      -2.445   9.823  17.373  0.00  0.00    +0.000 A 
ATOM     22  C   UNL     1      -3.143  10.745  18.153  0.00  0.00    +0.000 A 
ATOM     23  C   UNL     1      -2.461  11.429  19.158  0.00  0.00    +0.000 A 
ATOM     24  C   UNL     1      -1.091  11.232  19.346  0.00  0.00    +0.000 A 
BRANCH  22  25
ATOM     25  C   UNL     1      -4.620  10.953  17.958  0.00  0.00    +0.000 C 
ATOM     26  C   UNL     1      -4.879  11.846  16.756  0.00  0.00    +0.000 C 
ENDBRANCH  22  25
ENDBRANCH  18  19
BRANCH  18  27
ATOM     27  C   UNL     1       2.013  11.548  18.279  0.00  0.00    +0.000 C 
ATOM     28  O   UNL     1       2.091  12.548  18.974  0.00  0.00    +0.000 OA
BRANCH  27  29
ATOM     29  O   UNL     1       2.684  11.473  17.090  0.00  0.00    +0.000 OA
ATOM     30  H   UNL     1       3.135  12.323  16.893  0.00  0.00    +0.000 HD
ENDBRANCH  27  29
ENDBRANCH  18  27
ENDBRANCH  17  18
ENDBRANCH   6  17
TORSDOF 12
ENDMDL
MODEL 6
REMARK VINA RESULT:      -7.0      0.781      3.377
REMARK  Name = 
REMARK  16 active torsions:
REMARK  status: ('A' for Active; 'I' for Inactive)
REMARK    1  A    between atoms: C_1  and  C_2
REMARK    2  A    between atoms: C_2  and  C_3
REMARK    3  A    between atoms: C_3  and  C_4
REMARK    4  A    between atoms: C_6  and  C_7
REMARK    5  A    between atoms: C_7  and  C_9
REMARK    6  A    between atoms: C_9  and  C_10
REMARK    7  A    between atoms: C_12  and  C_13
REMARK    8  A    between atoms: C_13  and  C_14
REMARK    9  A    between atoms: C_14  and  C_15
REMARK   10  A    between atoms: C_16  and  O_17
REMARK   11  A    between atoms: O_17  and  C_18
REMARK   12  A    between atoms: C_18  and  C_19
REMARK   13  A    between atoms: C_18  and  C_22
REMARK   14  A    between atoms: C_19  and  O_21
REMARK   15  A    between atoms: C_25  and  C_26
REMARK   16  A    between atoms: C_26  and  C_27
REMARK                            x       y       z     vdW  Elec       q    Type
REMARK                         _______ _______ _______ _____ _____    ______ ____
ROOT
ATOM      1  C   UNL     1       4.230   3.193  17.499  0.00  0.00    +0.000 A 
ATOM      2  C   UNL     1       4.648   3.397  16.179  0.00  0.00    +0.000 A 
ATOM      3  C   UNL     1       5.712   4.246  15.905  0.00  0.00    +0.000 A 
ATOM      4  C   UNL     1       6.340   4.927  16.952  0.00  0.00    +0.000 A 
ATOM      5  C   UNL     1       5.924   4.790  18.297  0.00  0.00    +0.000 A 
ATOM      6  C   UNL     1       4.847   3.910  18.564  0.00  0.00    +0.000 A 
ENDROOT
BRANCH   3   7
ATOM      7  C   UNL     1       6.160   4.390  14.491  0.00  0.00    +0.000 C 
ATOM      8  O   UNL     1       7.098   5.135  14.227  0.00  0.00    +0.000 OA
BRANCH   7   9
ATOM      9  C   UNL     1       5.414   3.605  13.426  0.00  0.00    +0.000 C 
ATOM     10  C   UNL     1       6.283   3.355  12.208  0.00  0.00    +0.000 C 
ENDBRANCH   7   9
ENDBRANCH   3   7
BRANCH   1  11
ATOM     11  C   UNL     1       3.189   2.111  17.741  0.00  0.00    +0.000 C 
BRANCH  11  13
ATOM     12  C   UNL     1       1.587   3.958  17.172  0.00  0.00    +0.000 C 
ATOM     13  C   UNL     1       1.750   2.613  17.869  0.00  0.00    +0.000 C 
ENDBRANCH  11  13
ENDBRANCH   1  11
BRANCH   5  14
ATOM     14  C   UNL     1       6.650   5.693  19.277  0.00  0.00    +0.000 C 
BRANCH  14  15
ATOM     15  C   UNL     1       8.014   6.288  18.883  0.00  0.00    +0.000 C 
ATOM     16  C   UNL     1       8.013   7.663  18.231  0.00  0.00    +0.000 C 
ENDBRANCH  14  15
ENDBRANCH   5  14
BRANCH   6  17
ATOM     17  O   UNL     1       4.228   3.687  19.759  0.00  0.00    +0.000 OA
BRANCH  17  18
ATOM     18  C   UNL     1       3.368   4.622  20.436  0.00  0.00    +0.000 C 
BRANCH  18  19
ATOM     19  C   UNL     1       2.896   5.912  19.765  0.00  0.00    +0.000 A 
ATOM     20  C   UNL     1       2.166   6.856  20.509  0.00  0.00    +0.000 A 
ATOM     21  C   UNL     1       1.613   7.989  19.907  0.00  0.00    +0.000 A 
ATOM     22  C   UNL     1       1.795   8.222  18.544  0.00  0.00    +0.000 A 
ATOM     23  C   UNL     1       2.600   7.349  17.814  0.00  0.00    +0.000 A 
ATOM     24  C   UNL     1       3.173   6.232  18.428  0.00  0.00    +0.000 A 
BRANCH  22  25
ATOM     25  C   UNL     1       1.186   9.427  17.883  0.00  0.00    +0.000 C 
ATOM     26  C   UNL     1       1.970  10.682  18.232  0.00  0.00    +0.000 C 
ENDBRANCH  22  25
ENDBRANCH  18  19
BRANCH  18  27
ATOM     27  C   UNL     1       2.316   3.772  21.181  0.00  0.00    +0.000 C 
ATOM     28  O   UNL     1       2.518   2.940  22.051  0.00  0.00    +0.000 OA
BRANCH  27  29
ATOM     29  O   UNL     1       1.048   4.015  20.732  0.00  0.00    +0.000 OA
ATOM     30  H   UNL     1       0.391   3.843  21.442  0.00  0.00    +0.000 HD
ENDBRANCH  27  29
ENDBRANCH  18  27
ENDBRANCH  17  18
ENDBRANCH   6  17
TORSDOF 12
ENDMDL
MODEL 7
REMARK VINA RESULT:      -6.9      1.866      6.938
REMARK  Name = 
REMARK  16 active torsions:
REMARK  status: ('A' for Active; 'I' for Inactive)
REMARK    1  A    between atoms: C_1  and  C_2
REMARK    2  A    between atoms: C_2  and  C_3
REMARK    3  A    between atoms: C_3  and  C_4
REMARK    4  A    between atoms: C_6  and  C_7
REMARK    5  A    between atoms: C_7  and  C_9
REMARK    6  A    between atoms: C_9  and  C_10
REMARK    7  A    between atoms: C_12  and  C_13
REMARK    8  A    between atoms: C_13  and  C_14
REMARK    9  A    between atoms: C_14  and  C_15
REMARK   10  A    between atoms: C_16  and  O_17
REMARK   11  A    between atoms: O_17  and  C_18
REMARK   12  A    between atoms: C_18  and  C_19
REMARK   13  A    between atoms: C_18  and  C_22
REMARK   14  A    between atoms: C_19  and  O_21
REMARK   15  A    between atoms: C_25  and  C_26
REMARK   16  A    between atoms: C_26  and  C_27
REMARK                            x       y       z     vdW  Elec       q    Type
REMARK                         _______ _______ _______ _____ _____    ______ ____
ROOT
ATOM      1  C   UNL     1       2.251   6.000  19.374  0.00  0.00    +0.000 A 
ATOM      2  C   UNL     1       1.509   7.183  19.483  0.00  0.00    +0.000 A 
ATOM      3  C   UNL     1       1.891   8.316  18.777  0.00  0.00    +0.000 A 
ATOM      4  C   UNL     1       3.043   8.282  17.985  0.00  0.00    +0.000 A 
ATOM      5  C   UNL     1       3.850   7.124  17.878  0.00  0.00    +0.000 A 
ATOM      6  C   UNL     1       3.441   5.972  18.592  0.00  0.00    +0.000 A 
ENDROOT
BRANCH   3   7
ATOM      7  C   UNL     1       1.041   9.535  18.878  0.00  0.00    +0.000 C 
ATOM      8  O   UNL     1       0.422   9.924  17.894  0.00  0.00    +0.000 OA
BRANCH   7   9
ATOM      9  C   UNL     1       0.993  10.258  20.214  0.00  0.00    +0.000 C 
ATOM     10  C   UNL     1      -0.404  10.237  20.807  0.00  0.00    +0.000 C 
ENDBRANCH   7   9
ENDBRANCH   3   7
BRANCH   1  11
ATOM     11  C   UNL     1       1.671   4.752  20.022  0.00  0.00    +0.000 C 
BRANCH  11  13
ATOM     12  C   UNL     1       2.112   2.878  21.632  0.00  0.00    +0.000 C 
ATOM     13  C   UNL     1       2.302   4.364  21.360  0.00  0.00    +0.000 C 
ENDBRANCH  11  13
ENDBRANCH   1  11
BRANCH   5  14
ATOM     14  C   UNL     1       5.118   7.312  17.065  0.00  0.00    +0.000 C 
BRANCH  14  15
ATOM     15  C   UNL     1       6.485   7.126  17.750  0.00  0.00    +0.000 C 
ATOM     16  C   UNL     1       7.556   8.168  17.462  0.00  0.00    +0.000 C 
ENDBRANCH  14  15
ENDBRANCH   5  14
BRANCH   6  17
ATOM     17  O   UNL     1       4.101   4.783  18.707  0.00  0.00    +0.000 OA
BRANCH  17  18
ATOM     18  C   UNL     1       4.186   3.778  17.678  0.00  0.00    +0.000 C 
BRANCH  18  19
ATOM     19  C   UNL     1       5.064   3.966  16.442  0.00  0.00    +0.000 A 
ATOM     20  C   UNL     1       6.457   4.096  16.590  0.00  0.00    +0.000 A 
ATOM     21  C   UNL     1       7.282   4.390  15.502  0.00  0.00    +0.000 A 
ATOM     22  C   UNL     1       6.738   4.540  14.226  0.00  0.00    +0.000 A 
ATOM     23  C   UNL     1       5.374   4.316  14.045  0.00  0.00    +0.000 A 
ATOM     24  C   UNL     1       4.558   3.995  15.133  0.00  0.00    +0.000 A 
BRANCH  22  25
ATOM     25  C   UNL     1       7.615   4.878  13.052  0.00  0.00    +0.000 C 
ATOM     26  C   UNL     1       7.162   4.125  11.813  0.00  0.00    +0.000 C 
ENDBRANCH  22  25
ENDBRANCH  18  19
BRANCH  18  27
ATOM     27  C   UNL     1       4.258   2.422  18.413  0.00  0.00    +0.000 C 
ATOM     28  O   UNL     1       3.676   1.390  18.120  0.00  0.00    +0.000 OA
BRANCH  27  29
ATOM     29  O   UNL     1       5.054   2.480  19.522  0.00  0.00    +0.000 OA
ATOM     30  H   UNL     1       5.972   2.730  19.276  0.00  0.00    +0.000 HD
ENDBRANCH  27  29
ENDBRANCH  18  27
ENDBRANCH  17  18
ENDBRANCH   6  17
TORSDOF 12
ENDMDL
MODEL 8
REMARK VINA RESULT:      -6.9      4.939     10.517
REMARK  Name = 
REMARK  16 active torsions:
REMARK  status: ('A' for Active; 'I' for Inactive)
REMARK    1  A    between atoms: C_1  and  C_2
REMARK    2  A    between atoms: C_2  and  C_3
REMARK    3  A    between atoms: C_3  and  C_4
REMARK    4  A    between atoms: C_6  and  C_7
REMARK    5  A    between atoms: C_7  and  C_9
REMARK    6  A    between atoms: C_9  and  C_10
REMARK    7  A    between atoms: C_12  and  C_13
REMARK    8  A    between atoms: C_13  and  C_14
REMARK    9  A    between atoms: C_14  and  C_15
REMARK   10  A    between atoms: C_16  and  O_17
REMARK   11  A    between atoms: O_17  and  C_18
REMARK   12  A    between atoms: C_18  and  C_19
REMARK   13  A    between atoms: C_18  and  C_22
REMARK   14  A    between atoms: C_19  and  O_21
REMARK   15  A    between atoms: C_25  and  C_26
REMARK   16  A    between atoms: C_26  and  C_27
REMARK                            x       y       z     vdW  Elec       q    Type
REMARK                         _______ _______ _______ _____ _____    ______ ____
ROOT
ATOM      1  C   UNL     1      -3.126  11.000  17.613  0.00  0.00    +0.000 A 
ATOM      2  C   UNL     1      -4.509  10.873  17.791  0.00  0.00    +0.000 A 
ATOM      3  C   UNL     1      -5.142  11.517  18.845  0.00  0.00    +0.000 A 
ATOM      4  C   UNL     1      -4.385  12.266  19.752  0.00  0.00    +0.000 A 
ATOM      5  C   UNL     1      -2.980  12.387  19.641  0.00  0.00    +0.000 A 
ATOM      6  C   UNL     1      -2.349  11.736  18.554  0.00  0.00    +0.000 A 
ENDROOT
BRANCH   3   7
ATOM      7  C   UNL     1      -6.622  11.400  18.963  0.00  0.00    +0.000 C 
ATOM      8  O   UNL     1      -7.341  12.001  18.172  0.00  0.00    +0.000 OA
BRANCH   7   9
ATOM      9  C   UNL     1      -7.179  10.540  20.085  0.00  0.00    +0.000 C 
ATOM     10  C   UNL     1      -7.126   9.065  19.733  0.00  0.00    +0.000 C 
ENDBRANCH   7   9
ENDBRANCH   3   7
BRANCH   1  11
ATOM     11  C   UNL     1      -2.531  10.426  16.337  0.00  0.00    +0.000 C 
BRANCH  11  13
ATOM     12  C   UNL     1      -2.872   9.808  13.928  0.00  0.00    +0.000 C 
ATOM     13  C   UNL     1      -3.325  10.717  15.063  0.00  0.00    +0.000 C 
ENDBRANCH  11  13
ENDBRANCH   1  11
BRANCH   5  14
ATOM     14  C   UNL     1      -2.320  13.143  20.781  0.00  0.00    +0.000 C 
BRANCH  14  15
ATOM     15  C   UNL     1      -2.447  12.600  22.216  0.00  0.00    +0.000 C 
ATOM     16  C   UNL     1      -1.355  11.659  22.704  0.00  0.00    +0.000 C 
ENDBRANCH  14  15
ENDBRANCH   5  14
BRANCH   6  17
ATOM     17  O   UNL     1      -1.012  11.644  18.297  0.00  0.00    +0.000 OA
BRANCH  17  18
ATOM     18  C   UNL     1       0.012  11.440  19.288  0.00  0.00    +0.000 C 
BRANCH  18  19
ATOM     19  C   UNL     1       0.794  10.131  19.378  0.00  0.00    +0.000 A 
ATOM     20  C   UNL     1       1.488   9.656  18.251  0.00  0.00    +0.000 A 
ATOM     21  C   UNL     1       2.113   8.406  18.252  0.00  0.00    +0.000 A 
ATOM     22  C   UNL     1       2.083   7.605  19.393  0.00  0.00    +0.000 A 
ATOM     23  C   UNL     1       1.486   8.104  20.550  0.00  0.00    +0.000 A 
ATOM     24  C   UNL     1       0.886   9.365  20.550  0.00  0.00    +0.000 A 
BRANCH  22  25
ATOM     25  C   UNL     1       2.735   6.250  19.397  0.00  0.00    +0.000 C 
ATOM     26  C   UNL     1       3.200   5.877  17.999  0.00  0.00    +0.000 C 
ENDBRANCH  22  25
ENDBRANCH  18  19
BRANCH  18  27
ATOM     27  C   UNL     1       0.809  12.761  19.356  0.00  0.00    +0.000 C 
ATOM     28  O   UNL     1       0.656  13.754  18.663  0.00  0.00    +0.000 OA
BRANCH  27  29
ATOM     29  O   UNL     1       1.798  12.716  20.298  0.00  0.00    +0.000 OA
ATOM     30  H   UNL     1       2.398  13.489  20.207  0.00  0.00    +0.000 HD
ENDBRANCH  27  29
ENDBRANCH  18  27
ENDBRANCH  17  18
ENDBRANCH   6  17
TORSDOF 12
ENDMDL
MODEL 9
REMARK VINA RESULT:      -6.9      4.748     10.443
REMARK  Name = 
REMARK  16 active torsions:
REMARK  status: ('A' for Active; 'I' for Inactive)
REMARK    1  A    between atoms: C_1  and  C_2
REMARK    2  A    between atoms: C_2  and  C_3
REMARK    3  A    between atoms: C_3  and  C_4
REMARK    4  A    between atoms: C_6  and  C_7
REMARK    5  A    between atoms: C_7  and  C_9
REMARK    6  A    between atoms: C_9  and  C_10
REMARK    7  A    between atoms: C_12  and  C_13
REMARK    8  A    between atoms: C_13  and  C_14
REMARK    9  A    between atoms: C_14  and  C_15
REMARK   10  A    between atoms: C_16  and  O_17
REMARK   11  A    between atoms: O_17  and  C_18
REMARK   12  A    between atoms: C_18  and  C_19
REMARK   13  A    between atoms: C_18  and  C_22
REMARK   14  A    between atoms: C_19  and  O_21
REMARK   15  A    between atoms: C_25  and  C_26
REMARK   16  A    between atoms: C_26  and  C_27
REMARK                            x       y       z     vdW  Elec       q    Type
REMARK                         _______ _______ _______ _____ _____    ______ ____
ROOT
ATOM      1  C   UNL     1      -2.700  10.788  17.902  0.00  0.00    +0.000 A 
ATOM      2  C   UNL     1      -4.090  10.626  17.957  0.00  0.00    +0.000 A 
ATOM      3  C   UNL     1      -4.852  11.401  18.821  0.00  0.00    +0.000 A 
ATOM      4  C   UNL     1      -4.220  12.321  19.664  0.00  0.00    +0.000 A 
ATOM      5  C   UNL     1      -2.815  12.490  19.677  0.00  0.00    +0.000 A 
ATOM      6  C   UNL     1      -2.052  11.702  18.781  0.00  0.00    +0.000 A 
ENDROOT
BRANCH   3   7
ATOM      7  C   UNL     1      -6.332  11.235  18.807  0.00  0.00    +0.000 C 
ATOM      8  O   UNL     1      -6.858  10.437  19.575  0.00  0.00    +0.000 OA
BRANCH   7   9
ATOM      9  C   UNL     1      -7.130  12.065  17.815  0.00  0.00    +0.000 C 
ATOM     10  C   UNL     1      -7.794  13.251  18.490  0.00  0.00    +0.000 C 
ENDBRANCH   7   9
ENDBRANCH   3   7
BRANCH   1  11
ATOM     11  C   UNL     1      -1.954  10.044  16.805  0.00  0.00    +0.000 C 
BRANCH  11  13
ATOM     12  C   UNL     1      -3.007  10.337  14.545  0.00  0.00    +0.000 C 
ATOM     13  C   UNL     1      -2.842   9.403  15.737  0.00  0.00    +0.000 C 
ENDBRANCH  11  13
ENDBRANCH   1  11
BRANCH   5  14
ATOM     14  C   UNL     1      -2.305  13.449  20.736  0.00  0.00    +0.000 C 
BRANCH  14  15
ATOM     15  C   UNL     1      -2.840  13.335  22.175  0.00  0.00    +0.000 C 
ATOM     16  C   UNL     1      -2.393  12.132  22.992  0.00  0.00    +0.000 C 
ENDBRANCH  14  15
ENDBRANCH   5  14
BRANCH   6  17
ATOM     17  O   UNL     1      -0.692  11.634  18.680  0.00  0.00    +0.000 OA
BRANCH  17  18
ATOM     18  C   UNL     1       0.184  11.034  19.652  0.00  0.00    +0.000 C 
BRANCH  18  19
ATOM     19  C   UNL     1       1.013   9.792  19.330  0.00  0.00    +0.000 A 
ATOM     20  C   UNL     1       1.595   9.655  18.057  0.00  0.00    +0.000 A 
ATOM     21  C   UNL     1       2.257   8.484  17.679  0.00  0.00    +0.000 A 
ATOM     22  C   UNL     1       2.377   7.423  18.576  0.00  0.00    +0.000 A 
ATOM     23  C   UNL     1       1.894   7.581  19.874  0.00  0.00    +0.000 A 
ATOM     24  C   UNL     1       1.256   8.765  20.254  0.00  0.00    +0.000 A 
BRANCH  22  25
ATOM     25  C   UNL     1       3.069   6.150  18.172  0.00  0.00    +0.000 C 
ATOM     26  C   UNL     1       2.290   4.940  18.662  0.00  0.00    +0.000 C 
ENDBRANCH  22  25
ENDBRANCH  18  19
BRANCH  18  27
ATOM     27  C   UNL     1       0.890  12.206  20.369  0.00  0.00    +0.000 C 
ATOM     28  O   UNL     1       1.410  13.183  19.853  0.00  0.00    +0.000 OA
BRANCH  27  29
ATOM     29  O   UNL     1       0.925  12.033  21.724  0.00  0.00    +0.000 OA
ATOM     30  H   UNL     1       0.495  12.790  22.180  0.00  0.00    +0.000 HD
ENDBRANCH  27  29
ENDBRANCH  18  27
ENDBRANCH  17  18
ENDBRANCH   6  17
TORSDOF 12
ENDMDL
