MODEL 1
REMARK VINA RESULT:      -7.0      0.000      0.000
REMARK  Name = 
REMARK  4 active torsions:
REMARK  status: ('A' for Active; 'I' for Inactive)
REMARK    1  A    between atoms: C_2  and  C_3
REMARK    2  A    between atoms: C_3  and  C_4
REMARK    3  A    between atoms: C_13  and  C_14
REMARK    4  A    between atoms: C_14  and  N_15
REMARK                            x       y       z     vdW  Elec       q    Type
REMARK                         _______ _______ _______ _____ _____    ______ ____
ROOT
ATOM      1  O   UNL     1       5.069   3.053  19.734  0.00  0.00    +0.000 OA
ATOM      2  C   UNL     1       4.707   3.748  18.784  0.00  0.00    +0.000 C 
ATOM      3  N   UNL     1       3.458   4.298  18.726  0.00  0.00    +0.000 N 
ATOM      4  C   UNL     1       2.804   5.239  17.843  0.00  0.00    +0.000 C 
ATOM      5  C   UNL     1       2.084   5.770  19.102  0.00  0.00    +0.000 C 
ATOM      6  C   UNL     1       2.476   4.440  19.786  0.00  0.00    +0.000 C 
ENDROOT
BRANCH   2   7
ATOM      7  C   UNL     1       5.640   4.057  17.626  0.00  0.00    +0.000 C 
BRANCH   7   8
ATOM      8  C   UNL     1       6.350   5.385  17.772  0.00  0.00    +0.000 A 
ATOM      9  C   UNL     1       7.461   5.513  18.622  0.00  0.00    +0.000 A 
ATOM     10  C   UNL     1       8.131   6.733  18.741  0.00  0.00    +0.000 A 
ATOM     11  C   UNL     1       7.700   7.832  18.003  0.00  0.00    +0.000 A 
ATOM     12 BR   UNL     1       8.613   9.481  18.150  0.00  0.00    +0.000 Br
ATOM     13  C   UNL     1       6.604   7.722  17.150  0.00  0.00    +0.000 A 
ATOM     14  C   UNL     1       5.934   6.501  17.033  0.00  0.00    +0.000 A 
ENDBRANCH   7   8
ENDBRANCH   2   7
BRANCH   5  15
ATOM     15  C   UNL     1       2.727   7.052  19.624  0.00  0.00    +0.000 C 
BRANCH  15  16
ATOM     16  N   UNL     1       1.796   8.158  19.457  0.00  0.00    +0.000 N 
ATOM     17  C   UNL     1       1.102   8.714  20.491  0.00  0.00    +0.000 C 
ATOM     18  O   UNL     1       1.101   8.352  21.657  0.00  0.00    +0.000 OA
ATOM     19  C   UNL     1       0.321   9.888  19.977  0.00  0.00    +0.000 C 
ATOM     20  C   UNL     1       0.851  10.103  18.574  0.00  0.00    +0.000 C 
ATOM     21  C   UNL     1       1.753   8.930  18.332  0.00  0.00    +0.000 C 
ATOM     22  O   UNL     1       2.374   8.745  17.297  0.00  0.00    +0.000 OA
ENDBRANCH  15  16
ENDBRANCH   5  15
TORSDOF 4
ENDMDL
MODEL 2
REMARK VINA RESULT:      -7.0      0.272      1.065
REMARK  Name = 
REMARK  4 active torsions:
REMARK  status: ('A' for Active; 'I' for Inactive)
REMARK    1  A    between atoms: C_2  and  C_3
REMARK    2  A    between atoms: C_3  and  C_4
REMARK    3  A    between atoms: C_13  and  C_14
REMARK    4  A    between atoms: C_14  and  N_15
REMARK                            x       y       z     vdW  Elec       q    Type
REMARK                         _______ _______ _______ _____ _____    ______ ____
ROOT
ATOM      1  O   UNL     1       4.806   2.942  19.929  0.00  0.00    +0.000 OA
ATOM      2  C   UNL     1       4.454   3.606  18.954  0.00  0.00    +0.000 C 
ATOM      3  N   UNL     1       3.232   4.214  18.897  0.00  0.00    +0.000 N 
ATOM      4  C   UNL     1       2.602   5.142  17.983  0.00  0.00    +0.000 C 
ATOM      5  C   UNL     1       1.942   5.770  19.230  0.00  0.00    +0.000 C 
ATOM      6  C   UNL     1       2.285   4.457  19.971  0.00  0.00    +0.000 C 
ENDROOT
BRANCH   2   7
ATOM      7  C   UNL     1       5.371   3.810  17.761  0.00  0.00    +0.000 C 
BRANCH   7   8
ATOM      8  C   UNL     1       6.137   5.113  17.815  0.00  0.00    +0.000 A 
ATOM      9  C   UNL     1       5.738   6.211  17.035  0.00  0.00    +0.000 A 
ATOM     10  C   UNL     1       6.430   7.423  17.102  0.00  0.00    +0.000 A 
ATOM     11  C   UNL     1       7.522   7.547  17.956  0.00  0.00    +0.000 A 
ATOM     12 BR   UNL     1       8.454   9.189  18.059  0.00  0.00    +0.000 Br
ATOM     13  C   UNL     1       7.929   6.472  18.742  0.00  0.00    +0.000 A 
ATOM     14  C   UNL     1       7.236   5.260  18.674  0.00  0.00    +0.000 A 
ENDBRANCH   7   8
ENDBRANCH   2   7
BRANCH   5  15
ATOM     15  C   UNL     1       2.659   7.043  19.671  0.00  0.00    +0.000 C 
BRANCH  15  16
ATOM     16  N   UNL     1       1.752   8.173  19.546  0.00  0.00    +0.000 N 
ATOM     17  C   UNL     1       1.138   8.760  20.612  0.00  0.00    +0.000 C 
ATOM     18  O   UNL     1       1.197   8.411  21.782  0.00  0.00    +0.000 OA
ATOM     19  C   UNL     1       0.360   9.950  20.132  0.00  0.00    +0.000 C 
ATOM     20  C   UNL     1       0.810  10.135  18.697  0.00  0.00    +0.000 C 
ATOM     21  C   UNL     1       1.662   8.934  18.416  0.00  0.00    +0.000 C 
ATOM     22  O   UNL     1       2.215   8.719  17.348  0.00  0.00    +0.000 OA
ENDBRANCH  15  16
ENDBRANCH   5  15
TORSDOF 4
ENDMDL
MODEL 3
REMARK VINA RESULT:      -6.8      1.266      1.815
REMARK  Name = 
REMARK  4 active torsions:
REMARK  status: ('A' for Active; 'I' for Inactive)
REMARK    1  A    between atoms: C_2  and  C_3
REMARK    2  A    between atoms: C_3  and  C_4
REMARK    3  A    between atoms: C_13  and  C_14
REMARK    4  A    between atoms: C_14  and  N_15
REMARK                            x       y       z     vdW  Elec       q    Type
REMARK                         _______ _______ _______ _____ _____    ______ ____
ROOT
ATOM      1  O   UNL     1       3.860   1.745  19.411  0.00  0.00    +0.000 OA
ATOM      2  C   UNL     1       3.440   2.601  18.631  0.00  0.00    +0.000 C 
ATOM      3  N   UNL     1       2.342   3.362  18.917  0.00  0.00    +0.000 N 
ATOM      4  C   UNL     1       1.705   4.500  18.292  0.00  0.00    +0.000 C 
ATOM      5  C   UNL     1       1.401   4.993  19.724  0.00  0.00    +0.000 C 
ATOM      6  C   UNL     1       1.666   3.543  20.191  0.00  0.00    +0.000 C 
ENDROOT
BRANCH   2   7
ATOM      7  C   UNL     1       4.134   2.880  17.310  0.00  0.00    +0.000 C 
BRANCH   7   8
ATOM      8  C   UNL     1       5.031   4.098  17.356  0.00  0.00    +0.000 A 
ATOM      9  C   UNL     1       5.266   4.857  16.198  0.00  0.00    +0.000 A 
ATOM     10  C   UNL     1       6.075   5.995  16.243  0.00  0.00    +0.000 A 
ATOM     11  C   UNL     1       6.649   6.386  17.450  0.00  0.00    +0.000 A 
ATOM     12 BR   UNL     1       7.733   7.933  17.518  0.00  0.00    +0.000 Br
ATOM     13  C   UNL     1       6.422   5.649  18.609  0.00  0.00    +0.000 A 
ATOM     14  C   UNL     1       5.613   4.511  18.563  0.00  0.00    +0.000 A 
ENDBRANCH   7   8
ENDBRANCH   2   7
BRANCH   5  15
ATOM     15  C   UNL     1       2.382   6.073  20.173  0.00  0.00    +0.000 C 
BRANCH  15  16
ATOM     16  N   UNL     1       1.955   7.359  19.644  0.00  0.00    +0.000 N 
ATOM     17  C   UNL     1       1.270   8.280  20.381  0.00  0.00    +0.000 C 
ATOM     18  O   UNL     1       0.869   8.155  21.528  0.00  0.00    +0.000 OA
ATOM     19  C   UNL     1       1.083   9.520  19.558  0.00  0.00    +0.000 C 
ATOM     20  C   UNL     1       1.970   9.303  18.349  0.00  0.00    +0.000 C 
ATOM     21  C   UNL     1       2.446   7.888  18.486  0.00  0.00    +0.000 C 
ATOM     22  O   UNL     1       3.192   7.336  17.692  0.00  0.00    +0.000 OA
ENDBRANCH  15  16
ENDBRANCH   5  15
TORSDOF 4
ENDMDL
MODEL 4
REMARK VINA RESULT:      -6.8      0.709      2.064
REMARK  Name = 
REMARK  4 active torsions:
REMARK  status: ('A' for Active; 'I' for Inactive)
REMARK    1  A    between atoms: C_2  and  C_3
REMARK    2  A    between atoms: C_3  and  C_4
REMARK    3  A    between atoms: C_13  and  C_14
REMARK    4  A    between atoms: C_14  and  N_15
REMARK                            x       y       z     vdW  Elec       q    Type
REMARK                         _______ _______ _______ _____ _____    ______ ____
ROOT
ATOM      1  O   UNL     1       4.145   2.444  19.475  0.00  0.00    +0.000 OA
ATOM      2  C   UNL     1       3.832   3.248  18.595  0.00  0.00    +0.000 C 
ATOM      3  N   UNL     1       2.707   4.017  18.687  0.00  0.00    +0.000 N 
ATOM      4  C   UNL     1       2.159   5.110  17.914  0.00  0.00    +0.000 C 
ATOM      5  C   UNL     1       1.670   5.688  19.260  0.00  0.00    +0.000 C 
ATOM      6  C   UNL     1       1.869   4.272  19.846  0.00  0.00    +0.000 C 
ENDROOT
BRANCH   2   7
ATOM      7  C   UNL     1       4.695   3.450  17.362  0.00  0.00    +0.000 C 
BRANCH   7   8
ATOM      8  C   UNL     1       5.550   4.696  17.433  0.00  0.00    +0.000 A 
ATOM      9  C   UNL     1       5.190   5.852  16.720  0.00  0.00    +0.000 A 
ATOM     10  C   UNL     1       5.966   7.010  16.802  0.00  0.00    +0.000 A 
ATOM     11  C   UNL     1       7.103   7.024  17.606  0.00  0.00    +0.000 A 
ATOM     12 BR   UNL     1       8.149   8.594  17.730  0.00  0.00    +0.000 Br
ATOM     13  C   UNL     1       7.472   5.890  18.324  0.00  0.00    +0.000 A 
ATOM     14  C   UNL     1       6.696   4.730  18.241  0.00  0.00    +0.000 A 
ENDBRANCH   7   8
ENDBRANCH   2   7
BRANCH   5  15
ATOM     15  C   UNL     1       2.584   6.801  19.766  0.00  0.00    +0.000 C 
BRANCH  15  16
ATOM     16  N   UNL     1       1.932   8.085  19.567  0.00  0.00    +0.000 N 
ATOM     17  C   UNL     1       1.931   8.746  18.374  0.00  0.00    +0.000 C 
ATOM     18  O   UNL     1       2.502   8.414  17.346  0.00  0.00    +0.000 OA
ATOM     19  C   UNL     1       1.086   9.980  18.502  0.00  0.00    +0.000 C 
ATOM     20  C   UNL     1       0.386   9.816  19.835  0.00  0.00    +0.000 C 
ATOM     21  C   UNL     1       1.022   8.602  20.443  0.00  0.00    +0.000 C 
ATOM     22  O   UNL     1       0.722   8.144  21.535  0.00  0.00    +0.000 OA
ENDBRANCH  15  16
ENDBRANCH   5  15
TORSDOF 4
ENDMDL
MODEL 5
REMARK VINA RESULT:      -6.8      4.085      7.794
REMARK  Name = 
REMARK  4 active torsions:
REMARK  status: ('A' for Active; 'I' for Inactive)
REMARK    1  A    between atoms: C_2  and  C_3
REMARK    2  A    between atoms: C_3  and  C_4
REMARK    3  A    between atoms: C_13  and  C_14
REMARK    4  A    between atoms: C_14  and  N_15
REMARK                            x       y       z     vdW  Elec       q    Type
REMARK                         _______ _______ _______ _____ _____    ______ ____
ROOT
ATOM      1  O   UNL     1       0.340   9.096  20.507  0.00  0.00    +0.000 OA
ATOM      2  C   UNL     1       1.010   9.060  19.474  0.00  0.00    +0.000 C 
ATOM      3  N   UNL     1       2.010   8.148  19.293  0.00  0.00    +0.000 N 
ATOM      4  C   UNL     1       2.855   7.776  18.179  0.00  0.00    +0.000 C 
ATOM      5  C   UNL     1       2.749   6.329  18.708  0.00  0.00    +0.000 C 
ATOM      6  C   UNL     1       2.291   6.942  20.052  0.00  0.00    +0.000 C 
ENDROOT
BRANCH   2   7
ATOM      7  C   UNL     1       0.746  10.017  18.325  0.00  0.00    +0.000 C 
BRANCH   7   8
ATOM      8  C   UNL     1      -0.714  10.388  18.184  0.00  0.00    +0.000 A 
ATOM      9  C   UNL     1      -1.252  11.465  18.908  0.00  0.00    +0.000 A 
ATOM     10  C   UNL     1      -2.594  11.823  18.762  0.00  0.00    +0.000 A 
ATOM     11  C   UNL     1      -3.406  11.112  17.883  0.00  0.00    +0.000 A 
ATOM     12 BR   UNL     1      -5.220  11.603  17.671  0.00  0.00    +0.000 Br
ATOM     13  C   UNL     1      -2.889  10.046  17.151  0.00  0.00    +0.000 A 
ATOM     14  C   UNL     1      -1.546   9.687  17.299  0.00  0.00    +0.000 A 
ENDBRANCH   7   8
ENDBRANCH   2   7
BRANCH   5  15
ATOM     15  C   UNL     1       1.731   5.509  17.920  0.00  0.00    +0.000 C 
BRANCH  15  16
ATOM     16  N   UNL     1       1.985   4.093  18.135  0.00  0.00    +0.000 N 
ATOM     17  C   UNL     1       2.984   3.409  17.507  0.00  0.00    +0.000 C 
ATOM     18  O   UNL     1       3.750   3.838  16.657  0.00  0.00    +0.000 OA
ATOM     19  C   UNL     1       3.021   2.006  18.037  0.00  0.00    +0.000 C 
ATOM     20  C   UNL     1       2.094   2.035  19.235  0.00  0.00    +0.000 C 
ATOM     21  C   UNL     1       1.463   3.394  19.185  0.00  0.00    +0.000 C 
ATOM     22  O   UNL     1       0.644   3.800  19.995  0.00  0.00    +0.000 OA
ENDBRANCH  15  16
ENDBRANCH   5  15
TORSDOF 4
ENDMDL
MODEL 6
REMARK VINA RESULT:      -6.7      3.763      5.400
REMARK  Name = 
REMARK  4 active torsions:
REMARK  status: ('A' for Active; 'I' for Inactive)
REMARK    1  A    between atoms: C_2  and  C_3
REMARK    2  A    between atoms: C_3  and  C_4
REMARK    3  A    between atoms: C_13  and  C_14
REMARK    4  A    between atoms: C_14  and  N_15
REMARK                            x       y       z     vdW  Elec       q    Type
REMARK                         _______ _______ _______ _____ _____    ______ ____
ROOT
ATOM      1  O   UNL     1       5.249   7.288  16.209  0.00  0.00    +0.000 OA
ATOM      2  C   UNL     1       5.966   6.453  16.761  0.00  0.00    +0.000 C 
ATOM      3  N   UNL     1       5.718   6.013  18.029  0.00  0.00    +0.000 N 
ATOM      4  C   UNL     1       6.275   4.976  18.871  0.00  0.00    +0.000 C 
ATOM      5  C   UNL     1       4.838   4.769  19.399  0.00  0.00    +0.000 C 
ATOM      6  C   UNL     1       4.515   6.169  18.829  0.00  0.00    +0.000 C 
ENDROOT
BRANCH   2   7
ATOM      7  C   UNL     1       7.161   5.842  16.051  0.00  0.00    +0.000 C 
BRANCH   7   8
ATOM      8  C   UNL     1       6.774   4.985  14.865  0.00  0.00    +0.000 A 
ATOM      9  C   UNL     1       7.515   5.037  13.672  0.00  0.00    +0.000 A 
ATOM     10  C   UNL     1       7.173   4.230  12.585  0.00  0.00    +0.000 A 
ATOM     11  C   UNL     1       6.092   3.359  12.685  0.00  0.00    +0.000 A 
ATOM     12 BR   UNL     1       5.634   2.255  11.220  0.00  0.00    +0.000 Br
ATOM     13  C   UNL     1       5.349   3.289  13.861  0.00  0.00    +0.000 A 
ATOM     14  C   UNL     1       5.692   4.097  14.949  0.00  0.00    +0.000 A 
ENDBRANCH   7   8
ENDBRANCH   2   7
BRANCH   5  15
ATOM     15  C   UNL     1       4.162   3.565  18.749  0.00  0.00    +0.000 C 
BRANCH  15  16
ATOM     16  N   UNL     1       2.920   3.277  19.448  0.00  0.00    +0.000 N 
ATOM     17  C   UNL     1       2.873   2.703  20.684  0.00  0.00    +0.000 C 
ATOM     18  O   UNL     1       3.817   2.300  21.345  0.00  0.00    +0.000 OA
ATOM     19  C   UNL     1       1.444   2.646  21.140  0.00  0.00    +0.000 C 
ATOM     20  C   UNL     1       0.697   3.494  20.132  0.00  0.00    +0.000 C 
ATOM     21  C   UNL     1       1.719   3.813  19.082  0.00  0.00    +0.000 C 
ATOM     22  O   UNL     1       1.494   4.488  18.089  0.00  0.00    +0.000 OA
ENDBRANCH  15  16
ENDBRANCH   5  15
TORSDOF 4
ENDMDL
MODEL 7
REMARK VINA RESULT:      -6.7      1.266      1.565
REMARK  Name = 
REMARK  4 active torsions:
REMARK  status: ('A' for Active; 'I' for Inactive)
REMARK    1  A    between atoms: C_2  and  C_3
REMARK    2  A    between atoms: C_3  and  C_4
REMARK    3  A    between atoms: C_13  and  C_14
REMARK    4  A    between atoms: C_14  and  N_15
REMARK                            x       y       z     vdW  Elec       q    Type
REMARK                         _______ _______ _______ _____ _____    ______ ____
ROOT
ATOM      1  O   UNL     1       3.589   1.883  19.863  0.00  0.00    +0.000 OA
ATOM      2  C   UNL     1       3.242   2.683  18.993  0.00  0.00    +0.000 C 
ATOM      3  N   UNL     1       2.172   3.514  19.162  0.00  0.00    +0.000 N 
ATOM      4  C   UNL     1       1.617   4.619  18.411  0.00  0.00    +0.000 C 
ATOM      5  C   UNL     1       1.280   5.252  19.779  0.00  0.00    +0.000 C 
ATOM      6  C   UNL     1       1.455   3.840  20.383  0.00  0.00    +0.000 C 
ENDROOT
BRANCH   2   7
ATOM      7  C   UNL     1       4.003   2.810  17.685  0.00  0.00    +0.000 C 
BRANCH   7   8
ATOM      8  C   UNL     1       4.870   4.048  17.620  0.00  0.00    +0.000 A 
ATOM      9  C   UNL     1       5.637   4.444  18.728  0.00  0.00    +0.000 A 
ATOM     10  C   UNL     1       6.456   5.573  18.662  0.00  0.00    +0.000 A 
ATOM     11  C   UNL     1       6.520   6.311  17.482  0.00  0.00    +0.000 A 
ATOM     12 BR   UNL     1       7.638   7.833  17.384  0.00  0.00    +0.000 Br
ATOM     13  C   UNL     1       5.772   5.930  16.372  0.00  0.00    +0.000 A 
ATOM     14  C   UNL     1       4.952   4.800  16.439  0.00  0.00    +0.000 A 
ENDBRANCH   7   8
ENDBRANCH   2   7
BRANCH   5  15
ATOM     15  C   UNL     1       2.293   6.323  20.174  0.00  0.00    +0.000 C 
BRANCH  15  16
ATOM     16  N   UNL     1       1.824   7.620  19.712  0.00  0.00    +0.000 N 
ATOM     17  C   UNL     1       1.172   8.509  20.515  0.00  0.00    +0.000 C 
ATOM     18  O   UNL     1       0.838   8.343  21.678  0.00  0.00    +0.000 OA
ATOM     19  C   UNL     1       0.927   9.773  19.745  0.00  0.00    +0.000 C 
ATOM     20  C   UNL     1       1.748   9.605  18.482  0.00  0.00    +0.000 C 
ATOM     21  C   UNL     1       2.244   8.192  18.545  0.00  0.00    +0.000 C 
ATOM     22  O   UNL     1       2.950   7.674  17.694  0.00  0.00    +0.000 OA
ENDBRANCH  15  16
ENDBRANCH   5  15
TORSDOF 4
ENDMDL
MODEL 8
REMARK VINA RESULT:      -6.7      3.826      5.655
REMARK  Name = 
REMARK  4 active torsions:
REMARK  status: ('A' for Active; 'I' for Inactive)
REMARK    1  A    between atoms: C_2  and  C_3
REMARK    2  A    between atoms: C_3  and  C_4
REMARK    3  A    between atoms: C_13  and  C_14
REMARK    4  A    between atoms: C_14  and  N_15
REMARK                            x       y       z     vdW  Elec       q    Type
REMARK                         _______ _______ _______ _____ _____    ______ ____
ROOT
ATOM      1  O   UNL     1       4.748   7.085  16.246  0.00  0.00    +0.000 OA
ATOM      2  C   UNL     1       5.613   6.406  16.802  0.00  0.00    +0.000 C 
ATOM      3  N   UNL     1       5.479   5.984  18.094  0.00  0.00    +0.000 N 
ATOM      4  C   UNL     1       6.228   5.092  18.952  0.00  0.00    +0.000 C 
ATOM      5  C   UNL     1       4.862   4.668  19.538  0.00  0.00    +0.000 C 
ATOM      6  C   UNL     1       4.290   5.969  18.929  0.00  0.00    +0.000 C 
ENDROOT
BRANCH   2   7
ATOM      7  C   UNL     1       6.873   5.976  16.073  0.00  0.00    +0.000 C 
BRANCH   7   8
ATOM      8  C   UNL     1       6.597   5.082  14.884  0.00  0.00    +0.000 A 
ATOM      9  C   UNL     1       7.440   5.103  13.761  0.00  0.00    +0.000 A 
ATOM     10  C   UNL     1       7.199   4.261  12.672  0.00  0.00    +0.000 A 
ATOM     11  C   UNL     1       6.117   3.386  12.703  0.00  0.00    +0.000 A 
ATOM     12 BR   UNL     1       5.796   2.235  11.238  0.00  0.00    +0.000 Br
ATOM     13  C   UNL     1       5.274   3.346  13.811  0.00  0.00    +0.000 A 
ATOM     14  C   UNL     1       5.515   4.189  14.899  0.00  0.00    +0.000 A 
ENDBRANCH   7   8
ENDBRANCH   2   7
BRANCH   5  15
ATOM     15  C   UNL     1       4.382   3.341  18.955  0.00  0.00    +0.000 C 
BRANCH  15  16
ATOM     16  N   UNL     1       2.980   3.150  19.289  0.00  0.00    +0.000 N 
ATOM     17  C   UNL     1       1.991   3.084  18.352  0.00  0.00    +0.000 C 
ATOM     18  O   UNL     1       2.108   3.231  17.145  0.00  0.00    +0.000 OA
ATOM     19  C   UNL     1       0.690   2.782  19.037  0.00  0.00    +0.000 C 
ATOM     20  C   UNL     1       1.091   2.421  20.454  0.00  0.00    +0.000 C 
ATOM     21  C   UNL     1       2.558   2.723  20.515  0.00  0.00    +0.000 C 
ATOM     22  O   UNL     1       3.250   2.561  21.508  0.00  0.00    +0.000 OA
ENDBRANCH  15  16
ENDBRANCH   5  15
TORSDOF 4
ENDMDL
MODEL 9
REMARK VINA RESULT:      -6.7      3.771      5.388
REMARK  Name = 
REMARK  4 active torsions:
REMARK  status: ('A' for Active; 'I' for Inactive)
REMARK    1  A    between atoms: C_2  and  C_3
REMARK    2  A    between atoms: C_3  and  C_4
REMARK    3  A    between atoms: C_13  and  C_14
REMARK    4  A    between atoms: C_14  and  N_15
REMARK                            x       y       z     vdW  Elec       q    Type
REMARK                         _______ _______ _______ _____ _____    ______ ____
ROOT
ATOM      1  O   UNL     1       4.737   7.142  16.181  0.00  0.00    +0.000 OA
ATOM      2  C   UNL     1       5.561   6.441  16.770  0.00  0.00    +0.000 C 
ATOM      3  N   UNL     1       5.361   6.013  18.052  0.00  0.00    +0.000 N 
ATOM      4  C   UNL     1       6.051   5.100  18.936  0.00  0.00    +0.000 C 
ATOM      5  C   UNL     1       4.652   4.701  19.456  0.00  0.00    +0.000 C 
ATOM      6  C   UNL     1       4.135   6.017  18.832  0.00  0.00    +0.000 C 
ENDROOT
BRANCH   2   7
ATOM      7  C   UNL     1       6.845   5.990  16.096  0.00  0.00    +0.000 C 
BRANCH   7   8
ATOM      8  C   UNL     1       6.605   5.074  14.915  0.00  0.00    +0.000 A 
ATOM      9  C   UNL     1       5.510   4.195  14.902  0.00  0.00    +0.000 A 
ATOM     10  C   UNL     1       5.274   3.365  13.804  0.00  0.00    +0.000 A 
ATOM     11  C   UNL     1       6.129   3.415  12.706  0.00  0.00    +0.000 A 
ATOM     12 BR   UNL     1       5.806   2.303  11.211  0.00  0.00    +0.000 Br
ATOM     13  C   UNL     1       7.217   4.284  12.698  0.00  0.00    +0.000 A 
ATOM     14  C   UNL     1       7.452   5.114  13.798  0.00  0.00    +0.000 A 
ENDBRANCH   7   8
ENDBRANCH   2   7
BRANCH   5  15
ATOM     15  C   UNL     1       4.172   3.388  18.843  0.00  0.00    +0.000 C 
BRANCH  15  16
ATOM     16  N   UNL     1       2.849   3.074  19.357  0.00  0.00    +0.000 N 
ATOM     17  C   UNL     1       2.617   2.705  20.650  0.00  0.00    +0.000 C 
ATOM     18  O   UNL     1       3.450   2.526  21.526  0.00  0.00    +0.000 OA
ATOM     19  C   UNL     1       1.138   2.557  20.857  0.00  0.00    +0.000 C 
ATOM     20  C   UNL     1       0.526   3.139  19.599  0.00  0.00    +0.000 C 
ATOM     21  C   UNL     1       1.697   3.401  18.701  0.00  0.00    +0.000 C 
ATOM     22  O   UNL     1       1.609   3.876  17.579  0.00  0.00    +0.000 OA
ENDBRANCH  15  16
ENDBRANCH   5  15
TORSDOF 4
ENDMDL
