MODEL 1
REMARK VINA RESULT:      -6.9      0.000      0.000
REMARK  Name = 
REMARK  3 active torsions:
REMARK  status: ('A' for Active; 'I' for Inactive)
REMARK    1  A    between atoms: C_1  and  C_2
REMARK    2  A    between atoms: C_9  and  O_10
REMARK    3  A    between atoms: C_20  and  O_21
REMARK                            x       y       z     vdW  Elec       q    Type
REMARK                         _______ _______ _______ _____ _____    ______ ____
ROOT
ATOM      1  C   UNL     1       1.246   4.123  18.766  0.00  0.00    +0.000 C 
ATOM      2  C   UNL     1       2.619   4.559  19.315  0.00  0.00    +0.000 C 
ATOM      3  C   UNL     1       2.488   5.076  20.762  0.00  0.00    +0.000 C 
ATOM      4  C   UNL     1       1.633   6.322  20.882  0.00  0.00    +0.000 C 
ATOM      5  C   UNL     1       2.177   7.489  20.043  0.00  0.00    +0.000 C 
ATOM      6  C   UNL     1       1.160   8.640  19.931  0.00  0.00    +0.000 A 
ATOM      7  C   UNL     1       0.221   8.883  20.954  0.00  0.00    +0.000 A 
ATOM      8  C   UNL     1      -0.788   9.834  20.802  0.00  0.00    +0.000 A 
ATOM      9  C   UNL     1      -0.868  10.566  19.634  0.00  0.00    +0.000 A 
ATOM     10  C   UNL     1       0.076  10.396  18.627  0.00  0.00    +0.000 A 
ATOM     11  C   UNL     1       1.109   9.446  18.770  0.00  0.00    +0.000 A 
ATOM     12  C   UNL     1       2.077   9.250  17.615  0.00  0.00    +0.000 C 
ATOM     13  C   UNL     1       3.202   8.238  17.901  0.00  0.00    +0.000 C 
ATOM     14  C   UNL     1       2.564   7.041  18.609  0.00  0.00    +0.000 C 
ATOM     15  C   UNL     1       3.197   5.656  18.379  0.00  0.00    +0.000 C 
ATOM     16  C   UNL     1       4.698   5.345  18.290  0.00  0.00    +0.000 C 
ATOM     17  C   UNL     1       4.706   3.801  18.238  0.00  0.00    +0.000 C 
ATOM     18 BR   UNL     1       4.159   3.122  16.481  0.00  0.00    +0.000 Br
ATOM     19  C   UNL     1       3.698   3.434  19.329  0.00  0.00    +0.000 C 
ENDROOT
BRANCH   9  20
ATOM     20  O   UNL     1      -1.869  11.479  19.437  0.00  0.00    +0.000 OA
ATOM     21  H   UNL     1      -2.228  11.738  20.307  0.00  0.00    +0.000 HD
ENDBRANCH   9  20
BRANCH  19  22
ATOM     22  O   UNL     1       3.203   2.109  19.324  0.00  0.00    +0.000 OA
ATOM     23  H   UNL     1       3.944   1.488  19.241  0.00  0.00    +0.000 HD
ENDBRANCH  19  22
TORSDOF 2
ENDMDL
MODEL 2
REMARK VINA RESULT:      -6.9      2.773      6.786
REMARK  Name = 
REMARK  3 active torsions:
REMARK  status: ('A' for Active; 'I' for Inactive)
REMARK    1  A    between atoms: C_1  and  C_2
REMARK    2  A    between atoms: C_9  and  O_10
REMARK    3  A    between atoms: C_20  and  O_21
REMARK                            x       y       z     vdW  Elec       q    Type
REMARK                         _______ _______ _______ _____ _____    ______ ____
ROOT
ATOM      1  C   UNL     1      -0.314   9.634  17.742  0.00  0.00    +0.000 C 
ATOM      2  C   UNL     1       0.888  10.135  18.566  0.00  0.00    +0.000 C 
ATOM      3  C   UNL     1       2.212   9.850  17.828  0.00  0.00    +0.000 C 
ATOM      4  C   UNL     1       2.489   8.370  17.640  0.00  0.00    +0.000 C 
ATOM      5  C   UNL     1       2.553   7.612  18.974  0.00  0.00    +0.000 C 
ATOM      6  C   UNL     1       2.536   6.085  18.768  0.00  0.00    +0.000 A 
ATOM      7  C   UNL     1       3.064   5.502  17.598  0.00  0.00    +0.000 A 
ATOM      8  C   UNL     1       2.931   4.138  17.344  0.00  0.00    +0.000 A 
ATOM      9  C   UNL     1       2.282   3.331  18.258  0.00  0.00    +0.000 A 
ATOM     10  C   UNL     1       1.802   3.859  19.451  0.00  0.00    +0.000 A 
ATOM     11  C   UNL     1       1.938   5.236  19.728  0.00  0.00    +0.000 A 
ATOM     12  C   UNL     1       1.336   5.778  21.015  0.00  0.00    +0.000 C 
ATOM     13  C   UNL     1       1.598   7.277  21.249  0.00  0.00    +0.000 C 
ATOM     14  C   UNL     1       1.377   7.989  19.913  0.00  0.00    +0.000 C 
ATOM     15  C   UNL     1       0.859   9.438  19.954  0.00  0.00    +0.000 C 
ATOM     16  C   UNL     1       1.283  10.528  20.950  0.00  0.00    +0.000 C 
ATOM     17  C   UNL     1       0.576  11.779  20.381  0.00  0.00    +0.000 C 
ATOM     18 BR   UNL     1      -1.350  11.769  20.755  0.00  0.00    +0.000 Br
ATOM     19  C   UNL     1       0.865  11.662  18.883  0.00  0.00    +0.000 C 
ENDROOT
BRANCH   9  20
ATOM     20  O   UNL     1       2.102   1.995  18.021  0.00  0.00    +0.000 OA
ATOM     21  H   UNL     1       1.159   1.840  17.818  0.00  0.00    +0.000 HD
ENDBRANCH   9  20
BRANCH  19  22
ATOM     22  O   UNL     1       0.079  12.456  18.015  0.00  0.00    +0.000 OA
ATOM     23  H   UNL     1      -0.047  11.986  17.174  0.00  0.00    +0.000 HD
ENDBRANCH  19  22
TORSDOF 2
ENDMDL
MODEL 3
REMARK VINA RESULT:      -6.9      9.679     10.787
REMARK  Name = 
REMARK  3 active torsions:
REMARK  status: ('A' for Active; 'I' for Inactive)
REMARK    1  A    between atoms: C_1  and  C_2
REMARK    2  A    between atoms: C_9  and  O_10
REMARK    3  A    between atoms: C_20  and  O_21
REMARK                            x       y       z     vdW  Elec       q    Type
REMARK                         _______ _______ _______ _____ _____    ______ ____
ROOT
ATOM      1  C   UNL     1       8.955  13.073  18.200  0.00  0.00    +0.000 C 
ATOM      2  C   UNL     1      10.349  12.929  18.843  0.00  0.00    +0.000 C 
ATOM      3  C   UNL     1      10.457  11.600  19.618  0.00  0.00    +0.000 C 
ATOM      4  C   UNL     1       9.501  11.508  20.792  0.00  0.00    +0.000 C 
ATOM      5  C   UNL     1       9.718  12.635  21.813  0.00  0.00    +0.000 C 
ATOM      6  C   UNL     1       8.569  12.713  22.836  0.00  0.00    +0.000 A 
ATOM      7  C   UNL     1       7.837  11.564  23.197  0.00  0.00    +0.000 A 
ATOM      8  C   UNL     1       6.712  11.648  24.017  0.00  0.00    +0.000 A 
ATOM      9  C   UNL     1       6.307  12.877  24.500  0.00  0.00    +0.000 A 
ATOM     10  C   UNL     1       7.039  14.024  24.215  0.00  0.00    +0.000 A 
ATOM     11  C   UNL     1       8.186  13.954  23.396  0.00  0.00    +0.000 A 
ATOM     12  C   UNL     1       8.913  15.245  23.057  0.00  0.00    +0.000 C 
ATOM     13  C   UNL     1      10.186  15.048  22.212  0.00  0.00    +0.000 C 
ATOM     14  C   UNL     1       9.854  14.020  21.128  0.00  0.00    +0.000 C 
ATOM     15  C   UNL     1      10.588  14.145  19.780  0.00  0.00    +0.000 C 
ATOM     16  C   UNL     1      12.065  14.512  19.578  0.00  0.00    +0.000 C 
ATOM     17  C   UNL     1      12.247  14.298  18.059  0.00  0.00    +0.000 C 
ATOM     18 BR   UNL     1      11.437  15.744  17.011  0.00  0.00    +0.000 Br
ATOM     19  C   UNL     1      11.535  12.962  17.832  0.00  0.00    +0.000 C 
ENDROOT
BRANCH   9  20
ATOM     20  O   UNL     1       5.186  12.999  25.275  0.00  0.00    +0.000 OA
ATOM     21  H   UNL     1       5.019  12.144  25.717  0.00  0.00    +0.000 HD
ENDBRANCH   9  20
BRANCH  19  22
ATOM     22  O   UNL     1      11.211  12.628  16.496  0.00  0.00    +0.000 OA
ATOM     23  H   UNL     1      11.425  11.695  16.336  0.00  0.00    +0.000 HD
ENDBRANCH  19  22
TORSDOF 2
ENDMDL
MODEL 4
REMARK VINA RESULT:      -6.8      2.930      7.033
REMARK  Name = 
REMARK  3 active torsions:
REMARK  status: ('A' for Active; 'I' for Inactive)
REMARK    1  A    between atoms: C_1  and  C_2
REMARK    2  A    between atoms: C_9  and  O_10
REMARK    3  A    between atoms: C_20  and  O_21
REMARK                            x       y       z     vdW  Elec       q    Type
REMARK                         _______ _______ _______ _____ _____    ______ ____
ROOT
ATOM      1  C   UNL     1      -1.028  10.121  17.808  0.00  0.00    +0.000 C 
ATOM      2  C   UNL     1       0.123  10.868  18.511  0.00  0.00    +0.000 C 
ATOM      3  C   UNL     1       1.455  10.640  17.769  0.00  0.00    +0.000 C 
ATOM      4  C   UNL     1       1.904   9.192  17.770  0.00  0.00    +0.000 C 
ATOM      5  C   UNL     1       2.088   8.637  19.190  0.00  0.00    +0.000 C 
ATOM      6  C   UNL     1       2.251   7.105  19.192  0.00  0.00    +0.000 A 
ATOM      7  C   UNL     1       2.820   6.432  18.092  0.00  0.00    +0.000 A 
ATOM      8  C   UNL     1       2.847   5.039  18.028  0.00  0.00    +0.000 A 
ATOM      9  C   UNL     1       2.321   4.296  19.066  0.00  0.00    +0.000 A 
ATOM     10  C   UNL     1       1.806   4.924  20.195  0.00  0.00    +0.000 A 
ATOM     11  C   UNL     1       1.781   6.332  20.280  0.00  0.00    +0.000 A 
ATOM     12  C   UNL     1       1.146   6.973  21.504  0.00  0.00    +0.000 C 
ATOM     13  C   UNL     1       1.230   8.510  21.524  0.00  0.00    +0.000 C 
ATOM     14  C   UNL     1       0.896   9.000  20.114  0.00  0.00    +0.000 C 
ATOM     15  C   UNL     1       0.208  10.371  19.980  0.00  0.00    +0.000 C 
ATOM     16  C   UNL     1       0.518  11.630  20.803  0.00  0.00    +0.000 C 
ATOM     17  C   UNL     1      -0.347  12.699  20.099  0.00  0.00    +0.000 C 
ATOM     18 BR   UNL     1      -2.248  12.516  20.544  0.00  0.00    +0.000 Br
ATOM     19  C   UNL     1      -0.078  12.411  18.620  0.00  0.00    +0.000 C 
ENDROOT
BRANCH   9  20
ATOM     20  O   UNL     1       2.298   2.928  19.018  0.00  0.00    +0.000 OA
ATOM     21  H   UNL     1       2.892   2.633  18.302  0.00  0.00    +0.000 HD
ENDBRANCH   9  20
BRANCH  19  22
ATOM     22  O   UNL     1      -0.972  12.981  17.684  0.00  0.00    +0.000 OA
ATOM     23  H   UNL     1      -1.033  13.938  17.837  0.00  0.00    +0.000 HD
ENDBRANCH  19  22
TORSDOF 2
ENDMDL
MODEL 5
REMARK VINA RESULT:      -6.5      2.868      6.547
REMARK  Name = 
REMARK  3 active torsions:
REMARK  status: ('A' for Active; 'I' for Inactive)
REMARK    1  A    between atoms: C_1  and  C_2
REMARK    2  A    between atoms: C_9  and  O_10
REMARK    3  A    between atoms: C_20  and  O_21
REMARK                            x       y       z     vdW  Elec       q    Type
REMARK                         _______ _______ _______ _____ _____    ______ ____
ROOT
ATOM      1  C   UNL     1       1.968   9.488  22.360  0.00  0.00    +0.000 C 
ATOM      2  C   UNL     1       0.713   9.289  21.488  0.00  0.00    +0.000 C 
ATOM      3  C   UNL     1       0.168   7.854  21.636  0.00  0.00    +0.000 C 
ATOM      4  C   UNL     1       1.130   6.791  21.140  0.00  0.00    +0.000 C 
ATOM      5  C   UNL     1       1.495   6.976  19.659  0.00  0.00    +0.000 C 
ATOM      6  C   UNL     1       2.684   6.089  19.245  0.00  0.00    +0.000 A 
ATOM      7  C   UNL     1       2.930   4.857  19.885  0.00  0.00    +0.000 A 
ATOM      8  C   UNL     1       4.078   4.113  19.611  0.00  0.00    +0.000 A 
ATOM      9  C   UNL     1       4.990   4.579  18.685  0.00  0.00    +0.000 A 
ATOM     10  C   UNL     1       4.752   5.760  17.990  0.00  0.00    +0.000 A 
ATOM     11  C   UNL     1       3.591   6.518  18.248  0.00  0.00    +0.000 A 
ATOM     12  C   UNL     1       3.408   7.836  17.513  0.00  0.00    +0.000 C 
ATOM     13  C   UNL     1       2.078   8.549  17.820  0.00  0.00    +0.000 C 
ATOM     14  C   UNL     1       1.850   8.449  19.329  0.00  0.00    +0.000 C 
ATOM     15  C   UNL     1       1.084   9.598  20.011  0.00  0.00    +0.000 C 
ATOM     16  C   UNL     1      -0.135  10.341  19.447  0.00  0.00    +0.000 C 
ATOM     17  C   UNL     1      -0.553  11.230  20.639  0.00  0.00    +0.000 C 
ATOM     18 BR   UNL     1       0.647  12.764  20.868  0.00  0.00    +0.000 Br
ATOM     19  C   UNL     1      -0.464  10.257  21.817  0.00  0.00    +0.000 C 
ENDROOT
BRANCH   9  20
ATOM     20  O   UNL     1       6.145   3.893  18.421  0.00  0.00    +0.000 OA
ATOM     21  H   UNL     1       6.771   4.043  19.155  0.00  0.00    +0.000 HD
ENDBRANCH   9  20
BRANCH  19  22
ATOM     22  O   UNL     1      -0.450  10.822  23.114  0.00  0.00    +0.000 OA
ATOM     23  H   UNL     1       0.280  11.458  23.180  0.00  0.00    +0.000 HD
ENDBRANCH  19  22
TORSDOF 2
ENDMDL
MODEL 6
REMARK VINA RESULT:      -6.3      9.566     11.308
REMARK  Name = 
REMARK  3 active torsions:
REMARK  status: ('A' for Active; 'I' for Inactive)
REMARK    1  A    between atoms: C_1  and  C_2
REMARK    2  A    between atoms: C_9  and  O_10
REMARK    3  A    between atoms: C_20  and  O_21
REMARK                            x       y       z     vdW  Elec       q    Type
REMARK                         _______ _______ _______ _____ _____    ______ ____
ROOT
ATOM      1  C   UNL     1       6.868  14.458  22.302  0.00  0.00    +0.000 C 
ATOM      2  C   UNL     1       7.978  13.870  23.194  0.00  0.00    +0.000 C 
ATOM      3  C   UNL     1       9.234  14.764  23.163  0.00  0.00    +0.000 C 
ATOM      4  C   UNL     1       9.876  14.854  21.792  0.00  0.00    +0.000 C 
ATOM      5  C   UNL     1      10.298  13.479  21.252  0.00  0.00    +0.000 C 
ATOM      6  C   UNL     1      10.669  13.538  19.758  0.00  0.00    +0.000 A 
ATOM      7  C   UNL     1      11.194  14.713  19.184  0.00  0.00    +0.000 A 
ATOM      8  C   UNL     1      11.405  14.818  17.809  0.00  0.00    +0.000 A 
ATOM      9  C   UNL     1      11.110  13.748  16.988  0.00  0.00    +0.000 A 
ATOM     10  C   UNL     1      10.648  12.551  17.525  0.00  0.00    +0.000 A 
ATOM     11  C   UNL     1      10.439  12.425  18.915  0.00  0.00    +0.000 A 
ATOM     12  C   UNL     1       9.869  11.121  19.446  0.00  0.00    +0.000 C 
ATOM     13  C   UNL     1       9.743  11.067  20.980  0.00  0.00    +0.000 C 
ATOM     14  C   UNL     1       9.182  12.417  21.434  0.00  0.00    +0.000 C 
ATOM     15  C   UNL     1       8.301  12.434  22.697  0.00  0.00    +0.000 C 
ATOM     16  C   UNL     1       8.529  11.617  23.977  0.00  0.00    +0.000 C 
ATOM     17  C   UNL     1       7.449  12.189  24.923  0.00  0.00    +0.000 C 
ATOM     18 BR   UNL     1       5.656  11.537  24.470  0.00  0.00    +0.000 Br
ATOM     19  C   UNL     1       7.582  13.696  24.692  0.00  0.00    +0.000 C 
ENDROOT
BRANCH   9  20
ATOM     20  O   UNL     1      11.270  13.831  15.631  0.00  0.00    +0.000 OA
ATOM     21  H   UNL     1      10.922  13.013  15.227  0.00  0.00    +0.000 HD
ENDBRANCH   9  20
BRANCH  19  22
ATOM     22  O   UNL     1       6.515  14.509  25.142  0.00  0.00    +0.000 OA
ATOM     23  H   UNL     1       6.768  14.942  25.973  0.00  0.00    +0.000 HD
ENDBRANCH  19  22
TORSDOF 2
ENDMDL
MODEL 7
REMARK VINA RESULT:      -6.2     10.641     12.191
REMARK  Name = 
REMARK  3 active torsions:
REMARK  status: ('A' for Active; 'I' for Inactive)
REMARK    1  A    between atoms: C_1  and  C_2
REMARK    2  A    between atoms: C_9  and  O_10
REMARK    3  A    between atoms: C_20  and  O_21
REMARK                            x       y       z     vdW  Elec       q    Type
REMARK                         _______ _______ _______ _____ _____    ______ ____
ROOT
ATOM      1  C   UNL     1       8.802  15.435  17.909  0.00  0.00    +0.000 C 
ATOM      2  C   UNL     1      10.301  15.230  18.206  0.00  0.00    +0.000 C 
ATOM      3  C   UNL     1      10.622  13.731  18.379  0.00  0.00    +0.000 C 
ATOM      4  C   UNL     1       9.923  13.100  19.567  0.00  0.00    +0.000 C 
ATOM      5  C   UNL     1      10.285  13.786  20.893  0.00  0.00    +0.000 C 
ATOM      6  C   UNL     1       9.359  13.343  22.041  0.00  0.00    +0.000 A 
ATOM      7  C   UNL     1       8.768  12.064  22.047  0.00  0.00    +0.000 A 
ATOM      8  C   UNL     1       7.824  11.705  23.010  0.00  0.00    +0.000 A 
ATOM      9  C   UNL     1       7.467  12.610  23.989  0.00  0.00    +0.000 A 
ATOM     10  C   UNL     1       8.073  13.860  24.051  0.00  0.00    +0.000 A 
ATOM     11  C   UNL     1       9.037  14.235  23.091  0.00  0.00    +0.000 A 
ATOM     12  C   UNL     1       9.622  15.636  23.161  0.00  0.00    +0.000 C 
ATOM     13  C   UNL     1      10.710  15.917  22.108  0.00  0.00    +0.000 C 
ATOM     14  C   UNL     1      10.218  15.332  20.783  0.00  0.00    +0.000 C 
ATOM     15  C   UNL     1      10.664  16.032  19.486  0.00  0.00    +0.000 C 
ATOM     16  C   UNL     1      12.053  16.620  19.200  0.00  0.00    +0.000 C 
ATOM     17  C   UNL     1      11.941  17.006  17.708  0.00  0.00    +0.000 C 
ATOM     18 BR   UNL     1      10.872  18.631  17.448  0.00  0.00    +0.000 Br
ATOM     19  C   UNL     1      11.260  15.776  17.105  0.00  0.00    +0.000 C 
ENDROOT
BRANCH   9  20
ATOM     20  O   UNL     1       6.517  12.303  24.925  0.00  0.00    +0.000 OA
ATOM     21  H   UNL     1       6.270  13.121  25.397  0.00  0.00    +0.000 HD
ENDBRANCH   9  20
BRANCH  19  22
ATOM     22  O   UNL     1      10.694  15.923  15.816  0.00  0.00    +0.000 OA
ATOM     23  H   UNL     1      10.719  16.859  15.559  0.00  0.00    +0.000 HD
ENDBRANCH  19  22
TORSDOF 2
ENDMDL
MODEL 8
REMARK VINA RESULT:      -6.0      3.995      8.223
REMARK  Name = 
REMARK  3 active torsions:
REMARK  status: ('A' for Active; 'I' for Inactive)
REMARK    1  A    between atoms: C_1  and  C_2
REMARK    2  A    between atoms: C_9  and  O_10
REMARK    3  A    between atoms: C_20  and  O_21
REMARK                            x       y       z     vdW  Elec       q    Type
REMARK                         _______ _______ _______ _____ _____    ______ ____
ROOT
ATOM      1  C   UNL     1      -2.937  11.858  19.369  0.00  0.00    +0.000 C 
ATOM      2  C   UNL     1      -1.971  12.752  20.172  0.00  0.00    +0.000 C 
ATOM      3  C   UNL     1      -0.793  13.210  19.289  0.00  0.00    +0.000 C 
ATOM      4  C   UNL     1       0.080  12.067  18.808  0.00  0.00    +0.000 C 
ATOM      5  C   UNL     1       0.684  11.262  19.969  0.00  0.00    +0.000 C 
ATOM      6  C   UNL     1       1.316   9.943  19.486  0.00  0.00    +0.000 A 
ATOM      7  C   UNL     1       1.856   9.826  18.189  0.00  0.00    +0.000 A 
ATOM      8  C   UNL     1       2.306   8.601  17.698  0.00  0.00    +0.000 A 
ATOM      9  C   UNL     1       2.237   7.476  18.497  0.00  0.00    +0.000 A 
ATOM     10  C   UNL     1       1.766   7.564  19.802  0.00  0.00    +0.000 A 
ATOM     11  C   UNL     1       1.317   8.799  20.318  0.00  0.00    +0.000 A 
ATOM     12  C   UNL     1       0.748   8.831  21.727  0.00  0.00    +0.000 C 
ATOM     13  C   UNL     1       0.349  10.236  22.212  0.00  0.00    +0.000 C 
ATOM     14  C   UNL     1      -0.373  10.927  21.054  0.00  0.00    +0.000 C 
ATOM     15  C   UNL     1      -1.468  11.951  21.405  0.00  0.00    +0.000 C 
ATOM     16  C   UNL     1      -1.423  12.976  22.547  0.00  0.00    +0.000 C 
ATOM     17  C   UNL     1      -2.692  13.816  22.279  0.00  0.00    +0.000 C 
ATOM     18 BR   UNL     1      -4.326  12.864  22.800  0.00  0.00    +0.000 Br
ATOM     19  C   UNL     1      -2.620  14.038  20.766  0.00  0.00    +0.000 C 
ENDROOT
BRANCH   9  20
ATOM     20  O   UNL     1       2.635   6.252  18.032  0.00  0.00    +0.000 OA
ATOM     21  H   UNL     1       3.554   6.093  18.321  0.00  0.00    +0.000 HD
ENDBRANCH   9  20
BRANCH  19  22
ATOM     22  O   UNL     1      -3.803  14.479  20.127  0.00  0.00    +0.000 OA
ATOM     23  H   UNL     1      -3.674  15.384  19.799  0.00  0.00    +0.000 HD
ENDBRANCH  19  22
TORSDOF 2
ENDMDL
MODEL 9
REMARK VINA RESULT:      -5.9      6.795      8.763
REMARK  Name = 
REMARK  3 active torsions:
REMARK  status: ('A' for Active; 'I' for Inactive)
REMARK    1  A    between atoms: C_1  and  C_2
REMARK    2  A    between atoms: C_9  and  O_10
REMARK    3  A    between atoms: C_20  and  O_21
REMARK                            x       y       z     vdW  Elec       q    Type
REMARK                         _______ _______ _______ _____ _____    ______ ____
ROOT
ATOM      1  C   UNL     1      -0.178  13.954  19.732  0.00  0.00    +0.000 C 
ATOM      2  C   UNL     1      -0.798  13.038  20.806  0.00  0.00    +0.000 C 
ATOM      3  C   UNL     1      -0.346  11.578  20.605  0.00  0.00    +0.000 C 
ATOM      4  C   UNL     1      -0.818  10.977  19.295  0.00  0.00    +0.000 C 
ATOM      5  C   UNL     1      -2.348  10.989  19.162  0.00  0.00    +0.000 C 
ATOM      6  C   UNL     1      -2.804  10.659  17.728  0.00  0.00    +0.000 A 
ATOM      7  C   UNL     1      -2.029   9.831  16.891  0.00  0.00    +0.000 A 
ATOM      8  C   UNL     1      -2.363   9.636  15.551  0.00  0.00    +0.000 A 
ATOM      9  C   UNL     1      -3.483  10.254  15.029  0.00  0.00    +0.000 A 
ATOM     10  C   UNL     1      -4.305  11.029  15.839  0.00  0.00    +0.000 A 
ATOM     11  C   UNL     1      -3.986  11.226  17.199  0.00  0.00    +0.000 A 
ATOM     12  C   UNL     1      -4.878  12.137  18.027  0.00  0.00    +0.000 C 
ATOM     13  C   UNL     1      -4.478  12.231  19.511  0.00  0.00    +0.000 C 
ATOM     14  C   UNL     1      -2.954  12.360  19.561  0.00  0.00    +0.000 C 
ATOM     15  C   UNL     1      -2.345  13.162  20.726  0.00  0.00    +0.000 C 
ATOM     16  C   UNL     1      -2.817  13.147  22.187  0.00  0.00    +0.000 C 
ATOM     17  C   UNL     1      -1.725  13.986  22.888  0.00  0.00    +0.000 C 
ATOM     18 BR   UNL     1      -1.930  15.904  22.531  0.00  0.00    +0.000 Br
ATOM     19  C   UNL     1      -0.441  13.426  22.273  0.00  0.00    +0.000 C 
ENDROOT
BRANCH   9  20
ATOM     20  O   UNL     1      -3.817  10.115  13.709  0.00  0.00    +0.000 OA
ATOM     21  H   UNL     1      -3.678   9.184  13.449  0.00  0.00    +0.000 HD
ENDBRANCH   9  20
BRANCH  19  22
ATOM     22  O   UNL     1       0.735  14.197  22.435  0.00  0.00    +0.000 OA
ATOM     23  H   UNL     1       0.624  15.051  21.987  0.00  0.00    +0.000 HD
ENDBRANCH  19  22
TORSDOF 2
ENDMDL
