MODEL 1
REMARK VINA RESULT:      -7.7      0.000      0.000
REMARK  Name = 
REMARK  8 active torsions:
REMARK  status: ('A' for Active; 'I' for Inactive)
REMARK    1  A    between atoms: C_1  and  O_2
REMARK    2  A    between atoms: O_2  and  C_3
REMARK    3  A    between atoms: C_9  and  N_10
REMARK    4  A    between atoms: N_10  and  C_11
REMARK    5  A    between atoms: C_11  and  C_12
REMARK    6  A    between atoms: C_12  and  C_13
REMARK    7  A    between atoms: C_13  and  C_14
REMARK    8  A    between atoms: C_13  and  C_15
REMARK                            x       y       z     vdW  Elec       q    Type
REMARK                         _______ _______ _______ _____ _____    ______ ____
ROOT
ATOM      1  C   UNL     1       2.400   4.395  19.795  0.00  0.00    +0.000 A 
ATOM      2  O   UNL     1       2.771   3.147  19.238  0.00  0.00    +0.000 OA
ATOM      3  C   UNL     1       3.477   3.034  18.081  0.00  0.00    +0.000 A 
ATOM      4  O   UNL     1       3.741   1.942  17.590  0.00  0.00    +0.000 OA
ATOM      5  C   UNL     1       3.936   4.295  17.458  0.00  0.00    +0.000 A 
ATOM      6  C   UNL     1       4.772   4.217  16.330  0.00  0.00    +0.000 A 
ATOM      7  C   UNL     1       5.323   5.368  15.763  0.00  0.00    +0.000 A 
ATOM      8  C   UNL     1       4.947   6.602  16.298  0.00  0.00    +0.000 A 
ATOM      9  C   UNL     1       4.093   6.685  17.404  0.00  0.00    +0.000 A 
ATOM     10  C   UNL     1       3.587   5.530  18.015  0.00  0.00    +0.000 A 
ATOM     11  C   UNL     1       2.751   5.556  19.217  0.00  0.00    +0.000 A 
ATOM     12 CL   UNL     1       2.262   7.072  19.897  0.00  0.00    +0.000 Cl
ENDROOT
BRANCH   1  14
ATOM     13  C   UNL     1       1.679   3.148  21.640  0.00  0.00    +0.000 C 
ATOM     14  O   UNL     1       1.641   4.398  20.957  0.00  0.00    +0.000 OA
ENDBRANCH   1  14
BRANCH   7  15
ATOM     15  N   UNL     1       6.248   5.218  14.729  0.00  0.00    +0.000 N 
ATOM     16  H   UNL     1       7.105   5.743  14.895  0.00  0.00    +0.000 HD
BRANCH  15  17
ATOM     17  C   UNL     1       6.451   3.893  14.157  0.00  0.00    +0.000 C 
BRANCH  17  18
ATOM     18  C   UNL     1       6.231   3.941  12.645  0.00  0.00    +0.000 C 
BRANCH  18  19
ATOM     19  C   UNL     1       5.292   2.825  12.143  0.00  0.00    +0.000 C 
ATOM     20  C   UNL     1       4.171   3.357  11.244  0.00  0.00    +0.000 C 
ATOM     21  C   UNL     1       6.095   1.770  11.380  0.00  0.00    +0.000 C 
ENDBRANCH  18  19
ENDBRANCH  17  18
ENDBRANCH  15  17
ENDBRANCH   7  15
TORSDOF 5
ENDMDL
MODEL 2
REMARK VINA RESULT:      -7.7      4.029      6.485
REMARK  Name = 
REMARK  8 active torsions:
REMARK  status: ('A' for Active; 'I' for Inactive)
REMARK    1  A    between atoms: C_1  and  O_2
REMARK    2  A    between atoms: O_2  and  C_3
REMARK    3  A    between atoms: C_9  and  N_10
REMARK    4  A    between atoms: N_10  and  C_11
REMARK    5  A    between atoms: C_11  and  C_12
REMARK    6  A    between atoms: C_12  and  C_13
REMARK    7  A    between atoms: C_13  and  C_14
REMARK    8  A    between atoms: C_13  and  C_15
REMARK                            x       y       z     vdW  Elec       q    Type
REMARK                         _______ _______ _______ _____ _____    ______ ____
ROOT
ATOM      1  C   UNL     1       7.404   7.016  17.903  0.00  0.00    +0.000 A 
ATOM      2  O   UNL     1       6.636   7.284  16.745  0.00  0.00    +0.000 OA
ATOM      3  C   UNL     1       5.609   6.490  16.338  0.00  0.00    +0.000 A 
ATOM      4  O   UNL     1       4.992   6.714  15.303  0.00  0.00    +0.000 OA
ATOM      5  C   UNL     1       5.254   5.359  17.223  0.00  0.00    +0.000 A 
ATOM      6  C   UNL     1       4.123   4.589  16.901  0.00  0.00    +0.000 A 
ATOM      7  C   UNL     1       3.676   3.577  17.753  0.00  0.00    +0.000 A 
ATOM      8  C   UNL     1       4.440   3.297  18.889  0.00  0.00    +0.000 A 
ATOM      9  C   UNL     1       5.584   4.043  19.198  0.00  0.00    +0.000 A 
ATOM     10  C   UNL     1       6.000   5.100  18.378  0.00  0.00    +0.000 A 
ATOM     11  C   UNL     1       7.143   5.960  18.693  0.00  0.00    +0.000 A 
ATOM     12 CL   UNL     1       8.114   5.630  20.088  0.00  0.00    +0.000 Cl
ENDROOT
BRANCH   1  14
ATOM     13  C   UNL     1       8.153   9.234  17.950  0.00  0.00    +0.000 C 
ATOM     14  O   UNL     1       8.459   7.865  18.204  0.00  0.00    +0.000 OA
ENDBRANCH   1  14
BRANCH   7  15
ATOM     15  N   UNL     1       2.475   2.936  17.448  0.00  0.00    +0.000 N 
ATOM     16  H   UNL     1       2.517   2.433  16.563  0.00  0.00    +0.000 HD
BRANCH  15  17
ATOM     17  C   UNL     1       1.766   2.233  18.510  0.00  0.00    +0.000 C 
BRANCH  17  18
ATOM     18  C   UNL     1       0.652   3.120  19.066  0.00  0.00    +0.000 C 
BRANCH  18  19
ATOM     19  C   UNL     1       0.932   3.598  20.505  0.00  0.00    +0.000 C 
ATOM     20  C   UNL     1       1.789   2.608  21.301  0.00  0.00    +0.000 C 
ATOM     21  C   UNL     1       1.627   4.961  20.477  0.00  0.00    +0.000 C 
ENDBRANCH  18  19
ENDBRANCH  17  18
ENDBRANCH  15  17
ENDBRANCH   7  15
TORSDOF 5
ENDMDL
MODEL 3
REMARK VINA RESULT:      -7.4      3.689      6.356
REMARK  Name = 
REMARK  8 active torsions:
REMARK  status: ('A' for Active; 'I' for Inactive)
REMARK    1  A    between atoms: C_1  and  O_2
REMARK    2  A    between atoms: O_2  and  C_3
REMARK    3  A    between atoms: C_9  and  N_10
REMARK    4  A    between atoms: N_10  and  C_11
REMARK    5  A    between atoms: C_11  and  C_12
REMARK    6  A    between atoms: C_12  and  C_13
REMARK    7  A    between atoms: C_13  and  C_14
REMARK    8  A    between atoms: C_13  and  C_15
REMARK                            x       y       z     vdW  Elec       q    Type
REMARK                         _______ _______ _______ _____ _____    ______ ____
ROOT
ATOM      1  C   UNL     1       7.078   6.141  16.990  0.00  0.00    +0.000 A 
ATOM      2  O   UNL     1       6.387   5.845  15.791  0.00  0.00    +0.000 OA
ATOM      3  C   UNL     1       5.448   4.864  15.700  0.00  0.00    +0.000 A 
ATOM      4  O   UNL     1       4.901   4.591  14.638  0.00  0.00    +0.000 OA
ATOM      5  C   UNL     1       5.099   4.163  16.955  0.00  0.00    +0.000 A 
ATOM      6  C   UNL     1       4.047   3.230  16.928  0.00  0.00    +0.000 A 
ATOM      7  C   UNL     1       3.601   2.616  18.100  0.00  0.00    +0.000 A 
ATOM      8  C   UNL     1       4.290   2.891  19.283  0.00  0.00    +0.000 A 
ATOM      9  C   UNL     1       5.356   3.799  19.309  0.00  0.00    +0.000 A 
ATOM     10  C   UNL     1       5.766   4.465  18.147  0.00  0.00    +0.000 A 
ATOM     11  C   UNL     1       6.824   5.478  18.131  0.00  0.00    +0.000 A 
ATOM     12 CL   UNL     1       7.701   5.833  19.581  0.00  0.00    +0.000 Cl
ENDROOT
BRANCH   1  14
ATOM     13  C   UNL     1       7.637   8.324  17.625  0.00  0.00    +0.000 C 
ATOM     14  O   UNL     1       8.049   7.131  16.963  0.00  0.00    +0.000 OA
ENDBRANCH   1  14
BRANCH   7  15
ATOM     15  N   UNL     1       2.471   1.800  18.031  0.00  0.00    +0.000 N 
ATOM     16  H   UNL     1       2.666   0.840  18.311  0.00  0.00    +0.000 HD
BRANCH  15  17
ATOM     17  C   UNL     1       1.199   2.323  18.515  0.00  0.00    +0.000 C 
BRANCH  17  18
ATOM     18  C   UNL     1       1.326   3.820  18.794  0.00  0.00    +0.000 C 
BRANCH  18  19
ATOM     19  C   UNL     1       1.031   4.181  20.264  0.00  0.00    +0.000 C 
ATOM     20  C   UNL     1       1.292   3.014  21.222  0.00  0.00    +0.000 C 
ATOM     21  C   UNL     1       1.879   5.383  20.687  0.00  0.00    +0.000 C 
ENDBRANCH  18  19
ENDBRANCH  17  18
ENDBRANCH  15  17
ENDBRANCH   7  15
TORSDOF 5
ENDMDL
MODEL 4
REMARK VINA RESULT:      -7.1      4.055      6.531
REMARK  Name = 
REMARK  8 active torsions:
REMARK  status: ('A' for Active; 'I' for Inactive)
REMARK    1  A    between atoms: C_1  and  O_2
REMARK    2  A    between atoms: O_2  and  C_3
REMARK    3  A    between atoms: C_9  and  N_10
REMARK    4  A    between atoms: N_10  and  C_11
REMARK    5  A    between atoms: C_11  and  C_12
REMARK    6  A    between atoms: C_12  and  C_13
REMARK    7  A    between atoms: C_13  and  C_14
REMARK    8  A    between atoms: C_13  and  C_15
REMARK                            x       y       z     vdW  Elec       q    Type
REMARK                         _______ _______ _______ _____ _____    ______ ____
ROOT
ATOM      1  C   UNL     1       7.060   7.049  17.457  0.00  0.00    +0.000 A 
ATOM      2  O   UNL     1       7.620   6.558  18.661  0.00  0.00    +0.000 OA
ATOM      3  C   UNL     1       7.061   5.545  19.378  0.00  0.00    +0.000 A 
ATOM      4  O   UNL     1       7.536   5.173  20.445  0.00  0.00    +0.000 OA
ATOM      5  C   UNL     1       5.869   4.897  18.791  0.00  0.00    +0.000 A 
ATOM      6  C   UNL     1       5.336   3.768  19.439  0.00  0.00    +0.000 A 
ATOM      7  C   UNL     1       4.278   3.050  18.878  0.00  0.00    +0.000 A 
ATOM      8  C   UNL     1       3.711   3.540  17.699  0.00  0.00    +0.000 A 
ATOM      9  C   UNL     1       4.221   4.679  17.065  0.00  0.00    +0.000 A 
ATOM     10  C   UNL     1       5.322   5.367  17.592  0.00  0.00    +0.000 A 
ATOM     11  C   UNL     1       5.942   6.518  16.933  0.00  0.00    +0.000 A 
ATOM     12 CL   UNL     1       5.255   7.153  15.475  0.00  0.00    +0.000 Cl
ENDROOT
BRANCH   1  14
ATOM     13  C   UNL     1       8.117   9.118  17.744  0.00  0.00    +0.000 C 
ATOM     14  O   UNL     1       7.685   8.116  16.828  0.00  0.00    +0.000 OA
ENDBRANCH   1  14
BRANCH   7  15
ATOM     15  N   UNL     1       3.879   1.865  19.498  0.00  0.00    +0.000 N 
ATOM     16  H   UNL     1       4.602   1.482  20.105  0.00  0.00    +0.000 HD
BRANCH  15  17
ATOM     17  C   UNL     1       2.528   1.779  20.038  0.00  0.00    +0.000 C 
BRANCH  17  18
ATOM     18  C   UNL     1       2.348   2.807  21.155  0.00  0.00    +0.000 C 
BRANCH  18  19
ATOM     19  C   UNL     1       1.295   3.881  20.814  0.00  0.00    +0.000 C 
ATOM     20  C   UNL     1       1.908   5.275  20.643  0.00  0.00    +0.000 C 
ATOM     21  C   UNL     1       0.549   3.495  19.536  0.00  0.00    +0.000 C 
ENDBRANCH  18  19
ENDBRANCH  17  18
ENDBRANCH  15  17
ENDBRANCH   7  15
TORSDOF 5
ENDMDL
MODEL 5
REMARK VINA RESULT:      -7.0      2.454      3.522
REMARK  Name = 
REMARK  8 active torsions:
REMARK  status: ('A' for Active; 'I' for Inactive)
REMARK    1  A    between atoms: C_1  and  O_2
REMARK    2  A    between atoms: O_2  and  C_3
REMARK    3  A    between atoms: C_9  and  N_10
REMARK    4  A    between atoms: N_10  and  C_11
REMARK    5  A    between atoms: C_11  and  C_12
REMARK    6  A    between atoms: C_12  and  C_13
REMARK    7  A    between atoms: C_13  and  C_14
REMARK    8  A    between atoms: C_13  and  C_15
REMARK                            x       y       z     vdW  Elec       q    Type
REMARK                         _______ _______ _______ _____ _____    ______ ____
ROOT
ATOM      1  C   UNL     1       1.744   3.560  19.911  0.00  0.00    +0.000 A 
ATOM      2  O   UNL     1       2.254   2.494  19.132  0.00  0.00    +0.000 OA
ATOM      3  C   UNL     1       3.037   2.687  18.035  0.00  0.00    +0.000 A 
ATOM      4  O   UNL     1       3.423   1.750  17.346  0.00  0.00    +0.000 OA
ATOM      5  C   UNL     1       3.424   4.082  17.735  0.00  0.00    +0.000 A 
ATOM      6  C   UNL     1       4.331   4.312  16.685  0.00  0.00    +0.000 A 
ATOM      7  C   UNL     1       4.816   5.595  16.422  0.00  0.00    +0.000 A 
ATOM      8  C   UNL     1       4.303   6.653  17.176  0.00  0.00    +0.000 A 
ATOM      9  C   UNL     1       3.378   6.432  18.204  0.00  0.00    +0.000 A 
ATOM     10  C   UNL     1       2.937   5.138  18.513  0.00  0.00    +0.000 A 
ATOM     11  C   UNL     1       2.029   4.842  19.623  0.00  0.00    +0.000 A 
ATOM     12 CL   UNL     1       1.371   6.134  20.570  0.00  0.00    +0.000 Cl
ENDROOT
BRANCH   1  14
ATOM     13  C   UNL     1       1.611   2.609  22.046  0.00  0.00    +0.000 C 
ATOM     14  O   UNL     1       0.917   3.255  20.982  0.00  0.00    +0.000 OA
ENDBRANCH   1  14
BRANCH   7  15
ATOM     15  N   UNL     1       5.812   5.741  15.456  0.00  0.00    +0.000 N 
ATOM     16  H   UNL     1       5.660   6.554  14.860  0.00  0.00    +0.000 HD
BRANCH  15  17
ATOM     17  C   UNL     1       7.200   5.527  15.843  0.00  0.00    +0.000 C 
BRANCH  17  18
ATOM     18  C   UNL     1       7.259   4.770  17.169  0.00  0.00    +0.000 C 
BRANCH  18  19
ATOM     19  C   UNL     1       7.745   5.649  18.339  0.00  0.00    +0.000 C 
ATOM     20  C   UNL     1       7.839   7.132  17.964  0.00  0.00    +0.000 C 
ATOM     21  C   UNL     1       6.808   5.490  19.538  0.00  0.00    +0.000 C 
ENDBRANCH  18  19
ENDBRANCH  17  18
ENDBRANCH  15  17
ENDBRANCH   7  15
TORSDOF 5
ENDMDL
MODEL 6
REMARK VINA RESULT:      -6.9      3.314      6.158
REMARK  Name = 
REMARK  8 active torsions:
REMARK  status: ('A' for Active; 'I' for Inactive)
REMARK    1  A    between atoms: C_1  and  O_2
REMARK    2  A    between atoms: O_2  and  C_3
REMARK    3  A    between atoms: C_9  and  N_10
REMARK    4  A    between atoms: N_10  and  C_11
REMARK    5  A    between atoms: C_11  and  C_12
REMARK    6  A    between atoms: C_12  and  C_13
REMARK    7  A    between atoms: C_13  and  C_14
REMARK    8  A    between atoms: C_13  and  C_15
REMARK                            x       y       z     vdW  Elec       q    Type
REMARK                         _______ _______ _______ _____ _____    ______ ____
ROOT
ATOM      1  C   UNL     1       6.573   5.621  16.131  0.00  0.00    +0.000 A 
ATOM      2  O   UNL     1       7.028   4.951  17.292  0.00  0.00    +0.000 OA
ATOM      3  C   UNL     1       6.343   4.956  18.467  0.00  0.00    +0.000 A 
ATOM      4  O   UNL     1       6.783   4.412  19.473  0.00  0.00    +0.000 OA
ATOM      5  C   UNL     1       5.024   5.628  18.462  0.00  0.00    +0.000 A 
ATOM      6  C   UNL     1       4.231   5.549  19.620  0.00  0.00    +0.000 A 
ATOM      7  C   UNL     1       2.936   6.070  19.641  0.00  0.00    +0.000 A 
ATOM      8  C   UNL     1       2.488   6.748  18.504  0.00  0.00    +0.000 A 
ATOM      9  C   UNL     1       3.285   6.852  17.358  0.00  0.00    +0.000 A 
ATOM     10  C   UNL     1       4.562   6.276  17.312  0.00  0.00    +0.000 A 
ATOM     11  C   UNL     1       5.408   6.291  16.116  0.00  0.00    +0.000 A 
ATOM     12 CL   UNL     1       4.882   7.131  14.696  0.00  0.00    +0.000 Cl
ENDROOT
BRANCH   1  14
ATOM     13  C   UNL     1       6.982   4.572  14.079  0.00  0.00    +0.000 C 
ATOM     14  O   UNL     1       7.372   5.590  14.997  0.00  0.00    +0.000 OA
ENDBRANCH   1  14
BRANCH   7  15
ATOM     15  N   UNL     1       2.150   5.847  20.772  0.00  0.00    +0.000 N 
ATOM     16  H   UNL     1       1.346   6.471  20.816  0.00  0.00    +0.000 HD
BRANCH  15  17
ATOM     17  C   UNL     1       1.872   4.473  21.172  0.00  0.00    +0.000 C 
BRANCH  17  18
ATOM     18  C   UNL     1       0.898   3.832  20.184  0.00  0.00    +0.000 C 
BRANCH  18  19
ATOM     19  C   UNL     1       1.546   2.710  19.349  0.00  0.00    +0.000 C 
ATOM     20  C   UNL     1       1.788   3.121  17.893  0.00  0.00    +0.000 C 
ATOM     21  C   UNL     1       2.873   2.286  19.982  0.00  0.00    +0.000 C 
ENDBRANCH  18  19
ENDBRANCH  17  18
ENDBRANCH  15  17
ENDBRANCH   7  15
TORSDOF 5
ENDMDL
MODEL 7
REMARK VINA RESULT:      -6.7      1.308      1.429
REMARK  Name = 
REMARK  8 active torsions:
REMARK  status: ('A' for Active; 'I' for Inactive)
REMARK    1  A    between atoms: C_1  and  O_2
REMARK    2  A    between atoms: O_2  and  C_3
REMARK    3  A    between atoms: C_9  and  N_10
REMARK    4  A    between atoms: N_10  and  C_11
REMARK    5  A    between atoms: C_11  and  C_12
REMARK    6  A    between atoms: C_12  and  C_13
REMARK    7  A    between atoms: C_13  and  C_14
REMARK    8  A    between atoms: C_13  and  C_15
REMARK                            x       y       z     vdW  Elec       q    Type
REMARK                         _______ _______ _______ _____ _____    ______ ____
ROOT
ATOM      1  C   UNL     1       3.154   5.765  19.361  0.00  0.00    +0.000 A 
ATOM      2  O   UNL     1       3.434   4.382  19.474  0.00  0.00    +0.000 OA
ATOM      3  C   UNL     1       4.021   3.662  18.480  0.00  0.00    +0.000 A 
ATOM      4  O   UNL     1       4.206   2.455  18.580  0.00  0.00    +0.000 OA
ATOM      5  C   UNL     1       4.453   4.416  17.282  0.00  0.00    +0.000 A 
ATOM      6  C   UNL     1       5.173   3.732  16.287  0.00  0.00    +0.000 A 
ATOM      7  C   UNL     1       5.699   4.410  15.186  0.00  0.00    +0.000 A 
ATOM      8  C   UNL     1       5.411   5.772  15.061  0.00  0.00    +0.000 A 
ATOM      9  C   UNL     1       4.670   6.450  16.036  0.00  0.00    +0.000 A 
ATOM     10  C   UNL     1       4.194   5.786  17.174  0.00  0.00    +0.000 A 
ATOM     11  C   UNL     1       3.479   6.462  18.259  0.00  0.00    +0.000 A 
ATOM     12 CL   UNL     1       3.100   8.146  18.127  0.00  0.00    +0.000 Cl
ENDROOT
BRANCH   1  14
ATOM     13  C   UNL     1       1.246   5.809  20.718  0.00  0.00    +0.000 C 
ATOM     14  O   UNL     1       2.510   6.394  20.417  0.00  0.00    +0.000 OA
ENDBRANCH   1  14
BRANCH   7  15
ATOM     15  N   UNL     1       6.515   3.704  14.301  0.00  0.00    +0.000 N 
ATOM     16  H   UNL     1       6.094   2.827  13.999  0.00  0.00    +0.000 HD
BRANCH  15  17
ATOM     17  C   UNL     1       7.204   4.438  13.246  0.00  0.00    +0.000 C 
BRANCH  17  18
ATOM     18  C   UNL     1       6.771   3.910  11.879  0.00  0.00    +0.000 C 
BRANCH  18  19
ATOM     19  C   UNL     1       5.728   2.780  11.977  0.00  0.00    +0.000 C 
ATOM     20  C   UNL     1       4.353   3.196  11.443  0.00  0.00    +0.000 C 
ATOM     21  C   UNL     1       6.216   1.549  11.211  0.00  0.00    +0.000 C 
ENDBRANCH  18  19
ENDBRANCH  17  18
ENDBRANCH  15  17
ENDBRANCH   7  15
TORSDOF 5
ENDMDL
MODEL 8
REMARK VINA RESULT:      -6.7      3.778      7.076
REMARK  Name = 
REMARK  8 active torsions:
REMARK  status: ('A' for Active; 'I' for Inactive)
REMARK    1  A    between atoms: C_1  and  O_2
REMARK    2  A    between atoms: O_2  and  C_3
REMARK    3  A    between atoms: C_9  and  N_10
REMARK    4  A    between atoms: N_10  and  C_11
REMARK    5  A    between atoms: C_11  and  C_12
REMARK    6  A    between atoms: C_12  and  C_13
REMARK    7  A    between atoms: C_13  and  C_14
REMARK    8  A    between atoms: C_13  and  C_15
REMARK                            x       y       z     vdW  Elec       q    Type
REMARK                         _______ _______ _______ _____ _____    ______ ____
ROOT
ATOM      1  C   UNL     1       7.039   5.135  14.366  0.00  0.00    +0.000 A 
ATOM      2  O   UNL     1       7.658   5.886  15.394  0.00  0.00    +0.000 OA
ATOM      3  C   UNL     1       7.090   6.075  16.617  0.00  0.00    +0.000 A 
ATOM      4  O   UNL     1       7.621   6.773  17.473  0.00  0.00    +0.000 OA
ATOM      5  C   UNL     1       5.815   5.370  16.871  0.00  0.00    +0.000 A 
ATOM      6  C   UNL     1       5.261   5.439  18.161  0.00  0.00    +0.000 A 
ATOM      7  C   UNL     1       4.117   4.710  18.493  0.00  0.00    +0.000 A 
ATOM      8  C   UNL     1       3.493   3.980  17.477  0.00  0.00    +0.000 A 
ATOM      9  C   UNL     1       4.027   3.931  16.184  0.00  0.00    +0.000 A 
ATOM     10  C   UNL     1       5.209   4.612  15.864  0.00  0.00    +0.000 A 
ATOM     11  C   UNL     1       5.851   4.535  14.550  0.00  0.00    +0.000 A 
ATOM     12 CL   UNL     1       5.095   3.646  13.270  0.00  0.00    +0.000 Cl
ENDROOT
BRANCH   1  14
ATOM     13  C   UNL     1       8.785   5.939  13.030  0.00  0.00    +0.000 C 
ATOM     14  O   UNL     1       7.683   5.043  13.140  0.00  0.00    +0.000 OA
ENDBRANCH   1  14
BRANCH   7  15
ATOM     15  N   UNL     1       3.689   4.715  19.821  0.00  0.00    +0.000 N 
ATOM     16  H   UNL     1       4.467   4.719  20.479  0.00  0.00    +0.000 HD
BRANCH  15  17
ATOM     17  C   UNL     1       2.576   5.578  20.195  0.00  0.00    +0.000 C 
BRANCH  17  18
ATOM     18  C   UNL     1       1.333   4.732  20.469  0.00  0.00    +0.000 C 
BRANCH  18  19
ATOM     19  C   UNL     1       1.613   3.218  20.400  0.00  0.00    +0.000 C 
ATOM     20  C   UNL     1       1.449   2.525  21.757  0.00  0.00    +0.000 C 
ATOM     21  C   UNL     1       0.682   2.559  19.380  0.00  0.00    +0.000 C 
ENDBRANCH  18  19
ENDBRANCH  17  18
ENDBRANCH  15  17
ENDBRANCH   7  15
TORSDOF 5
ENDMDL
MODEL 9
REMARK VINA RESULT:      -6.7      1.890      2.478
REMARK  Name = 
REMARK  8 active torsions:
REMARK  status: ('A' for Active; 'I' for Inactive)
REMARK    1  A    between atoms: C_1  and  O_2
REMARK    2  A    between atoms: O_2  and  C_3
REMARK    3  A    between atoms: C_9  and  N_10
REMARK    4  A    between atoms: N_10  and  C_11
REMARK    5  A    between atoms: C_11  and  C_12
REMARK    6  A    between atoms: C_12  and  C_13
REMARK    7  A    between atoms: C_13  and  C_14
REMARK    8  A    between atoms: C_13  and  C_15
REMARK                            x       y       z     vdW  Elec       q    Type
REMARK                         _______ _______ _______ _____ _____    ______ ____
ROOT
ATOM      1  C   UNL     1       2.290   4.378  19.142  0.00  0.00    +0.000 A 
ATOM      2  O   UNL     1       2.363   5.773  18.910  0.00  0.00    +0.000 OA
ATOM      3  C   UNL     1       3.266   6.337  18.063  0.00  0.00    +0.000 A 
ATOM      4  O   UNL     1       3.345   7.551  17.919  0.00  0.00    +0.000 OA
ATOM      5  C   UNL     1       4.130   5.408  17.302  0.00  0.00    +0.000 A 
ATOM      6  C   UNL     1       4.990   5.943  16.327  0.00  0.00    +0.000 A 
ATOM      7  C   UNL     1       5.751   5.111  15.504  0.00  0.00    +0.000 A 
ATOM      8  C   UNL     1       5.696   3.735  15.739  0.00  0.00    +0.000 A 
ATOM      9  C   UNL     1       4.861   3.199  16.728  0.00  0.00    +0.000 A 
ATOM     10  C   UNL     1       4.049   4.027  17.514  0.00  0.00    +0.000 A 
ATOM     11  C   UNL     1       3.104   3.516  18.510  0.00  0.00    +0.000 A 
ATOM     12 CL   UNL     1       3.022   1.816  18.829  0.00  0.00    +0.000 Cl
ENDROOT
BRANCH   1  14
ATOM     13  C   UNL     1       1.901   3.787  21.374  0.00  0.00    +0.000 C 
ATOM     14  O   UNL     1       1.361   3.911  20.061  0.00  0.00    +0.000 OA
ENDBRANCH   1  14
BRANCH   7  15
ATOM     15  N   UNL     1       6.484   5.693  14.469  0.00  0.00    +0.000 N 
ATOM     16  H   UNL     1       6.767   6.648  14.683  0.00  0.00    +0.000 HD
BRANCH  15  17
ATOM     17  C   UNL     1       7.505   4.897  13.800  0.00  0.00    +0.000 C 
BRANCH  17  18
ATOM     18  C   UNL     1       7.069   4.592  12.367  0.00  0.00    +0.000 C 
BRANCH  18  19
ATOM     19  C   UNL     1       6.325   3.248  12.241  0.00  0.00    +0.000 C 
ATOM     20  C   UNL     1       4.857   3.420  11.837  0.00  0.00    +0.000 C 
ATOM     21  C   UNL     1       7.030   2.354  11.219  0.00  0.00    +0.000 C 
ENDBRANCH  18  19
ENDBRANCH  17  18
ENDBRANCH  15  17
ENDBRANCH   7  15
TORSDOF 5
ENDMDL
