MODEL 1
REMARK VINA RESULT:      -8.6      0.000      0.000
REMARK  Name = 
REMARK  6 active torsions:
REMARK  status: ('A' for Active; 'I' for Inactive)
REMARK    1  A    between atoms: C_1  and  O_2
REMARK    2  A    between atoms: O_2  and  C_3
REMARK    3  A    between atoms: C_6  and  C_7
REMARK    4  A    between atoms: N_9  and  C_10
REMARK    5  A    between atoms: C_11  and  C_12
REMARK    6  A    between atoms: C_12  and  C_14
REMARK                            x       y       z     vdW  Elec       q    Type
REMARK                         _______ _______ _______ _____ _____    ______ ____
ROOT
ATOM      1  C   UNL     1       4.919   6.137  17.837  0.00  0.00    +0.000 A 
ATOM      2  C   UNL     1       5.105   4.884  18.430  0.00  0.00    +0.000 A 
ATOM      3  O   UNL     1       6.399   4.514  18.137  0.00  0.00    +0.000 OA
ATOM      4  C   UNL     1       6.512   4.931  16.840  0.00  0.00    +0.000 A 
ATOM      5  C   UNL     1       7.439   4.406  15.948  0.00  0.00    +0.000 A 
ATOM      6  C   UNL     1       7.044   4.454  14.617  0.00  0.00    +0.000 A 
ATOM      7  C   UNL     1       5.860   5.107  14.246  0.00  0.00    +0.000 A 
ATOM      8  C   UNL     1       5.083   5.848  15.172  0.00  0.00    +0.000 A 
ATOM      9  C   UNL     1       5.411   5.751  16.534  0.00  0.00    +0.000 A 
ENDROOT
BRANCH   1  12
ATOM     10  C   UNL     1       3.067   7.807  17.972  0.00  0.00    +0.000 C 
ATOM     11  O   UNL     1       2.964   8.094  16.774  0.00  0.00    +0.000 OA
ATOM     12  N   UNL     1       4.070   7.017  18.491  0.00  0.00    +0.000 N 
ATOM     13  H   UNL     1       4.019   6.829  19.479  0.00  0.00    +0.000 HD
BRANCH  10  17
ATOM     14  C   UNL     1       0.162   9.136  20.999  0.00  0.00    +0.000 A 
ATOM     15  C   UNL     1       0.997   8.039  21.190  0.00  0.00    +0.000 A 
ATOM     16  C   UNL     1       1.916   7.632  20.196  0.00  0.00    +0.000 A 
ATOM     17  C   UNL     1       2.006   8.293  18.965  0.00  0.00    +0.000 A 
ATOM     18  C   UNL     1       1.122   9.389  18.772  0.00  0.00    +0.000 A 
ATOM     19  C   UNL     1       0.217   9.806  19.778  0.00  0.00    +0.000 A 
BRANCH  14  21
ATOM     20  C   UNL     1      -0.108   9.581  23.332  0.00  0.00    +0.000 C 
ATOM     21  O   UNL     1      -0.682   9.407  22.040  0.00  0.00    +0.000 OA
ENDBRANCH  14  21
ENDBRANCH  10  17
ENDBRANCH   1  12
BRANCH   2  22
ATOM     22  C   UNL     1       4.011   3.888  18.329  0.00  0.00    +0.000 C 
ATOM     23  O   UNL     1       3.918   3.143  17.350  0.00  0.00    +0.000 OA
BRANCH  22  24
ATOM     24  C   UNL     1       3.088   3.578  19.455  0.00  0.00    +0.000 A 
ATOM     25  C   UNL     1       3.568   2.734  20.482  0.00  0.00    +0.000 A 
ATOM     26  C   UNL     1       2.733   2.346  21.532  0.00  0.00    +0.000 A 
ATOM     27  C   UNL     1       1.428   2.807  21.562  0.00  0.00    +0.000 A 
ATOM     28  F   UNL     1       0.613   2.425  22.551  0.00  0.00    +0.000 F 
ATOM     29  C   UNL     1       0.948   3.661  20.569  0.00  0.00    +0.000 A 
ATOM     30  C   UNL     1       1.776   4.050  19.514  0.00  0.00    +0.000 A 
ENDBRANCH  22  24
ENDBRANCH   2  22
TORSDOF 5
ENDMDL
MODEL 2
REMARK VINA RESULT:      -8.3      4.402      5.820
REMARK  Name = 
REMARK  6 active torsions:
REMARK  status: ('A' for Active; 'I' for Inactive)
REMARK    1  A    between atoms: C_1  and  O_2
REMARK    2  A    between atoms: O_2  and  C_3
REMARK    3  A    between atoms: C_6  and  C_7
REMARK    4  A    between atoms: N_9  and  C_10
REMARK    5  A    between atoms: C_11  and  C_12
REMARK    6  A    between atoms: C_12  and  C_14
REMARK                            x       y       z     vdW  Elec       q    Type
REMARK                         _______ _______ _______ _____ _____    ______ ____
ROOT
ATOM      1  C   UNL     1       7.198   6.675  16.916  0.00  0.00    +0.000 A 
ATOM      2  C   UNL     1       7.404   5.571  17.750  0.00  0.00    +0.000 A 
ATOM      3  O   UNL     1       7.874   4.564  16.936  0.00  0.00    +0.000 OA
ATOM      4  C   UNL     1       7.096   4.731  15.824  0.00  0.00    +0.000 A 
ATOM      5  C   UNL     1       6.854   3.719  14.904  0.00  0.00    +0.000 A 
ATOM      6  C   UNL     1       5.638   3.826  14.241  0.00  0.00    +0.000 A 
ATOM      7  C   UNL     1       4.821   4.951  14.423  0.00  0.00    +0.000 A 
ATOM      8  C   UNL     1       5.240   6.074  15.180  0.00  0.00    +0.000 A 
ATOM      9  C   UNL     1       6.424   5.962  15.926  0.00  0.00    +0.000 A 
ENDROOT
BRANCH   1  12
ATOM     10  C   UNL     1       8.312   8.308  18.444  0.00  0.00    +0.000 C 
ATOM     11  O   UNL     1       8.881   7.518  19.205  0.00  0.00    +0.000 OA
ATOM     12  N   UNL     1       7.409   7.927  17.475  0.00  0.00    +0.000 N 
ATOM     13  H   UNL     1       7.044   8.666  16.896  0.00  0.00    +0.000 HD
BRANCH  10  17
ATOM     14  C   UNL     1       9.471  12.543  18.738  0.00  0.00    +0.000 A 
ATOM     15  C   UNL     1       9.846  11.594  19.685  0.00  0.00    +0.000 A 
ATOM     16  C   UNL     1       9.452  10.242  19.567  0.00  0.00    +0.000 A 
ATOM     17  C   UNL     1       8.644   9.802  18.511  0.00  0.00    +0.000 A 
ATOM     18  C   UNL     1       8.240  10.790  17.573  0.00  0.00    +0.000 A 
ATOM     19  C   UNL     1       8.653  12.140  17.684  0.00  0.00    +0.000 A 
BRANCH  14  21
ATOM     20  C   UNL     1      10.116  14.676  17.872  0.00  0.00    +0.000 C 
ATOM     21  O   UNL     1       9.915  13.813  18.986  0.00  0.00    +0.000 OA
ENDBRANCH  14  21
ENDBRANCH  10  17
ENDBRANCH   1  12
BRANCH   2  22
ATOM     22  C   UNL     1       6.386   5.271  18.785  0.00  0.00    +0.000 C 
ATOM     23  O   UNL     1       6.666   5.327  19.986  0.00  0.00    +0.000 OA
BRANCH  22  24
ATOM     24  C   UNL     1       4.942   5.082  18.476  0.00  0.00    +0.000 A 
ATOM     25  C   UNL     1       4.528   3.803  18.041  0.00  0.00    +0.000 A 
ATOM     26  C   UNL     1       3.202   3.575  17.667  0.00  0.00    +0.000 A 
ATOM     27  C   UNL     1       2.292   4.616  17.738  0.00  0.00    +0.000 A 
ATOM     28  F   UNL     1       1.025   4.415  17.362  0.00  0.00    +0.000 F 
ATOM     29  C   UNL     1       2.681   5.877  18.191  0.00  0.00    +0.000 A 
ATOM     30  C   UNL     1       4.006   6.114  18.561  0.00  0.00    +0.000 A 
ENDBRANCH  22  24
ENDBRANCH   2  22
TORSDOF 5
ENDMDL
MODEL 3
REMARK VINA RESULT:      -8.1      0.501      1.357
REMARK  Name = 
REMARK  6 active torsions:
REMARK  status: ('A' for Active; 'I' for Inactive)
REMARK    1  A    between atoms: C_1  and  O_2
REMARK    2  A    between atoms: O_2  and  C_3
REMARK    3  A    between atoms: C_6  and  C_7
REMARK    4  A    between atoms: N_9  and  C_10
REMARK    5  A    between atoms: C_11  and  C_12
REMARK    6  A    between atoms: C_12  and  C_14
REMARK                            x       y       z     vdW  Elec       q    Type
REMARK                         _______ _______ _______ _____ _____    ______ ____
ROOT
ATOM      1  C   UNL     1       4.891   6.153  17.872  0.00  0.00    +0.000 A 
ATOM      2  C   UNL     1       4.989   4.866  18.413  0.00  0.00    +0.000 A 
ATOM      3  O   UNL     1       6.262   4.428  18.120  0.00  0.00    +0.000 OA
ATOM      4  C   UNL     1       6.420   4.892  16.844  0.00  0.00    +0.000 A 
ATOM      5  C   UNL     1       7.326   4.348  15.941  0.00  0.00    +0.000 A 
ATOM      6  C   UNL     1       6.953   4.476  14.609  0.00  0.00    +0.000 A 
ATOM      7  C   UNL     1       5.819   5.219  14.252  0.00  0.00    +0.000 A 
ATOM      8  C   UNL     1       5.076   5.967  15.199  0.00  0.00    +0.000 A 
ATOM      9  C   UNL     1       5.377   5.792  16.560  0.00  0.00    +0.000 A 
ENDROOT
BRANCH   1  12
ATOM     10  C   UNL     1       3.003   7.771  18.099  0.00  0.00    +0.000 C 
ATOM     11  O   UNL     1       2.750   7.957  16.903  0.00  0.00    +0.000 OA
ATOM     12  N   UNL     1       4.089   7.057  18.553  0.00  0.00    +0.000 N 
ATOM     13  H   UNL     1       4.161   6.948  19.552  0.00  0.00    +0.000 HD
BRANCH  10  17
ATOM     14  C   UNL     1       0.115   9.381  21.003  0.00  0.00    +0.000 A 
ATOM     15  C   UNL     1       0.373   9.996  19.781  0.00  0.00    +0.000 A 
ATOM     16  C   UNL     1       1.312   9.458  18.871  0.00  0.00    +0.000 A 
ATOM     17  C   UNL     1       2.045   8.303  19.170  0.00  0.00    +0.000 A 
ATOM     18  C   UNL     1       1.796   7.709  20.437  0.00  0.00    +0.000 A 
ATOM     19  C   UNL     1       0.841   8.239  21.336  0.00  0.00    +0.000 A 
BRANCH  14  21
ATOM     20  C   UNL     1      -0.721  11.435  21.898  0.00  0.00    +0.000 C 
ATOM     21  O   UNL     1      -0.808  10.018  21.786  0.00  0.00    +0.000 OA
ENDBRANCH  14  21
ENDBRANCH  10  17
ENDBRANCH   1  12
BRANCH   2  22
ATOM     22  C   UNL     1       3.837   3.947  18.256  0.00  0.00    +0.000 C 
ATOM     23  O   UNL     1       3.604   3.399  17.176  0.00  0.00    +0.000 OA
BRANCH  22  24
ATOM     24  C   UNL     1       3.015   3.471  19.403  0.00  0.00    +0.000 A 
ATOM     25  C   UNL     1       1.662   3.876  19.451  0.00  0.00    +0.000 A 
ATOM     26  C   UNL     1       0.852   3.523  20.533  0.00  0.00    +0.000 A 
ATOM     27  C   UNL     1       1.389   2.761  21.557  0.00  0.00    +0.000 A 
ATOM     28  F   UNL     1       0.630   2.435  22.608  0.00  0.00    +0.000 F 
ATOM     29  C   UNL     1       2.716   2.331  21.509  0.00  0.00    +0.000 A 
ATOM     30  C   UNL     1       3.532   2.684  20.433  0.00  0.00    +0.000 A 
ENDBRANCH  22  24
ENDBRANCH   2  22
TORSDOF 5
ENDMDL
MODEL 4
REMARK VINA RESULT:      -8.1      2.955      5.493
REMARK  Name = 
REMARK  6 active torsions:
REMARK  status: ('A' for Active; 'I' for Inactive)
REMARK    1  A    between atoms: C_1  and  O_2
REMARK    2  A    between atoms: O_2  and  C_3
REMARK    3  A    between atoms: C_6  and  C_7
REMARK    4  A    between atoms: N_9  and  C_10
REMARK    5  A    between atoms: C_11  and  C_12
REMARK    6  A    between atoms: C_12  and  C_14
REMARK                            x       y       z     vdW  Elec       q    Type
REMARK                         _______ _______ _______ _____ _____    ______ ____
ROOT
ATOM      1  C   UNL     1       1.965   6.369  19.315  0.00  0.00    +0.000 A 
ATOM      2  C   UNL     1       2.565   5.838  18.169  0.00  0.00    +0.000 A 
ATOM      3  O   UNL     1       1.801   4.749  17.811  0.00  0.00    +0.000 OA
ATOM      4  C   UNL     1       1.529   4.198  19.032  0.00  0.00    +0.000 A 
ATOM      5  C   UNL     1       1.184   2.864  19.207  0.00  0.00    +0.000 A 
ATOM      6  C   UNL     1       1.541   2.336  20.442  0.00  0.00    +0.000 A 
ATOM      7  C   UNL     1       2.080   3.159  21.441  0.00  0.00    +0.000 A 
ATOM      8  C   UNL     1       2.172   4.566  21.294  0.00  0.00    +0.000 A 
ATOM      9  C   UNL     1       1.896   5.116  20.032  0.00  0.00    +0.000 A 
ENDROOT
BRANCH   1  12
ATOM     10  C   UNL     1       1.904   8.744  18.543  0.00  0.00    +0.000 C 
ATOM     11  O   UNL     1       1.995   8.562  17.323  0.00  0.00    +0.000 OA
ATOM     12  N   UNL     1       2.042   7.744  19.481  0.00  0.00    +0.000 N 
ATOM     13  H   UNL     1       1.909   8.017  20.441  0.00  0.00    +0.000 HD
BRANCH  10  17
ATOM     14  C   UNL     1       0.910  12.820  19.868  0.00  0.00    +0.000 A 
ATOM     15  C   UNL     1       1.644  12.564  18.713  0.00  0.00    +0.000 A 
ATOM     16  C   UNL     1       1.954  11.243  18.317  0.00  0.00    +0.000 A 
ATOM     17  C   UNL     1       1.564  10.137  19.082  0.00  0.00    +0.000 A 
ATOM     18  C   UNL     1       0.846  10.417  20.276  0.00  0.00    +0.000 A 
ATOM     19  C   UNL     1       0.521  11.741  20.659  0.00  0.00    +0.000 A 
BRANCH  14  21
ATOM     20  C   UNL     1       0.520  15.023  19.026  0.00  0.00    +0.000 C 
ATOM     21  O   UNL     1       0.694  14.145  20.132  0.00  0.00    +0.000 OA
ENDBRANCH  14  21
ENDBRANCH  10  17
ENDBRANCH   1  12
BRANCH   2  22
ATOM     22  C   UNL     1       4.044   5.751  18.124  0.00  0.00    +0.000 C 
ATOM     23  O   UNL     1       4.724   5.975  19.130  0.00  0.00    +0.000 OA
BRANCH  22  24
ATOM     24  C   UNL     1       4.793   5.207  16.958  0.00  0.00    +0.000 A 
ATOM     25  C   UNL     1       5.171   6.115  15.942  0.00  0.00    +0.000 A 
ATOM     26  C   UNL     1       5.814   5.662  14.788  0.00  0.00    +0.000 A 
ATOM     27  C   UNL     1       6.086   4.311  14.653  0.00  0.00    +0.000 A 
ATOM     28  F   UNL     1       6.681   3.863  13.543  0.00  0.00    +0.000 F 
ATOM     29  C   UNL     1       5.742   3.408  15.659  0.00  0.00    +0.000 A 
ATOM     30  C   UNL     1       5.095   3.852  16.814  0.00  0.00    +0.000 A 
ENDBRANCH  22  24
ENDBRANCH   2  22
TORSDOF 5
ENDMDL
MODEL 5
REMARK VINA RESULT:      -8.1      2.844      5.277
REMARK  Name = 
REMARK  6 active torsions:
REMARK  status: ('A' for Active; 'I' for Inactive)
REMARK    1  A    between atoms: C_1  and  O_2
REMARK    2  A    between atoms: O_2  and  C_3
REMARK    3  A    between atoms: C_6  and  C_7
REMARK    4  A    between atoms: N_9  and  C_10
REMARK    5  A    between atoms: C_11  and  C_12
REMARK    6  A    between atoms: C_12  and  C_14
REMARK                            x       y       z     vdW  Elec       q    Type
REMARK                         _______ _______ _______ _____ _____    ______ ____
ROOT
ATOM      1  C   UNL     1       1.918   6.291  19.382  0.00  0.00    +0.000 A 
ATOM      2  C   UNL     1       2.523   5.835  18.205  0.00  0.00    +0.000 A 
ATOM      3  O   UNL     1       1.781   4.751  17.793  0.00  0.00    +0.000 OA
ATOM      4  C   UNL     1       1.528   4.129  18.984  0.00  0.00    +0.000 A 
ATOM      5  C   UNL     1       1.212   2.780  19.087  0.00  0.00    +0.000 A 
ATOM      6  C   UNL     1       1.587   2.195  20.290  0.00  0.00    +0.000 A 
ATOM      7  C   UNL     1       2.114   2.974  21.330  0.00  0.00    +0.000 A 
ATOM      8  C   UNL     1       2.175   4.388  21.259  0.00  0.00    +0.000 A 
ATOM      9  C   UNL     1       1.881   5.000  20.030  0.00  0.00    +0.000 A 
ENDROOT
BRANCH   1  12
ATOM     10  C   UNL     1       1.607   8.698  18.795  0.00  0.00    +0.000 C 
ATOM     11  O   UNL     1       1.467   8.593  17.572  0.00  0.00    +0.000 OA
ATOM     12  N   UNL     1       1.968   7.656  19.621  0.00  0.00    +0.000 N 
ATOM     13  H   UNL     1       2.012   7.866  20.605  0.00  0.00    +0.000 HD
BRANCH  10  17
ATOM     14  C   UNL     1       0.830  12.443  20.972  0.00  0.00    +0.000 A 
ATOM     15  C   UNL     1       0.567  11.189  21.517  0.00  0.00    +0.000 A 
ATOM     16  C   UNL     1       0.821  10.004  20.790  0.00  0.00    +0.000 A 
ATOM     17  C   UNL     1       1.318  10.038  19.481  0.00  0.00    +0.000 A 
ATOM     18  C   UNL     1       1.547  11.326  18.927  0.00  0.00    +0.000 A 
ATOM     19  C   UNL     1       1.311  12.510  19.665  0.00  0.00    +0.000 A 
BRANCH  14  21
ATOM     20  C   UNL     1      -0.846  13.730  22.090  0.00  0.00    +0.000 C 
ATOM     21  O   UNL     1       0.526  13.500  21.784  0.00  0.00    +0.000 OA
ENDBRANCH  14  21
ENDBRANCH  10  17
ENDBRANCH   1  12
BRANCH   2  22
ATOM     22  C   UNL     1       4.004   5.783  18.150  0.00  0.00    +0.000 C 
ATOM     23  O   UNL     1       4.686   6.044  19.144  0.00  0.00    +0.000 OA
BRANCH  22  24
ATOM     24  C   UNL     1       4.756   5.233  16.988  0.00  0.00    +0.000 A 
ATOM     25  C   UNL     1       5.151   6.137  15.976  0.00  0.00    +0.000 A 
ATOM     26  C   UNL     1       5.797   5.679  14.827  0.00  0.00    +0.000 A 
ATOM     27  C   UNL     1       6.057   4.326  14.692  0.00  0.00    +0.000 A 
ATOM     28  F   UNL     1       6.656   3.873  13.586  0.00  0.00    +0.000 F 
ATOM     29  C   UNL     1       5.697   3.425  15.695  0.00  0.00    +0.000 A 
ATOM     30  C   UNL     1       5.045   3.875  16.845  0.00  0.00    +0.000 A 
ENDBRANCH  22  24
ENDBRANCH   2  22
TORSDOF 5
ENDMDL
MODEL 6
REMARK VINA RESULT:      -8.0      2.910      5.306
REMARK  Name = 
REMARK  6 active torsions:
REMARK  status: ('A' for Active; 'I' for Inactive)
REMARK    1  A    between atoms: C_1  and  O_2
REMARK    2  A    between atoms: O_2  and  C_3
REMARK    3  A    between atoms: C_6  and  C_7
REMARK    4  A    between atoms: N_9  and  C_10
REMARK    5  A    between atoms: C_11  and  C_12
REMARK    6  A    between atoms: C_12  and  C_14
REMARK                            x       y       z     vdW  Elec       q    Type
REMARK                         _______ _______ _______ _____ _____    ______ ____
ROOT
ATOM      1  C   UNL     1       1.919   6.357  19.359  0.00  0.00    +0.000 A 
ATOM      2  C   UNL     1       2.492   5.848  18.189  0.00  0.00    +0.000 A 
ATOM      3  O   UNL     1       1.730   4.756  17.837  0.00  0.00    +0.000 OA
ATOM      4  C   UNL     1       1.498   4.185  19.058  0.00  0.00    +0.000 A 
ATOM      5  C   UNL     1       1.170   2.845  19.222  0.00  0.00    +0.000 A 
ATOM      6  C   UNL     1       1.567   2.305  20.439  0.00  0.00    +0.000 A 
ATOM      7  C   UNL     1       2.125   3.119  21.435  0.00  0.00    +0.000 A 
ATOM      8  C   UNL     1       2.199   4.528  21.306  0.00  0.00    +0.000 A 
ATOM      9  C   UNL     1       1.883   5.094  20.059  0.00  0.00    +0.000 A 
ENDROOT
BRANCH   1  12
ATOM     10  C   UNL     1       1.815   8.741  18.622  0.00  0.00    +0.000 C 
ATOM     11  O   UNL     1       1.875   8.578  17.398  0.00  0.00    +0.000 OA
ATOM     12  N   UNL     1       1.988   7.730  19.542  0.00  0.00    +0.000 N 
ATOM     13  H   UNL     1       1.877   7.988  20.510  0.00  0.00    +0.000 HD
BRANCH  10  17
ATOM     14  C   UNL     1       0.870  12.622  20.468  0.00  0.00    +0.000 A 
ATOM     15  C   UNL     1       0.543  11.407  21.064  0.00  0.00    +0.000 A 
ATOM     16  C   UNL     1       0.854  10.176  20.443  0.00  0.00    +0.000 A 
ATOM     17  C   UNL     1       1.475  10.123  19.189  0.00  0.00    +0.000 A 
ATOM     18  C   UNL     1       1.770  11.372  18.578  0.00  0.00    +0.000 A 
ATOM     19  C   UNL     1       1.475  12.602  19.213  0.00  0.00    +0.000 A 
BRANCH  14  21
ATOM     20  C   UNL     1       1.530  14.601  21.637  0.00  0.00    +0.000 C 
ATOM     21  O   UNL     1       0.500  13.731  21.178  0.00  0.00    +0.000 OA
ENDBRANCH  14  21
ENDBRANCH  10  17
ENDBRANCH   1  12
BRANCH   2  22
ATOM     22  C   UNL     1       3.971   5.777  18.103  0.00  0.00    +0.000 C 
ATOM     23  O   UNL     1       4.674   5.951  19.102  0.00  0.00    +0.000 OA
BRANCH  22  24
ATOM     24  C   UNL     1       4.693   5.305  16.890  0.00  0.00    +0.000 A 
ATOM     25  C   UNL     1       4.940   3.918  16.773  0.00  0.00    +0.000 A 
ATOM     26  C   UNL     1       5.673   3.415  15.696  0.00  0.00    +0.000 A 
ATOM     27  C   UNL     1       6.148   4.291  14.734  0.00  0.00    +0.000 A 
ATOM     28  F   UNL     1       6.868   3.823  13.710  0.00  0.00    +0.000 F 
ATOM     29  C   UNL     1       5.888   5.659  14.823  0.00  0.00    +0.000 A 
ATOM     30  C   UNL     1       5.161   6.170  15.899  0.00  0.00    +0.000 A 
ENDBRANCH  22  24
ENDBRANCH   2  22
TORSDOF 5
ENDMDL
MODEL 7
REMARK VINA RESULT:      -8.0      1.441      2.069
REMARK  Name = 
REMARK  6 active torsions:
REMARK  status: ('A' for Active; 'I' for Inactive)
REMARK    1  A    between atoms: C_1  and  O_2
REMARK    2  A    between atoms: O_2  and  C_3
REMARK    3  A    between atoms: C_6  and  C_7
REMARK    4  A    between atoms: N_9  and  C_10
REMARK    5  A    between atoms: C_11  and  C_12
REMARK    6  A    between atoms: C_12  and  C_14
REMARK                            x       y       z     vdW  Elec       q    Type
REMARK                         _______ _______ _______ _____ _____    ______ ____
ROOT
ATOM      1  C   UNL     1       4.998   6.679  17.146  0.00  0.00    +0.000 A 
ATOM      2  C   UNL     1       6.118   6.367  17.923  0.00  0.00    +0.000 A 
ATOM      3  O   UNL     1       7.186   6.334  17.054  0.00  0.00    +0.000 OA
ATOM      4  C   UNL     1       6.631   5.713  15.970  0.00  0.00    +0.000 A 
ATOM      5  C   UNL     1       7.379   5.042  15.011  0.00  0.00    +0.000 A 
ATOM      6  C   UNL     1       6.704   4.003  14.382  0.00  0.00    +0.000 A 
ATOM      7  C   UNL     1       5.343   3.779  14.634  0.00  0.00    +0.000 A 
ATOM      8  C   UNL     1       4.567   4.658  15.430  0.00  0.00    +0.000 A 
ATOM      9  C   UNL     1       5.237   5.667  16.143  0.00  0.00    +0.000 A 
ENDROOT
BRANCH   1  12
ATOM     10  C   UNL     1       2.716   7.069  18.083  0.00  0.00    +0.000 C 
ATOM     11  O   UNL     1       2.129   6.094  17.600  0.00  0.00    +0.000 OA
ATOM     12  N   UNL     1       4.004   7.431  17.755  0.00  0.00    +0.000 N 
ATOM     13  H   UNL     1       4.380   8.225  18.248  0.00  0.00    +0.000 HD
BRANCH  10  17
ATOM     14  C   UNL     1       0.593   9.598  20.992  0.00  0.00    +0.000 A 
ATOM     15  C   UNL     1       0.811   9.990  19.674  0.00  0.00    +0.000 A 
ATOM     16  C   UNL     1       1.503   9.158  18.765  0.00  0.00    +0.000 A 
ATOM     17  C   UNL     1       2.025   7.919  19.155  0.00  0.00    +0.000 A 
ATOM     18  C   UNL     1       1.825   7.549  20.512  0.00  0.00    +0.000 A 
ATOM     19  C   UNL     1       1.114   8.376  21.415  0.00  0.00    +0.000 A 
BRANCH  14  21
ATOM     20  C   UNL     1      -0.619  10.059  23.000  0.00  0.00    +0.000 C 
ATOM     21  O   UNL     1      -0.081  10.507  21.760  0.00  0.00    +0.000 OA
ENDBRANCH  14  21
ENDBRANCH  10  17
ENDBRANCH   1  12
BRANCH   2  22
ATOM     22  C   UNL     1       5.982   5.324  18.968  0.00  0.00    +0.000 C 
ATOM     23  O   UNL     1       6.781   5.256  19.906  0.00  0.00    +0.000 OA
BRANCH  22  24
ATOM     24  C   UNL     1       4.795   4.431  19.076  0.00  0.00    +0.000 A 
ATOM     25  C   UNL     1       3.849   4.721  20.085  0.00  0.00    +0.000 A 
ATOM     26  C   UNL     1       2.748   3.885  20.288  0.00  0.00    +0.000 A 
ATOM     27  C   UNL     1       2.588   2.772  19.481  0.00  0.00    +0.000 A 
ATOM     28  F   UNL     1       1.551   1.953  19.680  0.00  0.00    +0.000 F 
ATOM     29  C   UNL     1       3.500   2.489  18.464  0.00  0.00    +0.000 A 
ATOM     30  C   UNL     1       4.606   3.317  18.258  0.00  0.00    +0.000 A 
ENDBRANCH  22  24
ENDBRANCH   2  22
TORSDOF 5
ENDMDL
MODEL 8
REMARK VINA RESULT:      -7.9      2.716      5.166
REMARK  Name = 
REMARK  6 active torsions:
REMARK  status: ('A' for Active; 'I' for Inactive)
REMARK    1  A    between atoms: C_1  and  O_2
REMARK    2  A    between atoms: O_2  and  C_3
REMARK    3  A    between atoms: C_6  and  C_7
REMARK    4  A    between atoms: N_9  and  C_10
REMARK    5  A    between atoms: C_11  and  C_12
REMARK    6  A    between atoms: C_12  and  C_14
REMARK                            x       y       z     vdW  Elec       q    Type
REMARK                         _______ _______ _______ _____ _____    ______ ____
ROOT
ATOM      1  C   UNL     1       1.759   5.763  19.835  0.00  0.00    +0.000 A 
ATOM      2  C   UNL     1       2.497   5.808  18.647  0.00  0.00    +0.000 A 
ATOM      3  O   UNL     1       1.941   4.858  17.820  0.00  0.00    +0.000 OA
ATOM      4  C   UNL     1       1.700   3.841  18.701  0.00  0.00    +0.000 A 
ATOM      5  C   UNL     1       1.569   2.513  18.315  0.00  0.00    +0.000 A 
ATOM      6  C   UNL     1       1.943   1.594  19.288  0.00  0.00    +0.000 A 
ATOM      7  C   UNL     1       2.288   2.020  20.578  0.00  0.00    +0.000 A 
ATOM      8  C   UNL     1       2.156   3.370  20.989  0.00  0.00    +0.000 A 
ATOM      9  C   UNL     1       1.860   4.332  20.009  0.00  0.00    +0.000 A 
ENDROOT
BRANCH   1  12
ATOM     10  C   UNL     1       1.455   8.235  20.019  0.00  0.00    +0.000 C 
ATOM     11  O   UNL     1       1.750   8.562  18.865  0.00  0.00    +0.000 OA
ATOM     12  N   UNL     1       1.603   6.959  20.519  0.00  0.00    +0.000 N 
ATOM     13  H   UNL     1       1.289   6.815  21.465  0.00  0.00    +0.000 HD
BRANCH  10  17
ATOM     14  C   UNL     1      -0.421  11.307  22.551  0.00  0.00    +0.000 A 
ATOM     15  C   UNL     1       0.093  11.586  21.288  0.00  0.00    +0.000 A 
ATOM     16  C   UNL     1       0.696  10.579  20.500  0.00  0.00    +0.000 A 
ATOM     17  C   UNL     1       0.831   9.265  20.967  0.00  0.00    +0.000 A 
ATOM     18  C   UNL     1       0.334   9.006  22.272  0.00  0.00    +0.000 A 
ATOM     19  C   UNL     1      -0.288  10.012  23.049  0.00  0.00    +0.000 A 
BRANCH  14  21
ATOM     20  C   UNL     1      -2.381  12.531  23.163  0.00  0.00    +0.000 C 
ATOM     21  O   UNL     1      -0.966  12.380  23.202  0.00  0.00    +0.000 OA
ENDBRANCH  14  21
ENDBRANCH  10  17
ENDBRANCH   1  12
BRANCH   2  22
ATOM     22  C   UNL     1       3.971   5.939  18.738  0.00  0.00    +0.000 C 
ATOM     23  O   UNL     1       4.525   6.134  19.823  0.00  0.00    +0.000 OA
BRANCH  22  24
ATOM     24  C   UNL     1       4.884   5.654  17.597  0.00  0.00    +0.000 A 
ATOM     25  C   UNL     1       5.889   4.679  17.792  0.00  0.00    +0.000 A 
ATOM     26  C   UNL     1       6.823   4.411  16.789  0.00  0.00    +0.000 A 
ATOM     27  C   UNL     1       6.749   5.107  15.594  0.00  0.00    +0.000 A 
ATOM     28  F   UNL     1       7.650   4.874  14.635  0.00  0.00    +0.000 F 
ATOM     29  C   UNL     1       5.746   6.053  15.378  0.00  0.00    +0.000 A 
ATOM     30  C   UNL     1       4.811   6.329  16.378  0.00  0.00    +0.000 A 
ENDBRANCH  22  24
ENDBRANCH   2  22
TORSDOF 5
ENDMDL
MODEL 9
REMARK VINA RESULT:      -7.8      4.073      8.941
REMARK  Name = 
REMARK  6 active torsions:
REMARK  status: ('A' for Active; 'I' for Inactive)
REMARK    1  A    between atoms: C_1  and  O_2
REMARK    2  A    between atoms: O_2  and  C_3
REMARK    3  A    between atoms: C_6  and  C_7
REMARK    4  A    between atoms: N_9  and  C_10
REMARK    5  A    between atoms: C_11  and  C_12
REMARK    6  A    between atoms: C_12  and  C_14
REMARK                            x       y       z     vdW  Elec       q    Type
REMARK                         _______ _______ _______ _____ _____    ______ ____
ROOT
ATOM      1  C   UNL     1       0.414  11.164  19.300  0.00  0.00    +0.000 A 
ATOM      2  C   UNL     1      -0.679  11.501  20.105  0.00  0.00    +0.000 A 
ATOM      3  O   UNL     1      -1.253  12.608  19.521  0.00  0.00    +0.000 OA
ATOM      4  C   UNL     1      -0.147  13.319  19.147  0.00  0.00    +0.000 A 
ATOM      5  C   UNL     1      -0.161  14.691  18.928  0.00  0.00    +0.000 A 
ATOM      6  C   UNL     1       1.054  15.321  19.168  0.00  0.00    +0.000 A 
ATOM      7  C   UNL     1       2.200  14.572  19.474  0.00  0.00    +0.000 A 
ATOM      8  C   UNL     1       2.210  13.155  19.431  0.00  0.00    +0.000 A 
ATOM      9  C   UNL     1       0.983  12.491  19.272  0.00  0.00    +0.000 A 
ENDROOT
BRANCH   1  12
ATOM     10  C   UNL     1       1.680   9.196  18.427  0.00  0.00    +0.000 C 
ATOM     11  O   UNL     1       2.214   9.719  17.442  0.00  0.00    +0.000 OA
ATOM     12  N   UNL     1       0.726   9.816  19.204  0.00  0.00    +0.000 N 
ATOM     13  H   UNL     1       0.397   9.294  20.001  0.00  0.00    +0.000 HD
BRANCH  10  17
ATOM     14  C   UNL     1       2.734   5.165  19.844  0.00  0.00    +0.000 A 
ATOM     15  C   UNL     1       2.034   6.078  20.628  0.00  0.00    +0.000 A 
ATOM     16  C   UNL     1       1.716   7.368  20.147  0.00  0.00    +0.000 A 
ATOM     17  C   UNL     1       2.116   7.797  18.876  0.00  0.00    +0.000 A 
ATOM     18  C   UNL     1       2.861   6.867  18.102  0.00  0.00    +0.000 A 
ATOM     19  C   UNL     1       3.160   5.568  18.579  0.00  0.00    +0.000 A 
BRANCH  14  21
ATOM     20  C   UNL     1       1.877   3.264  21.012  0.00  0.00    +0.000 C 
ATOM     21  O   UNL     1       2.981   3.960  20.442  0.00  0.00    +0.000 OA
ENDBRANCH  14  21
ENDBRANCH  10  17
ENDBRANCH   1  12
BRANCH   2  22
ATOM     22  C   UNL     1      -0.513  11.443  21.578  0.00  0.00    +0.000 C 
ATOM     23  O   UNL     1       0.377  10.760  22.090  0.00  0.00    +0.000 OA
BRANCH  22  24
ATOM     24  C   UNL     1      -1.252  12.334  22.515  0.00  0.00    +0.000 A 
ATOM     25  C   UNL     1      -2.488  11.870  23.021  0.00  0.00    +0.000 A 
ATOM     26  C   UNL     1      -3.266  12.681  23.849  0.00  0.00    +0.000 A 
ATOM     27  C   UNL     1      -2.808  13.946  24.178  0.00  0.00    +0.000 A 
ATOM     28  F   UNL     1      -3.555  14.740  24.953  0.00  0.00    +0.000 F 
ATOM     29  C   UNL     1      -1.579  14.407  23.707  0.00  0.00    +0.000 A 
ATOM     30  C   UNL     1      -0.797  13.603  22.875  0.00  0.00    +0.000 A 
ENDBRANCH  22  24
ENDBRANCH   2  22
TORSDOF 5
ENDMDL
