MODEL 1
REMARK VINA RESULT:      -8.6      0.000      0.000
REMARK  Name = 
REMARK  4 active torsions:
REMARK  status: ('A' for Active; 'I' for Inactive)
REMARK    1  A    between atoms: C_1  and  C_2
REMARK    2  A    between atoms: C_3  and  C_4
REMARK    3  A    between atoms: N_6  and  C_7
REMARK    4  A    between atoms: C_14  and  C_15
REMARK                            x       y       z     vdW  Elec       q    Type
REMARK                         _______ _______ _______ _____ _____    ______ ____
ROOT
ATOM      1  C   UNL     1       2.718  12.417  17.976  0.00  0.00    +0.000 C 
ATOM      2  C   UNL     1       1.620  11.632  18.645  0.00  0.00    +0.000 C 
ATOM      3  C   UNL     1       0.448  12.084  19.163  0.00  0.00    +0.000 C 
ATOM      4  C   UNL     1      -0.583  11.054  19.627  0.00  0.00    +0.000 C 
ATOM      5  N   UNL     1      -0.055   9.690  19.923  0.00  0.00    +0.000 NA
ATOM      6  C   UNL     1       1.084   9.386  19.388  0.00  0.00    +0.000 C 
ATOM      7  N   UNL     1       1.558   8.118  19.527  0.00  0.00    +0.000 N 
ATOM      8  C   UNL     1       2.481   7.474  18.797  0.00  0.00    +0.000 A 
ATOM      9  N   UNL     1       3.240   7.924  17.815  0.00  0.00    +0.000 NA
ATOM     10  C   UNL     1       3.914   6.806  17.389  0.00  0.00    +0.000 A 
ATOM     11  C   UNL     1       4.833   6.621  16.348  0.00  0.00    +0.000 A 
ATOM     12  C   UNL     1       5.368   5.337  16.159  0.00  0.00    +0.000 A 
ATOM     13  C   UNL     1       4.996   4.267  16.985  0.00  0.00    +0.000 A 
ATOM     14  C   UNL     1       4.071   4.435  18.022  0.00  0.00    +0.000 A 
ATOM     15  C   UNL     1       3.560   5.719  18.172  0.00  0.00    +0.000 A 
ATOM     16  O   UNL     1       2.636   6.145  19.081  0.00  0.00    +0.000 OA
ATOM     17  N   UNL     1       1.855  10.268  18.693  0.00  0.00    +0.000 N 
ATOM     18  H   UNL     1       0.961   7.540  20.102  0.00  0.00    +0.000 HD
ATOM     19  H   UNL     1       2.727   9.925  18.297  0.00  0.00    +0.000 HD
ENDROOT
BRANCH   4  20
ATOM     20  C   UNL     1      -1.717  10.924  18.605  0.00  0.00    +0.000 A 
ATOM     21  C   UNL     1      -1.541  10.061  17.491  0.00  0.00    +0.000 A 
ATOM     22  C   UNL     1      -2.533   9.886  16.534  0.00  0.00    +0.000 A 
ATOM     23  C   UNL     1      -3.745  10.547  16.674  0.00  0.00    +0.000 A 
ATOM     24  C   UNL     1      -3.957  11.384  17.769  0.00  0.00    +0.000 A 
ATOM     25  C   UNL     1      -2.956  11.574  18.733  0.00  0.00    +0.000 A 
ATOM     26 CL   UNL     1      -3.314  12.631  20.048  0.00  0.00    +0.000 Cl
ENDBRANCH   4  20
BRANCH   3  27
ATOM     27  C   UNL     1       0.075  13.543  19.185  0.00  0.00    +0.000 C 
ATOM     28  O   UNL     1      -0.417  14.082  18.200  0.00  0.00    +0.000 OA
ATOM     29  N   UNL     1       0.374  14.248  20.338  0.00  0.00    +0.000 N 
ATOM     30  H   UNL     1       1.063  13.878  20.980  0.00  0.00    +0.000 HD
BRANCH  29  31
ATOM     31  C   UNL     1       0.123  15.640  20.482  0.00  0.00    +0.000 A 
ATOM     32  C   UNL     1      -1.069  16.118  21.040  0.00  0.00    +0.000 A 
ATOM     33  C   UNL     1      -1.303  17.493  21.148  0.00  0.00    +0.000 A 
ATOM     34  C   UNL     1      -0.355  18.402  20.688  0.00  0.00    +0.000 A 
ATOM     35  C   UNL     1       0.841  17.940  20.138  0.00  0.00    +0.000 A 
ATOM     36  C   UNL     1       1.088  16.565  20.056  0.00  0.00    +0.000 A 
ATOM     37 CL   UNL     1       2.566  16.036  19.328  0.00  0.00    +0.000 Cl
ENDBRANCH  29  31
ENDBRANCH   3  27
TORSDOF 3
ENDMDL
MODEL 2
REMARK VINA RESULT:      -8.5      0.890      1.207
REMARK  Name = 
REMARK  4 active torsions:
REMARK  status: ('A' for Active; 'I' for Inactive)
REMARK    1  A    between atoms: C_1  and  C_2
REMARK    2  A    between atoms: C_3  and  C_4
REMARK    3  A    between atoms: N_6  and  C_7
REMARK    4  A    between atoms: C_14  and  C_15
REMARK                            x       y       z     vdW  Elec       q    Type
REMARK                         _______ _______ _______ _____ _____    ______ ____
ROOT
ATOM      1  C   UNL     1       2.805  12.404  17.900  0.00  0.00    +0.000 C 
ATOM      2  C   UNL     1       1.707  11.625  18.578  0.00  0.00    +0.000 C 
ATOM      3  C   UNL     1       0.542  12.083  19.105  0.00  0.00    +0.000 C 
ATOM      4  C   UNL     1      -0.492  11.059  19.576  0.00  0.00    +0.000 C 
ATOM      5  N   UNL     1       0.032   9.693  19.870  0.00  0.00    +0.000 NA
ATOM      6  C   UNL     1       1.165   9.383  19.327  0.00  0.00    +0.000 C 
ATOM      7  N   UNL     1       1.634   8.112  19.464  0.00  0.00    +0.000 N 
ATOM      8  C   UNL     1       2.548   7.463  18.728  0.00  0.00    +0.000 A 
ATOM      9  N   UNL     1       3.303   7.908  17.740  0.00  0.00    +0.000 NA
ATOM     10  C   UNL     1       3.967   6.786  17.310  0.00  0.00    +0.000 A 
ATOM     11  C   UNL     1       4.878   6.596  16.263  0.00  0.00    +0.000 A 
ATOM     12  C   UNL     1       5.405   5.309  16.070  0.00  0.00    +0.000 A 
ATOM     13  C   UNL     1       5.034   4.242  16.900  0.00  0.00    +0.000 A 
ATOM     14  C   UNL     1       4.117   4.415  17.944  0.00  0.00    +0.000 A 
ATOM     15  C   UNL     1       3.614   5.702  18.097  0.00  0.00    +0.000 A 
ATOM     16  O   UNL     1       2.698   6.134  19.011  0.00  0.00    +0.000 OA
ATOM     17  N   UNL     1       1.936  10.260  18.626  0.00  0.00    +0.000 N 
ATOM     18  H   UNL     1       1.038   7.538  20.044  0.00  0.00    +0.000 HD
ATOM     19  H   UNL     1       2.804   9.912  18.223  0.00  0.00    +0.000 HD
ENDROOT
BRANCH   4  20
ATOM     20  C   UNL     1      -1.633  10.934  18.564  0.00  0.00    +0.000 A 
ATOM     21  C   UNL     1      -1.452  10.106  17.424  0.00  0.00    +0.000 A 
ATOM     22  C   UNL     1      -2.451   9.937  16.473  0.00  0.00    +0.000 A 
ATOM     23  C   UNL     1      -3.674  10.569  16.643  0.00  0.00    +0.000 A 
ATOM     24  C   UNL     1      -3.891  11.371  17.763  0.00  0.00    +0.000 A 
ATOM     25  C   UNL     1      -2.884  11.554  18.721  0.00  0.00    +0.000 A 
ATOM     26 CL   UNL     1      -3.249  12.568  20.070  0.00  0.00    +0.000 Cl
ENDBRANCH   4  20
BRANCH   3  27
ATOM     27  C   UNL     1       0.176  13.545  19.128  0.00  0.00    +0.000 C 
ATOM     28  O   UNL     1      -0.483  14.043  18.222  0.00  0.00    +0.000 OA
ATOM     29  N   UNL     1       0.674  14.297  20.176  0.00  0.00    +0.000 N 
ATOM     30  H   UNL     1       1.467  13.951  20.702  0.00  0.00    +0.000 HD
BRANCH  29  31
ATOM     31  C   UNL     1       0.451  15.696  20.301  0.00  0.00    +0.000 A 
ATOM     32  C   UNL     1       1.249  16.631  19.632  0.00  0.00    +0.000 A 
ATOM     33  C   UNL     1       1.025  18.002  19.792  0.00  0.00    +0.000 A 
ATOM     34  C   UNL     1       0.010  18.452  20.631  0.00  0.00    +0.000 A 
ATOM     35  C   UNL     1      -0.799  17.531  21.298  0.00  0.00    +0.000 A 
ATOM     36  C   UNL     1      -0.594  16.159  21.116  0.00  0.00    +0.000 A 
ATOM     37 CL   UNL     1      -1.594  15.054  21.994  0.00  0.00    +0.000 Cl
ENDBRANCH  29  31
ENDBRANCH   3  27
TORSDOF 3
ENDMDL
MODEL 3
REMARK VINA RESULT:      -8.4      1.234      1.537
REMARK  Name = 
REMARK  4 active torsions:
REMARK  status: ('A' for Active; 'I' for Inactive)
REMARK    1  A    between atoms: C_1  and  C_2
REMARK    2  A    between atoms: C_3  and  C_4
REMARK    3  A    between atoms: N_6  and  C_7
REMARK    4  A    between atoms: C_14  and  C_15
REMARK                            x       y       z     vdW  Elec       q    Type
REMARK                         _______ _______ _______ _____ _____    ______ ____
ROOT
ATOM      1  C   UNL     1       2.560  11.727  17.858  0.00  0.00    +0.000 C 
ATOM      2  C   UNL     1       1.436  11.347  18.788  0.00  0.00    +0.000 C 
ATOM      3  C   UNL     1       0.389  12.104  19.208  0.00  0.00    +0.000 C 
ATOM      4  C   UNL     1      -0.720  11.423  20.012  0.00  0.00    +0.000 C 
ATOM      5  N   UNL     1      -0.348  10.138  20.674  0.00  0.00    +0.000 NA
ATOM      6  C   UNL     1       0.684   9.522  20.197  0.00  0.00    +0.000 C 
ATOM      7  N   UNL     1       0.999   8.291  20.684  0.00  0.00    +0.000 N 
ATOM      8  C   UNL     1       1.755   7.329  20.133  0.00  0.00    +0.000 A 
ATOM      9  N   UNL     1       2.469   7.354  19.023  0.00  0.00    +0.000 NA
ATOM     10  C   UNL     1       2.946   6.072  18.917  0.00  0.00    +0.000 A 
ATOM     11  C   UNL     1       3.730   5.455  17.933  0.00  0.00    +0.000 A 
ATOM     12  C   UNL     1       4.071   4.105  18.108  0.00  0.00    +0.000 A 
ATOM     13  C   UNL     1       3.643   3.389  19.235  0.00  0.00    +0.000 A 
ATOM     14  C   UNL     1       2.851   3.990  20.222  0.00  0.00    +0.000 A 
ATOM     15  C   UNL     1       2.530   5.325  20.007  0.00  0.00    +0.000 A 
ATOM     16  O   UNL     1       1.760   6.132  20.793  0.00  0.00    +0.000 OA
ATOM     17  N   UNL     1       1.494  10.036  19.230  0.00  0.00    +0.000 N 
ATOM     18  H   UNL     1       0.388   8.002  21.436  0.00  0.00    +0.000 HD
ATOM     19  H   UNL     1       2.272   9.463  18.910  0.00  0.00    +0.000 HD
ENDROOT
BRANCH   4  20
ATOM     20  C   UNL     1      -1.952  11.179  19.137  0.00  0.00    +0.000 A 
ATOM     21  C   UNL     1      -1.917  10.134  18.176  0.00  0.00    +0.000 A 
ATOM     22  C   UNL     1      -3.005   9.850  17.360  0.00  0.00    +0.000 A 
ATOM     23  C   UNL     1      -4.175  10.584  17.495  0.00  0.00    +0.000 A 
ATOM     24  C   UNL     1      -4.249  11.602  18.445  0.00  0.00    +0.000 A 
ATOM     25  C   UNL     1      -3.151  11.901  19.266  0.00  0.00    +0.000 A 
ATOM     26 CL   UNL     1      -3.342  13.180  20.408  0.00  0.00    +0.000 Cl
ENDBRANCH   4  20
BRANCH   3  27
ATOM     27  C   UNL     1       0.214  13.547  18.811  0.00  0.00    +0.000 C 
ATOM     28  O   UNL     1      -0.462  13.854  17.836  0.00  0.00    +0.000 OA
ATOM     29  N   UNL     1       0.903  14.488  19.555  0.00  0.00    +0.000 N 
ATOM     30  H   UNL     1       1.694  14.195  20.116  0.00  0.00    +0.000 HD
BRANCH  29  31
ATOM     31  C   UNL     1       0.871  15.880  19.267  0.00  0.00    +0.000 A 
ATOM     32  C   UNL     1      -0.102  16.723  19.817  0.00  0.00    +0.000 A 
ATOM     33  C   UNL     1      -0.128  18.084  19.498  0.00  0.00    +0.000 A 
ATOM     34  C   UNL     1       0.810  18.613  18.615  0.00  0.00    +0.000 A 
ATOM     35  C   UNL     1       1.790  17.786  18.066  0.00  0.00    +0.000 A 
ATOM     36  C   UNL     1       1.834  16.430  18.408  0.00  0.00    +0.000 A 
ATOM     37 CL   UNL     1       3.042  15.435  17.670  0.00  0.00    +0.000 Cl
ENDBRANCH  29  31
ENDBRANCH   3  27
TORSDOF 3
ENDMDL
MODEL 4
REMARK VINA RESULT:      -8.2      1.392      1.865
REMARK  Name = 
REMARK  4 active torsions:
REMARK  status: ('A' for Active; 'I' for Inactive)
REMARK    1  A    between atoms: C_1  and  C_2
REMARK    2  A    between atoms: C_3  and  C_4
REMARK    3  A    between atoms: N_6  and  C_7
REMARK    4  A    between atoms: C_14  and  C_15
REMARK                            x       y       z     vdW  Elec       q    Type
REMARK                         _______ _______ _______ _____ _____    ______ ____
ROOT
ATOM      1  C   UNL     1       2.586  11.634  17.828  0.00  0.00    +0.000 C 
ATOM      2  C   UNL     1       1.466  11.272  18.770  0.00  0.00    +0.000 C 
ATOM      3  C   UNL     1       0.430  12.044  19.193  0.00  0.00    +0.000 C 
ATOM      4  C   UNL     1      -0.678  11.381  20.012  0.00  0.00    +0.000 C 
ATOM      5  N   UNL     1      -0.315  10.097  20.681  0.00  0.00    +0.000 NA
ATOM      6  C   UNL     1       0.707   9.467  20.199  0.00  0.00    +0.000 C 
ATOM      7  N   UNL     1       1.013   8.236  20.694  0.00  0.00    +0.000 N 
ATOM      8  C   UNL     1       1.754   7.263  20.144  0.00  0.00    +0.000 A 
ATOM      9  N   UNL     1       2.460   7.271  19.028  0.00  0.00    +0.000 NA
ATOM     10  C   UNL     1       2.923   5.983  18.927  0.00  0.00    +0.000 A 
ATOM     11  C   UNL     1       3.691   5.351  17.941  0.00  0.00    +0.000 A 
ATOM     12  C   UNL     1       4.020   3.999  18.125  0.00  0.00    +0.000 A 
ATOM     13  C   UNL     1       3.594   3.296  19.261  0.00  0.00    +0.000 A 
ATOM     14  C   UNL     1       2.817   3.912  20.249  0.00  0.00    +0.000 A 
ATOM     15  C   UNL     1       2.508   5.249  20.027  0.00  0.00    +0.000 A 
ATOM     16  O   UNL     1       1.753   6.070  20.813  0.00  0.00    +0.000 OA
ATOM     17  N   UNL     1       1.514   9.965  19.222  0.00  0.00    +0.000 N 
ATOM     18  H   UNL     1       0.407   7.959  21.453  0.00  0.00    +0.000 HD
ATOM     19  H   UNL     1       2.283   9.381  18.899  0.00  0.00    +0.000 HD
ENDROOT
BRANCH   4  20
ATOM     20  C   UNL     1      -1.921  11.143  19.150  0.00  0.00    +0.000 A 
ATOM     21  C   UNL     1      -1.915  10.072  18.216  0.00  0.00    +0.000 A 
ATOM     22  C   UNL     1      -3.013   9.792  17.413  0.00  0.00    +0.000 A 
ATOM     23  C   UNL     1      -4.165  10.557  17.534  0.00  0.00    +0.000 A 
ATOM     24  C   UNL     1      -4.210  11.602  18.456  0.00  0.00    +0.000 A 
ATOM     25  C   UNL     1      -3.102  11.897  19.263  0.00  0.00    +0.000 A 
ATOM     26 CL   UNL     1      -3.256  13.210  20.372  0.00  0.00    +0.000 Cl
ENDBRANCH   4  20
BRANCH   3  27
ATOM     27  C   UNL     1       0.268  13.485  18.786  0.00  0.00    +0.000 C 
ATOM     28  O   UNL     1      -0.428  13.793  17.825  0.00  0.00    +0.000 OA
ATOM     29  N   UNL     1       0.988  14.423  19.504  0.00  0.00    +0.000 N 
ATOM     30  H   UNL     1       1.787  14.123  20.048  0.00  0.00    +0.000 HD
BRANCH  29  31
ATOM     31  C   UNL     1       0.969  15.812  19.203  0.00  0.00    +0.000 A 
ATOM     32  C   UNL     1       1.858  16.377  18.280  0.00  0.00    +0.000 A 
ATOM     33  C   UNL     1       1.835  17.750  18.019  0.00  0.00    +0.000 A 
ATOM     34  C   UNL     1       0.935  18.575  18.688  0.00  0.00    +0.000 A 
ATOM     35  C   UNL     1       0.039  18.025  19.605  0.00  0.00    +0.000 A 
ATOM     36  C   UNL     1       0.041  16.647  19.844  0.00  0.00    +0.000 A 
ATOM     37 CL   UNL     1      -1.060  16.014  21.020  0.00  0.00    +0.000 Cl
ENDBRANCH  29  31
ENDBRANCH   3  27
TORSDOF 3
ENDMDL
MODEL 5
REMARK VINA RESULT:      -7.8      1.115      1.115
REMARK  Name = 
REMARK  4 active torsions:
REMARK  status: ('A' for Active; 'I' for Inactive)
REMARK    1  A    between atoms: C_1  and  C_2
REMARK    2  A    between atoms: C_3  and  C_4
REMARK    3  A    between atoms: N_6  and  C_7
REMARK    4  A    between atoms: C_14  and  C_15
REMARK                            x       y       z     vdW  Elec       q    Type
REMARK                         _______ _______ _______ _____ _____    ______ ____
ROOT
ATOM      1  C   UNL     1       2.765  12.592  18.331  0.00  0.00    +0.000 C 
ATOM      2  C   UNL     1       1.658  11.783  18.958  0.00  0.00    +0.000 C 
ATOM      3  C   UNL     1       0.505  12.221  19.529  0.00  0.00    +0.000 C 
ATOM      4  C   UNL     1      -0.543  11.183  19.931  0.00  0.00    +0.000 C 
ATOM      5  N   UNL     1      -0.042   9.789  20.115  0.00  0.00    +0.000 NA
ATOM      6  C   UNL     1       1.081   9.501  19.541  0.00  0.00    +0.000 C 
ATOM      7  N   UNL     1       1.527   8.216  19.576  0.00  0.00    +0.000 N 
ATOM      8  C   UNL     1       2.423   7.607  18.784  0.00  0.00    +0.000 A 
ATOM      9  N   UNL     1       3.178   8.113  17.826  0.00  0.00    +0.000 NA
ATOM     10  C   UNL     1       3.818   7.015  17.306  0.00  0.00    +0.000 A 
ATOM     11  C   UNL     1       4.717   6.889  16.239  0.00  0.00    +0.000 A 
ATOM     12  C   UNL     1       5.218   5.611  15.945  0.00  0.00    +0.000 A 
ATOM     13  C   UNL     1       4.834   4.490  16.695  0.00  0.00    +0.000 A 
ATOM     14  C   UNL     1       3.928   4.601  17.758  0.00  0.00    +0.000 A 
ATOM     15  C   UNL     1       3.450   5.881  18.012  0.00  0.00    +0.000 A 
ATOM     16  O   UNL     1       2.550   6.258  18.965  0.00  0.00    +0.000 OA
ATOM     17  N   UNL     1       1.862  10.415  18.900  0.00  0.00    +0.000 N 
ATOM     18  H   UNL     1       0.925   7.609  20.116  0.00  0.00    +0.000 HD
ATOM     19  H   UNL     1       2.720  10.083  18.465  0.00  0.00    +0.000 HD
ENDROOT
BRANCH   4  20
ATOM     20  C   UNL     1      -1.694  11.155  18.923  0.00  0.00    +0.000 A 
ATOM     21  C   UNL     1      -1.535  10.420  17.718  0.00  0.00    +0.000 A 
ATOM     22  C   UNL     1      -2.544  10.341  16.766  0.00  0.00    +0.000 A 
ATOM     23  C   UNL     1      -3.757  10.974  16.998  0.00  0.00    +0.000 A 
ATOM     24  C   UNL     1      -3.953  11.686  18.181  0.00  0.00    +0.000 A 
ATOM     25  C   UNL     1      -2.935  11.778  19.142  0.00  0.00    +0.000 A 
ATOM     26 CL   UNL     1      -3.274  12.684  20.571  0.00  0.00    +0.000 Cl
ENDBRANCH   4  20
BRANCH   3  27
ATOM     27  C   UNL     1       0.167  13.683  19.666  0.00  0.00    +0.000 C 
ATOM     28  O   UNL     1      -0.375  14.111  20.678  0.00  0.00    +0.000 OA
ATOM     29  N   UNL     1       0.437  14.492  18.576  0.00  0.00    +0.000 N 
ATOM     30  H   UNL     1       0.562  14.070  17.665  0.00  0.00    +0.000 HD
BRANCH  29  31
ATOM     31  C   UNL     1       0.128  15.880  18.546  0.00  0.00    +0.000 A 
ATOM     32  C   UNL     1      -1.157  16.353  18.834  0.00  0.00    +0.000 A 
ATOM     33  C   UNL     1      -1.442  17.721  18.773  0.00  0.00    +0.000 A 
ATOM     34  C   UNL     1      -0.449  18.626  18.409  0.00  0.00    +0.000 A 
ATOM     35  C   UNL     1       0.838  18.169  18.127  0.00  0.00    +0.000 A 
ATOM     36  C   UNL     1       1.131  16.804  18.216  0.00  0.00    +0.000 A 
ATOM     37 CL   UNL     1       2.730  16.278  17.817  0.00  0.00    +0.000 Cl
ENDBRANCH  29  31
ENDBRANCH   3  27
TORSDOF 3
ENDMDL
MODEL 6
REMARK VINA RESULT:      -7.3      1.739      2.043
REMARK  Name = 
REMARK  4 active torsions:
REMARK  status: ('A' for Active; 'I' for Inactive)
REMARK    1  A    between atoms: C_1  and  C_2
REMARK    2  A    between atoms: C_3  and  C_4
REMARK    3  A    between atoms: N_6  and  C_7
REMARK    4  A    between atoms: C_14  and  C_15
REMARK                            x       y       z     vdW  Elec       q    Type
REMARK                         _______ _______ _______ _____ _____    ______ ____
ROOT
ATOM      1  C   UNL     1       2.598  12.244  18.738  0.00  0.00    +0.000 C 
ATOM      2  C   UNL     1       1.477  11.804  19.645  0.00  0.00    +0.000 C 
ATOM      3  C   UNL     1       0.498  12.557  20.211  0.00  0.00    +0.000 C 
ATOM      4  C   UNL     1      -0.633  11.839  20.948  0.00  0.00    +0.000 C 
ATOM      5  N   UNL     1      -0.336  10.448  21.400  0.00  0.00    +0.000 NA
ATOM      6  C   UNL     1       0.636   9.843  20.798  0.00  0.00    +0.000 C 
ATOM      7  N   UNL     1       0.877   8.535  21.087  0.00  0.00    +0.000 N 
ATOM      8  C   UNL     1       1.547   7.619  20.372  0.00  0.00    +0.000 A 
ATOM      9  N   UNL     1       2.230   7.761  19.252  0.00  0.00    +0.000 NA
ATOM     10  C   UNL     1       2.612   6.480  18.940  0.00  0.00    +0.000 A 
ATOM     11  C   UNL     1       3.322   5.967  17.847  0.00  0.00    +0.000 A 
ATOM     12  C   UNL     1       3.571   4.586  17.809  0.00  0.00    +0.000 A 
ATOM     13  C   UNL     1       3.125   3.741  18.834  0.00  0.00    +0.000 A 
ATOM     14  C   UNL     1       2.405   4.238  19.928  0.00  0.00    +0.000 A 
ATOM     15  C   UNL     1       2.174   5.609  19.924  0.00  0.00    +0.000 A 
ATOM     16  O   UNL     1       1.486   6.338  20.849  0.00  0.00    +0.000 OA
ATOM     17  N   UNL     1       1.454  10.441  19.887  0.00  0.00    +0.000 N 
ATOM     18  H   UNL     1       0.269   8.178  21.811  0.00  0.00    +0.000 HD
ATOM     19  H   UNL     1       2.180   9.872  19.457  0.00  0.00    +0.000 HD
ENDROOT
BRANCH   4  20
ATOM     20  C   UNL     1      -1.904  11.810  20.095  0.00  0.00    +0.000 A 
ATOM     21  C   UNL     1      -1.920  11.023  18.912  0.00  0.00    +0.000 A 
ATOM     22  C   UNL     1      -3.044  10.941  18.100  0.00  0.00    +0.000 A 
ATOM     23  C   UNL     1      -4.199  11.623  18.456  0.00  0.00    +0.000 A 
ATOM     24  C   UNL     1      -4.223  12.386  19.622  0.00  0.00    +0.000 A 
ATOM     25  C   UNL     1      -3.089  12.482  20.442  0.00  0.00    +0.000 A 
ATOM     26 CL   UNL     1      -3.217  13.454  21.862  0.00  0.00    +0.000 Cl
ENDBRANCH   4  20
BRANCH   3  27
ATOM     27  C   UNL     1       0.415  14.052  20.037  0.00  0.00    +0.000 C 
ATOM     28  O   UNL     1       0.268  14.790  21.004  0.00  0.00    +0.000 OA
ATOM     29  N   UNL     1       0.448  14.533  18.740  0.00  0.00    +0.000 N 
ATOM     30  H   UNL     1       0.232  13.908  17.975  0.00  0.00    +0.000 HD
BRANCH  29  31
ATOM     31  C   UNL     1       0.331  15.914  18.423  0.00  0.00    +0.000 A 
ATOM     32  C   UNL     1      -0.912  16.557  18.380  0.00  0.00    +0.000 A 
ATOM     33  C   UNL     1      -1.002  17.910  18.041  0.00  0.00    +0.000 A 
ATOM     34  C   UNL     1       0.148  18.631  17.728  0.00  0.00    +0.000 A 
ATOM     35  C   UNL     1       1.394  18.005  17.775  0.00  0.00    +0.000 A 
ATOM     36  C   UNL     1       1.487  16.659  18.143  0.00  0.00    +0.000 A 
ATOM     37 CL   UNL     1       3.048  15.913  18.147  0.00  0.00    +0.000 Cl
ENDBRANCH  29  31
ENDBRANCH   3  27
TORSDOF 3
ENDMDL
MODEL 7
REMARK VINA RESULT:      -7.3      2.704      4.349
REMARK  Name = 
REMARK  4 active torsions:
REMARK  status: ('A' for Active; 'I' for Inactive)
REMARK    1  A    between atoms: C_1  and  C_2
REMARK    2  A    between atoms: C_3  and  C_4
REMARK    3  A    between atoms: N_6  and  C_7
REMARK    4  A    between atoms: C_14  and  C_15
REMARK                            x       y       z     vdW  Elec       q    Type
REMARK                         _______ _______ _______ _____ _____    ______ ____
ROOT
ATOM      1  C   UNL     1      -0.607   9.131  21.627  0.00  0.00    +0.000 C 
ATOM      2  C   UNL     1      -0.211  10.037  20.490  0.00  0.00    +0.000 C 
ATOM      3  C   UNL     1      -0.616  11.309  20.237  0.00  0.00    +0.000 C 
ATOM      4  C   UNL     1       0.076  12.079  19.111  0.00  0.00    +0.000 C 
ATOM      5  N   UNL     1       0.776  11.248  18.089  0.00  0.00    +0.000 NA
ATOM      6  C   UNL     1       1.090  10.044  18.443  0.00  0.00    +0.000 C 
ATOM      7  N   UNL     1       1.832   9.281  17.594  0.00  0.00    +0.000 N 
ATOM      8  C   UNL     1       2.569   8.192  17.859  0.00  0.00    +0.000 A 
ATOM      9  N   UNL     1       2.695   7.516  18.986  0.00  0.00    +0.000 NA
ATOM     10  C   UNL     1       3.643   6.568  18.690  0.00  0.00    +0.000 A 
ATOM     11  C   UNL     1       4.239   5.578  19.482  0.00  0.00    +0.000 A 
ATOM     12  C   UNL     1       5.190   4.736  18.884  0.00  0.00    +0.000 A 
ATOM     13  C   UNL     1       5.534   4.876  17.532  0.00  0.00    +0.000 A 
ATOM     14  C   UNL     1       4.954   5.867  16.731  0.00  0.00    +0.000 A 
ATOM     15  C   UNL     1       4.023   6.684  17.363  0.00  0.00    +0.000 A 
ATOM     16  O   UNL     1       3.334   7.731  16.824  0.00  0.00    +0.000 OA
ATOM     17  N   UNL     1       0.712   9.477  19.623  0.00  0.00    +0.000 N 
ATOM     18  H   UNL     1       2.024   9.747  16.718  0.00  0.00    +0.000 HD
ATOM     19  H   UNL     1       1.025   8.528  19.814  0.00  0.00    +0.000 HD
ENDROOT
BRANCH   4  20
ATOM     20  C   UNL     1       1.074  13.091  19.680  0.00  0.00    +0.000 A 
ATOM     21  C   UNL     1       2.155  12.619  20.472  0.00  0.00    +0.000 A 
ATOM     22  C   UNL     1       3.103  13.481  21.008  0.00  0.00    +0.000 A 
ATOM     23  C   UNL     1       3.019  14.842  20.748  0.00  0.00    +0.000 A 
ATOM     24  C   UNL     1       1.983  15.334  19.956  0.00  0.00    +0.000 A 
ATOM     25  C   UNL     1       1.015  14.471  19.420  0.00  0.00    +0.000 A 
ATOM     26 CL   UNL     1      -0.229  15.177  18.456  0.00  0.00    +0.000 Cl
ENDBRANCH   4  20
BRANCH   3  27
ATOM     27  C   UNL     1      -1.625  12.029  21.094  0.00  0.00    +0.000 C 
ATOM     28  O   UNL     1      -2.697  12.398  20.629  0.00  0.00    +0.000 OA
ATOM     29  N   UNL     1      -1.253  12.306  22.398  0.00  0.00    +0.000 N 
ATOM     30  H   UNL     1      -0.272  12.297  22.645  0.00  0.00    +0.000 HD
BRANCH  29  31
ATOM     31  C   UNL     1      -2.082  13.020  23.305  0.00  0.00    +0.000 A 
ATOM     32  C   UNL     1      -3.241  12.450  23.847  0.00  0.00    +0.000 A 
ATOM     33  C   UNL     1      -4.054  13.182  24.718  0.00  0.00    +0.000 A 
ATOM     34  C   UNL     1      -3.724  14.494  25.046  0.00  0.00    +0.000 A 
ATOM     35  C   UNL     1      -2.568  15.072  24.520  0.00  0.00    +0.000 A 
ATOM     36  C   UNL     1      -1.739  14.331  23.671  0.00  0.00    +0.000 A 
ATOM     37 CL   UNL     1      -0.338  15.101  23.010  0.00  0.00    +0.000 Cl
ENDBRANCH  29  31
ENDBRANCH   3  27
TORSDOF 3
ENDMDL
MODEL 8
REMARK VINA RESULT:      -7.2      2.766      4.562
REMARK  Name = 
REMARK  4 active torsions:
REMARK  status: ('A' for Active; 'I' for Inactive)
REMARK    1  A    between atoms: C_1  and  C_2
REMARK    2  A    between atoms: C_3  and  C_4
REMARK    3  A    between atoms: N_6  and  C_7
REMARK    4  A    between atoms: C_14  and  C_15
REMARK                            x       y       z     vdW  Elec       q    Type
REMARK                         _______ _______ _______ _____ _____    ______ ____
ROOT
ATOM      1  C   UNL     1      -0.438   9.510  22.273  0.00  0.00    +0.000 C 
ATOM      2  C   UNL     1      -0.180  10.361  21.057  0.00  0.00    +0.000 C 
ATOM      3  C   UNL     1      -0.588  11.634  20.809  0.00  0.00    +0.000 C 
ATOM      4  C   UNL     1      -0.037  12.342  19.571  0.00  0.00    +0.000 C 
ATOM      5  N   UNL     1       0.502  11.455  18.499  0.00  0.00    +0.000 NA
ATOM      6  C   UNL     1       0.835  10.257  18.857  0.00  0.00    +0.000 C 
ATOM      7  N   UNL     1       1.440   9.443  17.949  0.00  0.00    +0.000 N 
ATOM      8  C   UNL     1       2.183   8.346  18.158  0.00  0.00    +0.000 A 
ATOM      9  N   UNL     1       2.445   7.710  19.284  0.00  0.00    +0.000 NA
ATOM     10  C   UNL     1       3.324   6.726  18.904  0.00  0.00    +0.000 A 
ATOM     11  C   UNL     1       4.000   5.752  19.649  0.00  0.00    +0.000 A 
ATOM     12  C   UNL     1       4.843   4.863  18.964  0.00  0.00    +0.000 A 
ATOM     13  C   UNL     1       5.007   4.943  17.574  0.00  0.00    +0.000 A 
ATOM     14  C   UNL     1       4.345   5.918  16.818  0.00  0.00    +0.000 A 
ATOM     15  C   UNL     1       3.525   6.783  17.534  0.00  0.00    +0.000 A 
ATOM     16  O   UNL     1       2.792   7.826  17.049  0.00  0.00    +0.000 OA
ATOM     17  N   UNL     1       0.607   9.746  20.099  0.00  0.00    +0.000 N 
ATOM     18  H   UNL     1       1.523   9.871  17.037  0.00  0.00    +0.000 HD
ATOM     19  H   UNL     1       0.923   8.796  20.285  0.00  0.00    +0.000 HD
ENDROOT
BRANCH   4  20
ATOM     20  C   UNL     1       1.050  13.348  19.961  0.00  0.00    +0.000 A 
ATOM     21  C   UNL     1       2.163  12.897  20.718  0.00  0.00    +0.000 A 
ATOM     22  C   UNL     1       3.191  13.753  21.094  0.00  0.00    +0.000 A 
ATOM     23  C   UNL     1       3.154  15.084  20.701  0.00  0.00    +0.000 A 
ATOM     24  C   UNL     1       2.085  15.553  19.938  0.00  0.00    +0.000 A 
ATOM     25  C   UNL     1       1.039  14.696  19.564  0.00  0.00    +0.000 A 
ATOM     26 CL   UNL     1      -0.239  15.372  18.622  0.00  0.00    +0.000 Cl
ENDBRANCH   4  20
BRANCH   3  27
ATOM     27  C   UNL     1      -1.457  12.412  21.763  0.00  0.00    +0.000 C 
ATOM     28  O   UNL     1      -1.050  12.716  22.878  0.00  0.00    +0.000 OA
ATOM     29  N   UNL     1      -2.743  12.702  21.343  0.00  0.00    +0.000 N 
ATOM     30  H   UNL     1      -3.150  12.165  20.588  0.00  0.00    +0.000 HD
BRANCH  29  31
ATOM     31  C   UNL     1      -3.687  13.388  22.155  0.00  0.00    +0.000 A 
ATOM     32  C   UNL     1      -4.556  12.701  23.011  0.00  0.00    +0.000 A 
ATOM     33  C   UNL     1      -5.494  13.397  23.781  0.00  0.00    +0.000 A 
ATOM     34  C   UNL     1      -5.581  14.783  23.692  0.00  0.00    +0.000 A 
ATOM     35  C   UNL     1      -4.716  15.481  22.849  0.00  0.00    +0.000 A 
ATOM     36  C   UNL     1      -3.758  14.788  22.101  0.00  0.00    +0.000 A 
ATOM     37 CL   UNL     1      -2.734  15.690  21.037  0.00  0.00    +0.000 Cl
ENDBRANCH  29  31
ENDBRANCH   3  27
TORSDOF 3
ENDMDL
MODEL 9
REMARK VINA RESULT:      -7.2      2.644      4.703
REMARK  Name = 
REMARK  4 active torsions:
REMARK  status: ('A' for Active; 'I' for Inactive)
REMARK    1  A    between atoms: C_1  and  C_2
REMARK    2  A    between atoms: C_3  and  C_4
REMARK    3  A    between atoms: N_6  and  C_7
REMARK    4  A    between atoms: C_14  and  C_15
REMARK                            x       y       z     vdW  Elec       q    Type
REMARK                         _______ _______ _______ _____ _____    ______ ____
ROOT
ATOM      1  C   UNL     1      -0.857  11.787  21.326  0.00  0.00    +0.000 C 
ATOM      2  C   UNL     1       0.103  12.237  20.255  0.00  0.00    +0.000 C 
ATOM      3  C   UNL     1       0.398  13.503  19.856  0.00  0.00    +0.000 C 
ATOM      4  C   UNL     1       1.547  13.701  18.868  0.00  0.00    +0.000 C 
ATOM      5  N   UNL     1       1.928  12.503  18.064  0.00  0.00    +0.000 NA
ATOM      6  C   UNL     1       1.570  11.354  18.538  0.00  0.00    +0.000 C 
ATOM      7  N   UNL     1       1.990  10.222  17.909  0.00  0.00    +0.000 N 
ATOM      8  C   UNL     1       2.068   8.970  18.381  0.00  0.00    +0.000 A 
ATOM      9  N   UNL     1       1.670   8.482  19.542  0.00  0.00    +0.000 NA
ATOM     10  C   UNL     1       2.089   7.176  19.505  0.00  0.00    +0.000 A 
ATOM     11  C   UNL     1       2.004   6.151  20.456  0.00  0.00    +0.000 A 
ATOM     12  C   UNL     1       2.526   4.892  20.119  0.00  0.00    +0.000 A 
ATOM     13  C   UNL     1       3.114   4.661  18.868  0.00  0.00    +0.000 A 
ATOM     14  C   UNL     1       3.214   5.679  17.911  0.00  0.00    +0.000 A 
ATOM     15  C   UNL     1       2.693   6.912  18.286  0.00  0.00    +0.000 A 
ATOM     16  O   UNL     1       2.682   8.066  17.559  0.00  0.00    +0.000 OA
ATOM     17  N   UNL     1       0.780  11.200  19.636  0.00  0.00    +0.000 N 
ATOM     18  H   UNL     1       2.522  10.417  17.072  0.00  0.00    +0.000 HD
ATOM     19  H   UNL     1       0.568  10.251  19.939  0.00  0.00    +0.000 HD
ENDROOT
BRANCH   4  20
ATOM     20  C   UNL     1       2.796  14.221  19.586  0.00  0.00    +0.000 A 
ATOM     21  C   UNL     1       3.046  13.801  20.920  0.00  0.00    +0.000 A 
ATOM     22  C   UNL     1       4.167  14.224  21.624  0.00  0.00    +0.000 A 
ATOM     23  C   UNL     1       5.090  15.058  21.010  0.00  0.00    +0.000 A 
ATOM     24  C   UNL     1       4.884  15.470  19.693  0.00  0.00    +0.000 A 
ATOM     25  C   UNL     1       3.750  15.056  18.980  0.00  0.00    +0.000 A 
ATOM     26 CL   UNL     1       3.585  15.622  17.358  0.00  0.00    +0.000 Cl
ENDBRANCH   4  20
BRANCH   3  27
ATOM     27  C   UNL     1      -0.275  14.719  20.439  0.00  0.00    +0.000 C 
ATOM     28  O   UNL     1       0.119  15.212  21.490  0.00  0.00    +0.000 OA
ATOM     29  N   UNL     1      -1.385  15.200  19.769  0.00  0.00    +0.000 N 
ATOM     30  H   UNL     1      -1.875  14.595  19.123  0.00  0.00    +0.000 HD
BRANCH  29  31
ATOM     31  C   UNL     1      -2.147  16.310  20.229  0.00  0.00    +0.000 A 
ATOM     32  C   UNL     1      -2.995  16.211  21.339  0.00  0.00    +0.000 A 
ATOM     33  C   UNL     1      -3.752  17.310  21.756  0.00  0.00    +0.000 A 
ATOM     34  C   UNL     1      -3.680  18.514  21.060  0.00  0.00    +0.000 A 
ATOM     35  C   UNL     1      -2.833  18.629  19.957  0.00  0.00    +0.000 A 
ATOM     36  C   UNL     1      -2.053  17.539  19.557  0.00  0.00    +0.000 A 
ATOM     37 CL   UNL     1      -1.048  17.714  18.160  0.00  0.00    +0.000 Cl
ENDBRANCH  29  31
ENDBRANCH   3  27
TORSDOF 3
ENDMDL
