MODEL 1
REMARK VINA RESULT:      -6.1      0.000      0.000
REMARK  Name = 
REMARK  7 active torsions:
REMARK  status: ('A' for Active; 'I' for Inactive)
REMARK    1  A    between atoms: C_1  and  C_2
REMARK    2  A    between atoms: C_2  and  N_3
REMARK    3  A    between atoms: N_15  and  C_16
REMARK    4  A    between atoms: C_19  and  C_20
REMARK    5  A    between atoms: C_23  and  C_24
REMARK    6  A    between atoms: N_25  and  C_26
REMARK    7  A    between atoms: C_26  and  C_27
REMARK                            x       y       z     vdW  Elec       q    Type
REMARK                         _______ _______ _______ _____ _____    ______ ____
ROOT
ATOM      1  N   UNL     1      -0.637  11.382  22.563  0.00  0.00    +0.000 N 
ATOM      2  C   UNL     1       0.388  11.745  21.662  0.00  0.00    +0.000 A 
ATOM      3  O   UNL     1       1.256  11.002  21.241  0.00  0.00    +0.000 OA
ATOM      4  C   UNL     1       0.158  13.175  21.212  0.00  0.00    +0.000 A 
ATOM      5  C   UNL     1       0.721  13.901  20.215  0.00  0.00    +0.000 C 
ATOM      6  S   UNL     1       2.176  13.310  19.349  0.00  0.00    +0.000 S 
ATOM      7  C   UNL     1       2.311  14.897  18.526  0.00  0.00    +0.000 A 
ATOM      8  C   UNL     1       3.327  15.304  17.668  0.00  0.00    +0.000 A 
ATOM      9  C   UNL     1       3.252  16.576  17.094  0.00  0.00    +0.000 A 
ATOM     10  C   UNL     1       2.175  17.419  17.379  0.00  0.00    +0.000 A 
ATOM     11  C   UNL     1       1.170  17.008  18.257  0.00  0.00    +0.000 A 
ATOM     12  C   UNL     1       1.230  15.741  18.838  0.00  0.00    +0.000 A 
ATOM     13  N   UNL     1       0.320  15.189  19.760  0.00  0.00    +0.000 N 
ATOM     14  C   UNL     1      -0.987  15.811  19.905  0.00  0.00    +0.000 C 
ATOM     15  S   UNL     1      -1.038  13.881  22.258  0.00  0.00    +0.000 S 
ATOM     16  C   UNL     1      -1.599  12.341  22.788  0.00  0.00    +0.000 A 
ATOM     17  C   UNL     1      -2.838  12.176  23.287  0.00  0.00    +0.000 C 
ENDROOT
BRANCH  17  18
ATOM     18  C   UNL     1      -3.786  13.241  23.191  0.00  0.00    +0.000 A 
ATOM     19  S   UNL     1      -3.849  14.458  24.417  0.00  0.00    +0.000 S 
ATOM     20  C   UNL     1      -5.329  15.070  23.822  0.00  0.00    +0.000 A 
ATOM     21  C   UNL     1      -5.689  14.416  22.661  0.00  0.00    +0.000 A 
ATOM     22  C   UNL     1      -6.871  14.714  21.817  0.00  0.00    +0.000 C 
ATOM     23  N   UNL     1      -4.804  13.379  22.343  0.00  0.00    +0.000 N 
BRANCH  23  24
ATOM     24  C   UNL     1      -5.023  12.460  21.211  0.00  0.00    +0.000 C 
ATOM     25  C   UNL     1      -4.178  12.840  20.008  0.00  0.00    +0.000 C 
ENDBRANCH  23  24
ENDBRANCH  17  18
BRANCH   1  27
ATOM     26  C   UNL     1      -0.564   8.905  22.202  0.00  0.00    +0.000 C 
ATOM     27  C   UNL     1      -0.638  10.058  23.193  0.00  0.00    +0.000 C 
ENDBRANCH   1  27
TORSDOF 3
ENDMDL
MODEL 2
REMARK VINA RESULT:      -6.0      1.100      1.815
REMARK  Name = 
REMARK  7 active torsions:
REMARK  status: ('A' for Active; 'I' for Inactive)
REMARK    1  A    between atoms: C_1  and  C_2
REMARK    2  A    between atoms: C_2  and  N_3
REMARK    3  A    between atoms: N_15  and  C_16
REMARK    4  A    between atoms: C_19  and  C_20
REMARK    5  A    between atoms: C_23  and  C_24
REMARK    6  A    between atoms: N_25  and  C_26
REMARK    7  A    between atoms: C_26  and  C_27
REMARK                            x       y       z     vdW  Elec       q    Type
REMARK                         _______ _______ _______ _____ _____    ______ ____
ROOT
ATOM      1  N   UNL     1      -0.558  11.374  22.540  0.00  0.00    +0.000 N 
ATOM      2  C   UNL     1       0.460  11.773  21.646  0.00  0.00    +0.000 A 
ATOM      3  O   UNL     1       1.358  11.062  21.233  0.00  0.00    +0.000 OA
ATOM      4  C   UNL     1       0.181  13.193  21.192  0.00  0.00    +0.000 A 
ATOM      5  C   UNL     1       0.725  13.938  20.198  0.00  0.00    +0.000 C 
ATOM      6  S   UNL     1       2.207  13.400  19.344  0.00  0.00    +0.000 S 
ATOM      7  C   UNL     1       2.290  14.989  18.519  0.00  0.00    +0.000 A 
ATOM      8  C   UNL     1       3.297  15.432  17.669  0.00  0.00    +0.000 A 
ATOM      9  C   UNL     1       3.180  16.700  17.092  0.00  0.00    +0.000 A 
ATOM     10  C   UNL     1       2.071  17.504  17.368  0.00  0.00    +0.000 A 
ATOM     11  C   UNL     1       1.075  17.057  18.239  0.00  0.00    +0.000 A 
ATOM     12  C   UNL     1       1.177  15.794  18.823  0.00  0.00    +0.000 A 
ATOM     13  N   UNL     1       0.280  15.210  19.738  0.00  0.00    +0.000 N 
ATOM     14  C   UNL     1      -1.049  15.784  19.873  0.00  0.00    +0.000 C 
ATOM     15  S   UNL     1      -1.048  13.857  22.228  0.00  0.00    +0.000 S 
ATOM     16  C   UNL     1      -1.557  12.297  22.756  0.00  0.00    +0.000 A 
ATOM     17  C   UNL     1      -2.792  12.089  23.246  0.00  0.00    +0.000 C 
ENDROOT
BRANCH  17  18
ATOM     18  C   UNL     1      -3.778  13.118  23.141  0.00  0.00    +0.000 A 
ATOM     19  S   UNL     1      -4.660  13.326  21.669  0.00  0.00    +0.000 S 
ATOM     20  C   UNL     1      -5.287  14.829  22.184  0.00  0.00    +0.000 A 
ATOM     21  C   UNL     1      -4.904  15.092  23.483  0.00  0.00    +0.000 A 
ATOM     22  C   UNL     1      -5.307  16.264  24.297  0.00  0.00    +0.000 C 
ATOM     23  N   UNL     1      -4.039  14.113  23.987  0.00  0.00    +0.000 N 
BRANCH  23  24
ATOM     24  C   UNL     1      -3.402  14.214  25.313  0.00  0.00    +0.000 C 
ATOM     25  C   UNL     1      -2.261  15.214  25.314  0.00  0.00    +0.000 C 
ENDBRANCH  23  24
ENDBRANCH  17  18
BRANCH   1  27
ATOM     26  C   UNL     1      -0.610   8.896  22.186  0.00  0.00    +0.000 C 
ATOM     27  C   UNL     1      -0.516  10.052  23.172  0.00  0.00    +0.000 C 
ENDBRANCH   1  27
TORSDOF 3
ENDMDL
MODEL 3
REMARK VINA RESULT:      -5.9      3.940      4.940
REMARK  Name = 
REMARK  7 active torsions:
REMARK  status: ('A' for Active; 'I' for Inactive)
REMARK    1  A    between atoms: C_1  and  C_2
REMARK    2  A    between atoms: C_2  and  N_3
REMARK    3  A    between atoms: N_15  and  C_16
REMARK    4  A    between atoms: C_19  and  C_20
REMARK    5  A    between atoms: C_23  and  C_24
REMARK    6  A    between atoms: N_25  and  C_26
REMARK    7  A    between atoms: C_26  and  C_27
REMARK                            x       y       z     vdW  Elec       q    Type
REMARK                         _______ _______ _______ _____ _____    ______ ____
ROOT
ATOM      1  N   UNL     1      -3.262  13.035  23.060  0.00  0.00    +0.000 N 
ATOM      2  C   UNL     1      -2.181  12.137  22.918  0.00  0.00    +0.000 A 
ATOM      3  O   UNL     1      -1.648  11.523  23.824  0.00  0.00    +0.000 OA
ATOM      4  C   UNL     1      -1.875  11.970  21.442  0.00  0.00    +0.000 A 
ATOM      5  C   UNL     1      -1.093  11.079  20.786  0.00  0.00    +0.000 C 
ATOM      6  S   UNL     1       0.040  10.011  21.675  0.00  0.00    +0.000 S 
ATOM      7  C   UNL     1       0.740   9.478  20.114  0.00  0.00    +0.000 A 
ATOM      8  C   UNL     1       1.828   8.631  19.937  0.00  0.00    +0.000 A 
ATOM      9  C   UNL     1       2.219   8.302  18.636  0.00  0.00    +0.000 A 
ATOM     10  C   UNL     1       1.528   8.818  17.537  0.00  0.00    +0.000 A 
ATOM     11  C   UNL     1       0.448   9.683  17.725  0.00  0.00    +0.000 A 
ATOM     12  C   UNL     1       0.044  10.020  19.017  0.00  0.00    +0.000 A 
ATOM     13  N   UNL     1      -0.998  10.896  19.376  0.00  0.00    +0.000 N 
ATOM     14  C   UNL     1      -1.986  11.251  18.370  0.00  0.00    +0.000 C 
ATOM     15  S   UNL     1      -2.723  13.216  20.575  0.00  0.00    +0.000 S 
ATOM     16  C   UNL     1      -3.805  13.503  21.884  0.00  0.00    +0.000 A 
ATOM     17  C   UNL     1      -5.015  14.059  21.689  0.00  0.00    +0.000 C 
ENDROOT
BRANCH  17  18
ATOM     18  C   UNL     1      -5.509  14.230  20.359  0.00  0.00    +0.000 A 
ATOM     19  S   UNL     1      -5.682  15.817  19.696  0.00  0.00    +0.000 S 
ATOM     20  C   UNL     1      -6.583  15.233  18.368  0.00  0.00    +0.000 A 
ATOM     21  C   UNL     1      -6.646  13.855  18.398  0.00  0.00    +0.000 A 
ATOM     22  C   UNL     1      -7.281  12.983  17.380  0.00  0.00    +0.000 C 
ATOM     23  N   UNL     1      -6.044  13.322  19.544  0.00  0.00    +0.000 N 
BRANCH  23  24
ATOM     24  C   UNL     1      -6.069  11.884  19.867  0.00  0.00    +0.000 C 
ATOM     25  C   UNL     1      -7.292  11.513  20.684  0.00  0.00    +0.000 C 
ENDBRANCH  23  24
ENDBRANCH  17  18
BRANCH   1  27
ATOM     26  C   UNL     1      -4.733  12.428  24.993  0.00  0.00    +0.000 C 
ATOM     27  C   UNL     1      -3.743  13.415  24.392  0.00  0.00    +0.000 C 
ENDBRANCH   1  27
TORSDOF 3
ENDMDL
MODEL 4
REMARK VINA RESULT:      -5.6      6.175      8.418
REMARK  Name = 
REMARK  7 active torsions:
REMARK  status: ('A' for Active; 'I' for Inactive)
REMARK    1  A    between atoms: C_1  and  C_2
REMARK    2  A    between atoms: C_2  and  N_3
REMARK    3  A    between atoms: N_15  and  C_16
REMARK    4  A    between atoms: C_19  and  C_20
REMARK    5  A    between atoms: C_23  and  C_24
REMARK    6  A    between atoms: N_25  and  C_26
REMARK    7  A    between atoms: C_26  and  C_27
REMARK                            x       y       z     vdW  Elec       q    Type
REMARK                         _______ _______ _______ _____ _____    ______ ____
ROOT
ATOM      1  N   UNL     1       6.124  13.859  23.657  0.00  0.00    +0.000 N 
ATOM      2  C   UNL     1       7.285  13.214  23.178  0.00  0.00    +0.000 A 
ATOM      3  O   UNL     1       7.865  12.299  23.733  0.00  0.00    +0.000 OA
ATOM      4  C   UNL     1       7.617  13.763  21.804  0.00  0.00    +0.000 A 
ATOM      5  C   UNL     1       8.485  13.334  20.855  0.00  0.00    +0.000 C 
ATOM      6  S   UNL     1       9.705  12.071  21.220  0.00  0.00    +0.000 S 
ATOM      7  C   UNL     1      10.465  12.366  19.623  0.00  0.00    +0.000 A 
ATOM      8  C   UNL     1      11.629  11.783  19.137  0.00  0.00    +0.000 A 
ATOM      9  C   UNL     1      12.061  12.115  17.850  0.00  0.00    +0.000 A 
ATOM     10  C   UNL     1      11.333  13.018  17.070  0.00  0.00    +0.000 A 
ATOM     11  C   UNL     1      10.175  13.614  17.576  0.00  0.00    +0.000 A 
ATOM     12  C   UNL     1       9.731  13.292  18.859  0.00  0.00    +0.000 A 
ATOM     13  N   UNL     1       8.609  13.821  19.523  0.00  0.00    +0.000 N 
ATOM     14  C   UNL     1       7.601  14.517  18.739  0.00  0.00    +0.000 C 
ATOM     15  S   UNL     1       6.664  15.196  21.554  0.00  0.00    +0.000 S 
ATOM     16  C   UNL     1       5.549  14.767  22.795  0.00  0.00    +0.000 A 
ATOM     17  C   UNL     1       4.294  15.252  22.813  0.00  0.00    +0.000 C 
ENDROOT
BRANCH  17  18
ATOM     18  C   UNL     1       3.798  15.971  21.682  0.00  0.00    +0.000 A 
ATOM     19  S   UNL     1       3.739  17.699  21.711  0.00  0.00    +0.000 S 
ATOM     20  C   UNL     1       2.778  17.752  20.299  0.00  0.00    +0.000 A 
ATOM     21  C   UNL     1       2.610  16.483  19.783  0.00  0.00    +0.000 A 
ATOM     22  C   UNL     1       1.896  16.133  18.531  0.00  0.00    +0.000 C 
ATOM     23  N   UNL     1       3.184  15.501  20.597  0.00  0.00    +0.000 N 
BRANCH  23  24
ATOM     24  C   UNL     1       3.053  14.058  20.324  0.00  0.00    +0.000 C 
ATOM     25  C   UNL     1       1.754  13.498  20.873  0.00  0.00    +0.000 C 
ENDBRANCH  23  24
ENDBRANCH  17  18
BRANCH   1  27
ATOM     26  C   UNL     1       6.218  14.384  26.103  0.00  0.00    +0.000 C 
ATOM     27  C   UNL     1       5.598  13.551  24.990  0.00  0.00    +0.000 C 
ENDBRANCH   1  27
TORSDOF 3
ENDMDL
MODEL 5
REMARK VINA RESULT:      -5.6      3.096      4.753
REMARK  Name = 
REMARK  7 active torsions:
REMARK  status: ('A' for Active; 'I' for Inactive)
REMARK    1  A    between atoms: C_1  and  C_2
REMARK    2  A    between atoms: C_2  and  N_3
REMARK    3  A    between atoms: N_15  and  C_16
REMARK    4  A    between atoms: C_19  and  C_20
REMARK    5  A    between atoms: C_23  and  C_24
REMARK    6  A    between atoms: N_25  and  C_26
REMARK    7  A    between atoms: C_26  and  C_27
REMARK                            x       y       z     vdW  Elec       q    Type
REMARK                         _______ _______ _______ _____ _____    ______ ____
ROOT
ATOM      1  N   UNL     1      -1.582  14.279  21.201  0.00  0.00    +0.000 N 
ATOM      2  C   UNL     1      -0.367  14.990  21.314  0.00  0.00    +0.000 A 
ATOM      3  O   UNL     1      -0.066  15.736  22.228  0.00  0.00    +0.000 OA
ATOM      4  C   UNL     1       0.547  14.578  20.176  0.00  0.00    +0.000 A 
ATOM      5  C   UNL     1       1.867  14.803  19.962  0.00  0.00    +0.000 C 
ATOM      6  S   UNL     1       2.779  15.979  20.962  0.00  0.00    +0.000 S 
ATOM      7  C   UNL     1       4.182  15.805  19.860  0.00  0.00    +0.000 A 
ATOM      8  C   UNL     1       5.374  16.517  19.915  0.00  0.00    +0.000 A 
ATOM      9  C   UNL     1       6.375  16.225  18.983  0.00  0.00    +0.000 A 
ATOM     10  C   UNL     1       6.175  15.237  18.016  0.00  0.00    +0.000 A 
ATOM     11  C   UNL     1       4.966  14.540  17.958  0.00  0.00    +0.000 A 
ATOM     12  C   UNL     1       3.958  14.819  18.881  0.00  0.00    +0.000 A 
ATOM     13  N   UNL     1       2.680  14.232  18.941  0.00  0.00    +0.000 N 
ATOM     14  C   UNL     1       2.448  12.994  18.216  0.00  0.00    +0.000 C 
ATOM     15  S   UNL     1      -0.403  13.697  19.017  0.00  0.00    +0.000 S 
ATOM     16  C   UNL     1      -1.650  13.377  20.162  0.00  0.00    +0.000 A 
ATOM     17  C   UNL     1      -2.492  12.339  20.015  0.00  0.00    +0.000 C 
ENDROOT
BRANCH  17  18
ATOM     18  C   UNL     1      -2.234  11.356  19.011  0.00  0.00    +0.000 A 
ATOM     19  S   UNL     1      -0.769  10.438  19.053  0.00  0.00    +0.000 S 
ATOM     20  C   UNL     1      -1.030   9.831  17.478  0.00  0.00    +0.000 A 
ATOM     21  C   UNL     1      -2.255  10.247  16.998  0.00  0.00    +0.000 A 
ATOM     22  C   UNL     1      -2.863   9.870  15.699  0.00  0.00    +0.000 C 
ATOM     23  N   UNL     1      -2.900  11.120  17.882  0.00  0.00    +0.000 N 
BRANCH  23  24
ATOM     24  C   UNL     1      -4.173  11.790  17.558  0.00  0.00    +0.000 C 
ATOM     25  C   UNL     1      -5.365  11.022  18.099  0.00  0.00    +0.000 C 
ENDBRANCH  23  24
ENDBRANCH  17  18
BRANCH   1  27
ATOM     26  C   UNL     1      -2.566  13.690  23.426  0.00  0.00    +0.000 C 
ATOM     27  C   UNL     1      -2.672  14.515  22.152  0.00  0.00    +0.000 C 
ENDBRANCH   1  27
TORSDOF 3
ENDMDL
MODEL 6
REMARK VINA RESULT:      -5.6      7.455     10.986
REMARK  Name = 
REMARK  7 active torsions:
REMARK  status: ('A' for Active; 'I' for Inactive)
REMARK    1  A    between atoms: C_1  and  C_2
REMARK    2  A    between atoms: C_2  and  N_3
REMARK    3  A    between atoms: N_15  and  C_16
REMARK    4  A    between atoms: C_19  and  C_20
REMARK    5  A    between atoms: C_23  and  C_24
REMARK    6  A    between atoms: N_25  and  C_26
REMARK    7  A    between atoms: C_26  and  C_27
REMARK                            x       y       z     vdW  Elec       q    Type
REMARK                         _______ _______ _______ _____ _____    ______ ____
ROOT
ATOM      1  N   UNL     1       3.223   3.893  20.008  0.00  0.00    +0.000 N 
ATOM      2  C   UNL     1       2.502   4.959  20.590  0.00  0.00    +0.000 A 
ATOM      3  O   UNL     1       2.126   5.011  21.747  0.00  0.00    +0.000 OA
ATOM      4  C   UNL     1       2.381   6.079  19.574  0.00  0.00    +0.000 A 
ATOM      5  C   UNL     1       1.980   7.367  19.705  0.00  0.00    +0.000 C 
ATOM      6  S   UNL     1       1.185   7.940  21.207  0.00  0.00    +0.000 S 
ATOM      7  C   UNL     1       0.816   9.497  20.400  0.00  0.00    +0.000 A 
ATOM      8  C   UNL     1       0.075  10.549  20.925  0.00  0.00    +0.000 A 
ATOM      9  C   UNL     1      -0.088  11.705  20.156  0.00  0.00    +0.000 A 
ATOM     10  C   UNL     1       0.484  11.797  18.885  0.00  0.00    +0.000 A 
ATOM     11  C   UNL     1       1.211  10.726  18.359  0.00  0.00    +0.000 A 
ATOM     12  C   UNL     1       1.383   9.566  19.114  0.00  0.00    +0.000 A 
ATOM     13  N   UNL     1       2.058   8.394  18.722  0.00  0.00    +0.000 N 
ATOM     14  C   UNL     1       2.954   8.457  17.579  0.00  0.00    +0.000 C 
ATOM     15  S   UNL     1       2.848   5.448  18.022  0.00  0.00    +0.000 S 
ATOM     16  C   UNL     1       3.676   4.111  18.726  0.00  0.00    +0.000 A 
ATOM     17  C   UNL     1       4.654   3.463  18.068  0.00  0.00    +0.000 C 
ENDROOT
BRANCH  17  18
ATOM     18  C   UNL     1       5.168   4.007  16.850  0.00  0.00    +0.000 A 
ATOM     19  S   UNL     1       4.268   3.848  15.383  0.00  0.00    +0.000 S 
ATOM     20  C   UNL     1       5.595   4.366  14.440  0.00  0.00    +0.000 A 
ATOM     21  C   UNL     1       6.646   4.742  15.251  0.00  0.00    +0.000 A 
ATOM     22  C   UNL     1       7.940   5.309  14.804  0.00  0.00    +0.000 C 
ATOM     23  N   UNL     1       6.376   4.510  16.606  0.00  0.00    +0.000 N 
BRANCH  23  24
ATOM     24  C   UNL     1       7.375   4.728  17.668  0.00  0.00    +0.000 C 
ATOM     25  C   UNL     1       7.250   6.110  18.282  0.00  0.00    +0.000 C 
ENDBRANCH  23  24
ENDBRANCH  17  18
BRANCH   1  27
ATOM     26  C   UNL     1       2.215   2.132  21.475  0.00  0.00    +0.000 C 
ATOM     27  C   UNL     1       3.451   2.654  20.758  0.00  0.00    +0.000 C 
ENDBRANCH   1  27
TORSDOF 3
ENDMDL
MODEL 7
REMARK VINA RESULT:      -5.5      6.410     10.637
REMARK  Name = 
REMARK  7 active torsions:
REMARK  status: ('A' for Active; 'I' for Inactive)
REMARK    1  A    between atoms: C_1  and  C_2
REMARK    2  A    between atoms: C_2  and  N_3
REMARK    3  A    between atoms: N_15  and  C_16
REMARK    4  A    between atoms: C_19  and  C_20
REMARK    5  A    between atoms: C_23  and  C_24
REMARK    6  A    between atoms: N_25  and  C_26
REMARK    7  A    between atoms: C_26  and  C_27
REMARK                            x       y       z     vdW  Elec       q    Type
REMARK                         _______ _______ _______ _____ _____    ______ ____
ROOT
ATOM      1  N   UNL     1       7.915  13.691  22.780  0.00  0.00    +0.000 N 
ATOM      2  C   UNL     1       6.575  14.122  22.667  0.00  0.00    +0.000 A 
ATOM      3  O   UNL     1       5.788  14.233  23.589  0.00  0.00    +0.000 OA
ATOM      4  C   UNL     1       6.316  14.541  21.233  0.00  0.00    +0.000 A 
ATOM      5  C   UNL     1       5.282  15.212  20.669  0.00  0.00    +0.000 C 
ATOM      6  S   UNL     1       3.766  15.507  21.579  0.00  0.00    +0.000 S 
ATOM      7  C   UNL     1       3.004  16.126  20.079  0.00  0.00    +0.000 A 
ATOM      8  C   UNL     1       1.680  16.519  19.920  0.00  0.00    +0.000 A 
ATOM      9  C   UNL     1       1.267  17.004  18.676  0.00  0.00    +0.000 A 
ATOM     10  C   UNL     1       2.172  17.090  17.614  0.00  0.00    +0.000 A 
ATOM     11  C   UNL     1       3.495  16.675  17.778  0.00  0.00    +0.000 A 
ATOM     12  C   UNL     1       3.923  16.189  19.015  0.00  0.00    +0.000 A 
ATOM     13  N   UNL     1       5.205  15.707  19.336  0.00  0.00    +0.000 N 
ATOM     14  C   UNL     1       6.311  16.021  18.445  0.00  0.00    +0.000 C 
ATOM     15  S   UNL     1       7.643  13.975  20.261  0.00  0.00    +0.000 S 
ATOM     16  C   UNL     1       8.669  13.784  21.631  0.00  0.00    +0.000 A 
ATOM     17  C   UNL     1      10.010  13.792  21.514  0.00  0.00    +0.000 C 
ENDROOT
BRANCH  17  18
ATOM     18  C   UNL     1      10.608  14.171  20.273  0.00  0.00    +0.000 A 
ATOM     19  S   UNL     1      10.616  15.830  19.785  0.00  0.00    +0.000 S 
ATOM     20  C   UNL     1      11.116  15.428  18.202  0.00  0.00    +0.000 A 
ATOM     21  C   UNL     1      11.363  14.073  18.104  0.00  0.00    +0.000 A 
ATOM     22  C   UNL     1      11.878  13.359  16.912  0.00  0.00    +0.000 C 
ATOM     23  N   UNL     1      11.050  13.392  19.287  0.00  0.00    +0.000 N 
BRANCH  23  24
ATOM     24  C   UNL     1      11.125  11.925  19.409  0.00  0.00    +0.000 C 
ATOM     25  C   UNL     1       9.871  11.253  18.880  0.00  0.00    +0.000 C 
ENDBRANCH  23  24
ENDBRANCH  17  18
BRANCH   1  27
ATOM     26  C   UNL     1       8.168  11.703  24.280  0.00  0.00    +0.000 C 
ATOM     27  C   UNL     1       8.428  13.185  24.057  0.00  0.00    +0.000 C 
ENDBRANCH   1  27
TORSDOF 3
ENDMDL
MODEL 8
REMARK VINA RESULT:      -5.5      6.772     10.796
REMARK  Name = 
REMARK  7 active torsions:
REMARK  status: ('A' for Active; 'I' for Inactive)
REMARK    1  A    between atoms: C_1  and  C_2
REMARK    2  A    between atoms: C_2  and  N_3
REMARK    3  A    between atoms: N_15  and  C_16
REMARK    4  A    between atoms: C_19  and  C_20
REMARK    5  A    between atoms: C_23  and  C_24
REMARK    6  A    between atoms: N_25  and  C_26
REMARK    7  A    between atoms: C_26  and  C_27
REMARK                            x       y       z     vdW  Elec       q    Type
REMARK                         _______ _______ _______ _____ _____    ______ ____
ROOT
ATOM      1  N   UNL     1       8.358  15.462  23.024  0.00  0.00    +0.000 N 
ATOM      2  C   UNL     1       7.072  16.029  22.882  0.00  0.00    +0.000 A 
ATOM      3  O   UNL     1       6.497  16.698  23.721  0.00  0.00    +0.000 OA
ATOM      4  C   UNL     1       6.579  15.772  21.471  0.00  0.00    +0.000 A 
ATOM      5  C   UNL     1       5.527  16.281  20.784  0.00  0.00    +0.000 C 
ATOM      6  S   UNL     1       4.257  17.238  21.613  0.00  0.00    +0.000 S 
ATOM      7  C   UNL     1       3.281  17.216  20.110  0.00  0.00    +0.000 A 
ATOM      8  C   UNL     1       1.998  17.725  19.945  0.00  0.00    +0.000 A 
ATOM      9  C   UNL     1       1.399  17.642  18.685  0.00  0.00    +0.000 A 
ATOM     10  C   UNL     1       2.080  17.057  17.614  0.00  0.00    +0.000 A 
ATOM     11  C   UNL     1       3.361  16.532  17.795  0.00  0.00    +0.000 A 
ATOM     12  C   UNL     1       3.973  16.607  19.047  0.00  0.00    +0.000 A 
ATOM     13  N   UNL     1       5.239  16.104  19.401  0.00  0.00    +0.000 N 
ATOM     14  C   UNL     1       6.172  15.759  18.341  0.00  0.00    +0.000 C 
ATOM     15  S   UNL     1       7.624  14.587  20.745  0.00  0.00    +0.000 S 
ATOM     16  C   UNL     1       8.876  14.870  21.894  0.00  0.00    +0.000 A 
ATOM     17  C   UNL     1      10.161  14.577  21.622  0.00  0.00    +0.000 C 
ENDROOT
BRANCH  17  18
ATOM     18  C   UNL     1      10.538  14.219  20.291  0.00  0.00    +0.000 A 
ATOM     19  S   UNL     1      10.566  15.417  19.045  0.00  0.00    +0.000 S 
ATOM     20  C   UNL     1      10.728  14.235  17.824  0.00  0.00    +0.000 A 
ATOM     21  C   UNL     1      10.860  12.980  18.383  0.00  0.00    +0.000 A 
ATOM     22  C   UNL     1      11.089  11.712  17.649  0.00  0.00    +0.000 C 
ATOM     23  N   UNL     1      10.731  13.006  19.776  0.00  0.00    +0.000 N 
BRANCH  23  24
ATOM     24  C   UNL     1      10.726  11.784  20.602  0.00  0.00    +0.000 C 
ATOM     25  C   UNL     1       9.348  11.152  20.663  0.00  0.00    +0.000 C 
ENDBRANCH  23  24
ENDBRANCH  17  18
BRANCH   1  27
ATOM     26  C   UNL     1       8.643  14.438  25.291  0.00  0.00    +0.000 C 
ATOM     27  C   UNL     1       9.059  15.525  24.310  0.00  0.00    +0.000 C 
ENDBRANCH   1  27
TORSDOF 3
ENDMDL
MODEL 9
REMARK VINA RESULT:      -5.5      6.594      8.690
REMARK  Name = 
REMARK  7 active torsions:
REMARK  status: ('A' for Active; 'I' for Inactive)
REMARK    1  A    between atoms: C_1  and  C_2
REMARK    2  A    between atoms: C_2  and  N_3
REMARK    3  A    between atoms: N_15  and  C_16
REMARK    4  A    between atoms: C_19  and  C_20
REMARK    5  A    between atoms: C_23  and  C_24
REMARK    6  A    between atoms: N_25  and  C_26
REMARK    7  A    between atoms: C_26  and  C_27
REMARK                            x       y       z     vdW  Elec       q    Type
REMARK                         _______ _______ _______ _____ _____    ______ ____
ROOT
ATOM      1  N   UNL     1       6.517  13.104  24.062  0.00  0.00    +0.000 N 
ATOM      2  C   UNL     1       7.478  12.428  23.279  0.00  0.00    +0.000 A 
ATOM      3  O   UNL     1       7.837  11.276  23.439  0.00  0.00    +0.000 OA
ATOM      4  C   UNL     1       7.898  13.331  22.135  0.00  0.00    +0.000 A 
ATOM      5  C   UNL     1       8.615  13.079  21.013  0.00  0.00    +0.000 C 
ATOM      6  S   UNL     1       9.506  11.536  20.812  0.00  0.00    +0.000 S 
ATOM      7  C   UNL     1      10.276  12.190  19.331  0.00  0.00    +0.000 A 
ATOM      8  C   UNL     1      11.254  11.573  18.561  0.00  0.00    +0.000 A 
ATOM      9  C   UNL     1      11.721  12.226  17.417  0.00  0.00    +0.000 A 
ATOM     10  C   UNL     1      11.211  13.477  17.059  0.00  0.00    +0.000 A 
ATOM     11  C   UNL     1      10.242  14.098  17.850  0.00  0.00    +0.000 A 
ATOM     12  C   UNL     1       9.765  13.458  18.995  0.00  0.00    +0.000 A 
ATOM     13  N   UNL     1       8.818  13.956  19.909  0.00  0.00    +0.000 N 
ATOM     14  C   UNL     1       7.986  15.079  19.508  0.00  0.00    +0.000 C 
ATOM     15  S   UNL     1       7.309  14.932  22.471  0.00  0.00    +0.000 S 
ATOM     16  C   UNL     1       6.154  14.354  23.612  0.00  0.00    +0.000 A 
ATOM     17  C   UNL     1       5.052  15.063  23.920  0.00  0.00    +0.000 C 
ENDROOT
BRANCH  17  18
ATOM     18  C   UNL     1       4.714  16.216  23.146  0.00  0.00    +0.000 A 
ATOM     19  S   UNL     1       5.109  17.796  23.728  0.00  0.00    +0.000 S 
ATOM     20  C   UNL     1       4.138  18.545  22.539  0.00  0.00    +0.000 A 
ATOM     21  C   UNL     1       3.624  17.601  21.673  0.00  0.00    +0.000 A 
ATOM     22  C   UNL     1       2.793  17.871  20.475  0.00  0.00    +0.000 C 
ATOM     23  N   UNL     1       3.955  16.296  22.055  0.00  0.00    +0.000 N 
BRANCH  23  24
ATOM     24  C   UNL     1       3.441  15.103  21.358  0.00  0.00    +0.000 C 
ATOM     25  C   UNL     1       2.022  14.772  21.782  0.00  0.00    +0.000 C 
ENDBRANCH  23  24
ENDBRANCH  17  18
BRANCH   1  27
ATOM     26  C   UNL     1       6.746  12.791  26.536  0.00  0.00    +0.000 C 
ATOM     27  C   UNL     1       5.966  12.477  25.268  0.00  0.00    +0.000 C 
ENDBRANCH   1  27
TORSDOF 3
ENDMDL
