MODEL 1
REMARK VINA RESULT:      -5.9      0.000      0.000
REMARK  Name = 
REMARK  3 active torsions:
REMARK  status: ('A' for Active; 'I' for Inactive)
REMARK    1  A    between atoms: C_4  and  O_5
REMARK    2  A    between atoms: O_5  and  C_6
REMARK    3  A    between atoms: C_6  and  C_7
REMARK                            x       y       z     vdW  Elec       q    Type
REMARK                         _______ _______ _______ _____ _____    ______ ____
ROOT
ATOM      1 CL   UNL     1       1.787   6.124  20.461  0.00  0.00    +0.000 Cl
ATOM      2  C   UNL     1       2.850   4.807  20.137  0.00  0.00    +0.000 A 
ATOM      3  C   UNL     1       4.064   5.064  19.498  0.00  0.00    +0.000 A 
ATOM      4  C   UNL     1       4.944   4.017  19.225  0.00  0.00    +0.000 A 
ATOM      5  C   UNL     1       4.560   2.736  19.609  0.00  0.00    +0.000 A 
ATOM      6  N   UNL     1       3.392   2.449  20.232  0.00  0.00    +0.000 NA
ATOM      7  C   UNL     1       2.566   3.491  20.484  0.00  0.00    +0.000 A 
ATOM      8 CL   UNL     1       1.119   3.018  21.287  0.00  0.00    +0.000 Cl
ENDROOT
BRANCH   4   9
ATOM      9  O   UNL     1       6.109   4.372  18.608  0.00  0.00    +0.000 OA
BRANCH   9  10
ATOM     10  C   UNL     1       6.253   5.754  18.260  0.00  0.00    +0.000 C 
BRANCH  10  11
ATOM     11  C   UNL     1       6.742   5.835  16.818  0.00  0.00    +0.000 C 
ATOM     12  C   UNL     1       5.736   5.465  15.703  0.00  0.00    +0.000 C 
ATOM     13  C   UNL     1       6.935   4.753  15.055  0.00  0.00    +0.000 C 
ATOM     14  N   UNL     1       7.527   4.634  16.408  0.00  0.00    +0.000 NA
ATOM     15  H   UNL     1       8.540   4.747  16.436  0.00  0.00    +0.000 HD
ENDBRANCH  10  11
ENDBRANCH   9  10
ENDBRANCH   4   9
TORSDOF 3
ENDMDL
MODEL 2
REMARK VINA RESULT:      -5.9      4.076      6.420
REMARK  Name = 
REMARK  3 active torsions:
REMARK  status: ('A' for Active; 'I' for Inactive)
REMARK    1  A    between atoms: C_4  and  O_5
REMARK    2  A    between atoms: O_5  and  C_6
REMARK    3  A    between atoms: C_6  and  C_7
REMARK                            x       y       z     vdW  Elec       q    Type
REMARK                         _______ _______ _______ _____ _____    ______ ____
ROOT
ATOM      1 CL   UNL     1       5.602   3.378  12.384  0.00  0.00    +0.000 Cl
ATOM      2  C   UNL     1       6.057   4.077  13.892  0.00  0.00    +0.000 A 
ATOM      3  C   UNL     1       5.317   3.757  15.031  0.00  0.00    +0.000 A 
ATOM      4  C   UNL     1       5.665   4.307  16.265  0.00  0.00    +0.000 A 
ATOM      5  C   UNL     1       6.755   5.171  16.302  0.00  0.00    +0.000 A 
ATOM      6  N   UNL     1       7.498   5.502  15.218  0.00  0.00    +0.000 NA
ATOM      7  C   UNL     1       7.133   4.945  14.040  0.00  0.00    +0.000 A 
ATOM      8 CL   UNL     1       8.146   5.422  12.733  0.00  0.00    +0.000 Cl
ENDROOT
BRANCH   4   9
ATOM      9  O   UNL     1       4.887   3.925  17.321  0.00  0.00    +0.000 OA
BRANCH   9  10
ATOM     10  C   UNL     1       3.704   4.697  17.557  0.00  0.00    +0.000 C 
BRANCH  10  11
ATOM     11  C   UNL     1       2.503   3.759  17.505  0.00  0.00    +0.000 C 
ATOM     12  C   UNL     1       1.494   3.829  18.675  0.00  0.00    +0.000 C 
ATOM     13  C   UNL     1       1.478   2.295  18.565  0.00  0.00    +0.000 C 
ATOM     14  N   UNL     1       2.831   2.377  17.966  0.00  0.00    +0.000 NA
ATOM     15  H   UNL     1       3.004   1.702  17.222  0.00  0.00    +0.000 HD
ENDBRANCH  10  11
ENDBRANCH   9  10
ENDBRANCH   4   9
TORSDOF 3
ENDMDL
MODEL 3
REMARK VINA RESULT:      -5.9      3.410      5.620
REMARK  Name = 
REMARK  3 active torsions:
REMARK  status: ('A' for Active; 'I' for Inactive)
REMARK    1  A    between atoms: C_4  and  O_5
REMARK    2  A    between atoms: O_5  and  C_6
REMARK    3  A    between atoms: C_6  and  C_7
REMARK                            x       y       z     vdW  Elec       q    Type
REMARK                         _______ _______ _______ _____ _____    ______ ____
ROOT
ATOM      1 CL   UNL     1       5.945   3.934  15.261  0.00  0.00    +0.000 Cl
ATOM      2  C   UNL     1       5.386   4.404  16.822  0.00  0.00    +0.000 A 
ATOM      3  C   UNL     1       4.013   4.532  17.033  0.00  0.00    +0.000 A 
ATOM      4  C   UNL     1       3.533   4.910  18.287  0.00  0.00    +0.000 A 
ATOM      5  C   UNL     1       4.467   5.150  19.289  0.00  0.00    +0.000 A 
ATOM      6  N   UNL     1       5.806   5.033  19.122  0.00  0.00    +0.000 NA
ATOM      7  C   UNL     1       6.234   4.660  17.893  0.00  0.00    +0.000 A 
ATOM      8 CL   UNL     1       7.947   4.532  17.792  0.00  0.00    +0.000 Cl
ENDROOT
BRANCH   4   9
ATOM      9  O   UNL     1       2.174   4.997  18.396  0.00  0.00    +0.000 OA
BRANCH   9  10
ATOM     10  C   UNL     1       1.431   3.815  18.079  0.00  0.00    +0.000 C 
BRANCH  10  11
ATOM     11  C   UNL     1       0.909   3.214  19.380  0.00  0.00    +0.000 C 
ATOM     12  C   UNL     1       1.044   4.069  20.662  0.00  0.00    +0.000 C 
ATOM     13  C   UNL     1       1.438   2.742  21.333  0.00  0.00    +0.000 C 
ATOM     14  N   UNL     1       1.875   2.260  20.002  0.00  0.00    +0.000 NA
ATOM     15  H   UNL     1       1.684   1.274  19.827  0.00  0.00    +0.000 HD
ENDBRANCH  10  11
ENDBRANCH   9  10
ENDBRANCH   4   9
TORSDOF 3
ENDMDL
MODEL 4
REMARK VINA RESULT:      -5.8      3.267      5.593
REMARK  Name = 
REMARK  3 active torsions:
REMARK  status: ('A' for Active; 'I' for Inactive)
REMARK    1  A    between atoms: C_4  and  O_5
REMARK    2  A    between atoms: O_5  and  C_6
REMARK    3  A    between atoms: C_6  and  C_7
REMARK                            x       y       z     vdW  Elec       q    Type
REMARK                         _______ _______ _______ _____ _____    ______ ____
ROOT
ATOM      1 CL   UNL     1       6.637   5.051  15.383  0.00  0.00    +0.000 Cl
ATOM      2  C   UNL     1       5.902   4.631  16.884  0.00  0.00    +0.000 A 
ATOM      3  C   UNL     1       4.737   3.863  16.871  0.00  0.00    +0.000 A 
ATOM      4  C   UNL     1       4.121   3.509  18.071  0.00  0.00    +0.000 A 
ATOM      5  C   UNL     1       4.709   3.951  19.252  0.00  0.00    +0.000 A 
ATOM      6  N   UNL     1       5.840   4.695  19.304  0.00  0.00    +0.000 NA
ATOM      7  C   UNL     1       6.411   5.016  18.119  0.00  0.00    +0.000 A 
ATOM      8 CL   UNL     1       7.844   5.952  18.300  0.00  0.00    +0.000 Cl
ENDROOT
BRANCH   4   9
ATOM      9  O   UNL     1       2.994   2.747  17.953  0.00  0.00    +0.000 OA
BRANCH   9  10
ATOM     10  C   UNL     1       1.745   3.448  17.959  0.00  0.00    +0.000 C 
BRANCH  10  11
ATOM     11  C   UNL     1       1.016   3.115  19.256  0.00  0.00    +0.000 C 
ATOM     12  C   UNL     1       1.166   4.108  20.432  0.00  0.00    +0.000 C 
ATOM     13  C   UNL     1       1.279   2.842  21.299  0.00  0.00    +0.000 C 
ATOM     14  N   UNL     1       1.754   2.123  20.094  0.00  0.00    +0.000 NA
ATOM     15  H   UNL     1       1.425   1.162  20.019  0.00  0.00    +0.000 HD
ENDBRANCH  10  11
ENDBRANCH   9  10
ENDBRANCH   4   9
TORSDOF 3
ENDMDL
MODEL 5
REMARK VINA RESULT:      -5.8      3.904      6.396
REMARK  Name = 
REMARK  3 active torsions:
REMARK  status: ('A' for Active; 'I' for Inactive)
REMARK    1  A    between atoms: C_4  and  O_5
REMARK    2  A    between atoms: O_5  and  C_6
REMARK    3  A    between atoms: C_6  and  C_7
REMARK                            x       y       z     vdW  Elec       q    Type
REMARK                         _______ _______ _______ _____ _____    ______ ____
ROOT
ATOM      1 CL   UNL     1       5.673   3.405  12.612  0.00  0.00    +0.000 Cl
ATOM      2  C   UNL     1       6.156   4.151  14.089  0.00  0.00    +0.000 A 
ATOM      3  C   UNL     1       5.464   3.837  15.258  0.00  0.00    +0.000 A 
ATOM      4  C   UNL     1       5.834   4.425  16.467  0.00  0.00    +0.000 A 
ATOM      5  C   UNL     1       6.898   5.321  16.449  0.00  0.00    +0.000 A 
ATOM      6  N   UNL     1       7.595   5.649  15.334  0.00  0.00    +0.000 NA
ATOM      7  C   UNL     1       7.209   5.054  14.181  0.00  0.00    +0.000 A 
ATOM      8 CL   UNL     1       8.164   5.531  12.831  0.00  0.00    +0.000 Cl
ENDROOT
BRANCH   4   9
ATOM      9  O   UNL     1       5.104   4.044  17.557  0.00  0.00    +0.000 OA
BRANCH   9  10
ATOM     10  C   UNL     1       3.852   4.713  17.753  0.00  0.00    +0.000 C 
BRANCH  10  11
ATOM     11  C   UNL     1       3.391   4.454  19.184  0.00  0.00    +0.000 C 
ATOM     12  C   UNL     1       1.878   4.232  19.414  0.00  0.00    +0.000 C 
ATOM     13  C   UNL     1       2.086   5.106  20.663  0.00  0.00    +0.000 C 
ATOM     14  N   UNL     1       3.255   5.710  19.981  0.00  0.00    +0.000 NA
ATOM     15  H   UNL     1       4.039   5.920  20.596  0.00  0.00    +0.000 HD
ENDBRANCH  10  11
ENDBRANCH   9  10
ENDBRANCH   4   9
TORSDOF 3
ENDMDL
MODEL 6
REMARK VINA RESULT:      -5.7      3.926      6.320
REMARK  Name = 
REMARK  3 active torsions:
REMARK  status: ('A' for Active; 'I' for Inactive)
REMARK    1  A    between atoms: C_4  and  O_5
REMARK    2  A    between atoms: O_5  and  C_6
REMARK    3  A    between atoms: C_6  and  C_7
REMARK                            x       y       z     vdW  Elec       q    Type
REMARK                         _______ _______ _______ _____ _____    ______ ____
ROOT
ATOM      1 CL   UNL     1       5.575   3.429  12.596  0.00  0.00    +0.000 Cl
ATOM      2  C   UNL     1       6.071   4.181  14.065  0.00  0.00    +0.000 A 
ATOM      3  C   UNL     1       5.342   3.928  15.228  0.00  0.00    +0.000 A 
ATOM      4  C   UNL     1       5.722   4.523  16.432  0.00  0.00    +0.000 A 
ATOM      5  C   UNL     1       6.832   5.361  16.414  0.00  0.00    +0.000 A 
ATOM      6  N   UNL     1       7.565   5.627  15.306  0.00  0.00    +0.000 NA
ATOM      7  C   UNL     1       7.169   5.028  14.159  0.00  0.00    +0.000 A 
ATOM      8 CL   UNL     1       8.172   5.425  12.818  0.00  0.00    +0.000 Cl
ENDROOT
BRANCH   4   9
ATOM      9  O   UNL     1       4.953   4.205  17.515  0.00  0.00    +0.000 OA
BRANCH   9  10
ATOM     10  C   UNL     1       4.143   3.029  17.400  0.00  0.00    +0.000 C 
BRANCH  10  11
ATOM     11  C   UNL     1       2.783   3.323  18.027  0.00  0.00    +0.000 C 
ATOM     12  C   UNL     1       2.229   4.759  17.884  0.00  0.00    +0.000 C 
ATOM     13  C   UNL     1       1.788   4.581  19.347  0.00  0.00    +0.000 C 
ATOM     14  N   UNL     1       2.870   3.580  19.495  0.00  0.00    +0.000 NA
ATOM     15  H   UNL     1       2.631   2.786  20.089  0.00  0.00    +0.000 HD
ENDBRANCH  10  11
ENDBRANCH   9  10
ENDBRANCH   4   9
TORSDOF 3
ENDMDL
MODEL 7
REMARK VINA RESULT:      -5.7      1.757      2.063
REMARK  Name = 
REMARK  3 active torsions:
REMARK  status: ('A' for Active; 'I' for Inactive)
REMARK    1  A    between atoms: C_4  and  O_5
REMARK    2  A    between atoms: O_5  and  C_6
REMARK    3  A    between atoms: C_6  and  C_7
REMARK                            x       y       z     vdW  Elec       q    Type
REMARK                         _______ _______ _______ _____ _____    ______ ____
ROOT
ATOM      1 CL   UNL     1       0.382   2.504  18.763  0.00  0.00    +0.000 Cl
ATOM      2  C   UNL     1       2.055   2.882  18.928  0.00  0.00    +0.000 A 
ATOM      3  C   UNL     1       2.781   3.233  17.789  0.00  0.00    +0.000 A 
ATOM      4  C   UNL     1       4.136   3.544  17.895  0.00  0.00    +0.000 A 
ATOM      5  C   UNL     1       4.715   3.486  19.159  0.00  0.00    +0.000 A 
ATOM      6  N   UNL     1       4.042   3.152  20.286  0.00  0.00    +0.000 NA
ATOM      7  C   UNL     1       2.728   2.861  20.145  0.00  0.00    +0.000 A 
ATOM      8 CL   UNL     1       1.968   2.461  21.636  0.00  0.00    +0.000 Cl
ENDROOT
BRANCH   4   9
ATOM      9  O   UNL     1       4.755   3.886  16.726  0.00  0.00    +0.000 OA
BRANCH   9  10
ATOM     10  C   UNL     1       4.991   5.283  16.513  0.00  0.00    +0.000 C 
BRANCH  10  11
ATOM     11  C   UNL     1       5.649   5.453  15.147  0.00  0.00    +0.000 C 
ATOM     12  C   UNL     1       5.768   4.197  14.253  0.00  0.00    +0.000 C 
ATOM     13  C   UNL     1       7.169   4.740  13.924  0.00  0.00    +0.000 C 
ATOM     14  N   UNL     1       7.140   5.452  15.223  0.00  0.00    +0.000 NA
ATOM     15  H   UNL     1       7.577   6.373  15.209  0.00  0.00    +0.000 HD
ENDBRANCH  10  11
ENDBRANCH   9  10
ENDBRANCH   4   9
TORSDOF 3
ENDMDL
MODEL 8
REMARK VINA RESULT:      -5.6      3.446      5.718
REMARK  Name = 
REMARK  3 active torsions:
REMARK  status: ('A' for Active; 'I' for Inactive)
REMARK    1  A    between atoms: C_4  and  O_5
REMARK    2  A    between atoms: O_5  and  C_6
REMARK    3  A    between atoms: C_6  and  C_7
REMARK                            x       y       z     vdW  Elec       q    Type
REMARK                         _______ _______ _______ _____ _____    ______ ____
ROOT
ATOM      1 CL   UNL     1       7.034   4.394  15.820  0.00  0.00    +0.000 Cl
ATOM      2  C   UNL     1       5.601   4.872  16.649  0.00  0.00    +0.000 A 
ATOM      3  C   UNL     1       4.534   3.976  16.719  0.00  0.00    +0.000 A 
ATOM      4  C   UNL     1       3.362   4.338  17.384  0.00  0.00    +0.000 A 
ATOM      5  C   UNL     1       3.311   5.605  17.957  0.00  0.00    +0.000 A 
ATOM      6  N   UNL     1       4.328   6.499  17.912  0.00  0.00    +0.000 NA
ATOM      7  C   UNL     1       5.449   6.111  17.262  0.00  0.00    +0.000 A 
ATOM      8 CL   UNL     1       6.679   7.315  17.273  0.00  0.00    +0.000 Cl
ENDROOT
BRANCH   4   9
ATOM      9  O   UNL     1       2.381   3.389  17.408  0.00  0.00    +0.000 OA
BRANCH   9  10
ATOM     10  C   UNL     1       2.720   2.133  18.006  0.00  0.00    +0.000 C 
BRANCH  10  11
ATOM     11  C   UNL     1       1.954   2.007  19.320  0.00  0.00    +0.000 C 
ATOM     12  C   UNL     1       0.814   3.019  19.578  0.00  0.00    +0.000 C 
ATOM     13  C   UNL     1       1.361   3.051  21.015  0.00  0.00    +0.000 C 
ATOM     14  N   UNL     1       2.674   2.635  20.468  0.00  0.00    +0.000 NA
ATOM     15  H   UNL     1       3.192   1.988  21.061  0.00  0.00    +0.000 HD
ENDBRANCH  10  11
ENDBRANCH   9  10
ENDBRANCH   4   9
TORSDOF 3
ENDMDL
MODEL 9
REMARK VINA RESULT:      -5.6      1.525      1.936
REMARK  Name = 
REMARK  3 active torsions:
REMARK  status: ('A' for Active; 'I' for Inactive)
REMARK    1  A    between atoms: C_4  and  O_5
REMARK    2  A    between atoms: O_5  and  C_6
REMARK    3  A    between atoms: C_6  and  C_7
REMARK                            x       y       z     vdW  Elec       q    Type
REMARK                         _______ _______ _______ _____ _____    ______ ____
ROOT
ATOM      1 CL   UNL     1       1.796   5.734  20.562  0.00  0.00    +0.000 Cl
ATOM      2  C   UNL     1       2.536   4.602  19.495  0.00  0.00    +0.000 A 
ATOM      3  C   UNL     1       3.294   5.081  18.426  0.00  0.00    +0.000 A 
ATOM      4  C   UNL     1       3.904   4.187  17.548  0.00  0.00    +0.000 A 
ATOM      5  C   UNL     1       3.723   2.827  17.782  0.00  0.00    +0.000 A 
ATOM      6  N   UNL     1       2.997   2.325  18.811  0.00  0.00    +0.000 NA
ATOM      7  C   UNL     1       2.424   3.224  19.644  0.00  0.00    +0.000 A 
ATOM      8 CL   UNL     1       1.536   2.482  20.918  0.00  0.00    +0.000 Cl
ENDROOT
BRANCH   4   9
ATOM      9  O   UNL     1       4.633   4.753  16.541  0.00  0.00    +0.000 OA
BRANCH   9  10
ATOM     10  C   UNL     1       5.939   4.211  16.314  0.00  0.00    +0.000 C 
BRANCH  10  11
ATOM     11  C   UNL     1       6.960   5.330  16.495  0.00  0.00    +0.000 C 
ATOM     12  C   UNL     1       7.427   5.640  17.936  0.00  0.00    +0.000 C 
ATOM     13  C   UNL     1       7.326   7.111  17.499  0.00  0.00    +0.000 C 
ATOM     14  N   UNL     1       6.335   6.686  16.483  0.00  0.00    +0.000 NA
ATOM     15  H   UNL     1       6.400   7.185  15.597  0.00  0.00    +0.000 HD
ENDBRANCH  10  11
ENDBRANCH   9  10
ENDBRANCH   4   9
TORSDOF 3
ENDMDL
