MODEL 1
REMARK VINA RESULT:      -8.1      0.000      0.000
REMARK  Name = 
REMARK  4 active torsions:
REMARK  status: ('A' for Active; 'I' for Inactive)
REMARK    1  A    between atoms: C_2  and  C_13
REMARK    2  A    between atoms: N_3  and  C_4
REMARK    3  A    between atoms: C_4  and  C_5
REMARK    4  A    between atoms: C_15  and  C_16
REMARK                            x       y       z     vdW  Elec       q    Type
REMARK                         _______ _______ _______ _____ _____    ______ ____
ROOT
ATOM      1  O   UNL     1       2.721  10.020  17.635  0.00  0.00    +0.000 OA
ATOM      2  C   UNL     1       2.051   9.128  18.141  0.00  0.00    +0.000 C 
ATOM      3  N   UNL     1       1.096   9.347  19.099  0.00  0.00    +0.000 N 
ATOM      4  H   UNL     1       0.512   8.593  19.444  0.00  0.00    +0.000 HD
ENDROOT
BRANCH   2   5
ATOM      5  C   UNL     1       2.246   7.703  17.760  0.00  0.00    +0.000 C 
ATOM      6  C   UNL     1       3.630   7.123  17.598  0.00  0.00    +0.000 C 
ATOM      7  C   UNL     1       2.806   6.745  18.804  0.00  0.00    +0.000 C 
BRANCH   7   8
ATOM      8  C   UNL     1       2.161   5.387  18.961  0.00  0.00    +0.000 A 
ATOM      9  C   UNL     1       1.893   4.538  17.870  0.00  0.00    +0.000 A 
ATOM     10  C   UNL     1       1.314   3.275  18.048  0.00  0.00    +0.000 A 
ATOM     11  C   UNL     1       0.999   2.826  19.328  0.00  0.00    +0.000 A 
ATOM     12  C   UNL     1       1.269   3.641  20.418  0.00  0.00    +0.000 A 
ATOM     13  F   UNL     1       0.980   3.204  21.652  0.00  0.00    +0.000 F 
ATOM     14  C   UNL     1       1.839   4.899  20.238  0.00  0.00    +0.000 A 
ATOM     15  F   UNL     1       2.095   5.660  21.314  0.00  0.00    +0.000 F 
ENDBRANCH   7   8
ENDBRANCH   2   5
BRANCH   3  16
ATOM     16  C   UNL     1       0.813  10.685  19.552  0.00  0.00    +0.000 C 
BRANCH  16  17
ATOM     17  C   UNL     1       0.362  10.663  20.965  0.00  0.00    +0.000 A 
ATOM     18  N   UNL     1       0.912  10.018  21.988  0.00  0.00    +0.000 NA
ATOM     19  N   UNL     1       0.124  10.217  23.119  0.00  0.00    +0.000 NA
ATOM     20  C   UNL     1      -0.870  10.973  22.746  0.00  0.00    +0.000 A 
ATOM     21  N   UNL     1      -0.741  11.281  21.430  0.00  0.00    +0.000 N 
ATOM     22  C   UNL     1      -1.800  12.129  20.938  0.00  0.00    +0.000 C 
ATOM     23  C   UNL     1      -2.449  12.623  22.250  0.00  0.00    +0.000 C 
ATOM     24  C   UNL     1      -2.079  11.573  23.332  0.00  0.00    +0.000 C 
ENDBRANCH  16  17
ENDBRANCH   3  16
TORSDOF 4
ENDMDL
MODEL 2
REMARK VINA RESULT:      -8.0      5.204      7.490
REMARK  Name = 
REMARK  4 active torsions:
REMARK  status: ('A' for Active; 'I' for Inactive)
REMARK    1  A    between atoms: C_2  and  C_13
REMARK    2  A    between atoms: N_3  and  C_4
REMARK    3  A    between atoms: C_4  and  C_5
REMARK    4  A    between atoms: C_15  and  C_16
REMARK                            x       y       z     vdW  Elec       q    Type
REMARK                         _______ _______ _______ _____ _____    ______ ____
ROOT
ATOM      1  O   UNL     1       5.134   5.658  18.808  0.00  0.00    +0.000 OA
ATOM      2  C   UNL     1       4.847   6.197  17.746  0.00  0.00    +0.000 C 
ATOM      3  N   UNL     1       3.597   6.676  17.452  0.00  0.00    +0.000 N 
ATOM      4  H   UNL     1       3.413   7.179  16.591  0.00  0.00    +0.000 HD
ENDROOT
BRANCH   2   5
ATOM      5  C   UNL     1       5.853   6.355  16.660  0.00  0.00    +0.000 C 
ATOM      6  C   UNL     1       7.330   6.268  16.951  0.00  0.00    +0.000 C 
ATOM      7  C   UNL     1       6.651   5.132  16.229  0.00  0.00    +0.000 C 
BRANCH   7   8
ATOM      8  C   UNL     1       6.837   4.871  14.752  0.00  0.00    +0.000 A 
ATOM      9  C   UNL     1       7.794   5.548  13.973  0.00  0.00    +0.000 A 
ATOM     10  C   UNL     1       7.960   5.271  12.610  0.00  0.00    +0.000 A 
ATOM     11  C   UNL     1       7.176   4.298  11.995  0.00  0.00    +0.000 A 
ATOM     12  C   UNL     1       6.237   3.608  12.750  0.00  0.00    +0.000 A 
ATOM     13  F   UNL     1       5.492   2.660  12.163  0.00  0.00    +0.000 F 
ATOM     14  C   UNL     1       6.070   3.890  14.103  0.00  0.00    +0.000 A 
ATOM     15  F   UNL     1       5.159   3.200  14.807  0.00  0.00    +0.000 F 
ENDBRANCH   7   8
ENDBRANCH   2   5
BRANCH   3  16
ATOM     16  C   UNL     1       2.535   6.582  18.422  0.00  0.00    +0.000 C 
BRANCH  16  17
ATOM     17  C   UNL     1       2.048   5.185  18.515  0.00  0.00    +0.000 A 
ATOM     18  N   UNL     1       1.579   4.416  17.539  0.00  0.00    +0.000 NA
ATOM     19  N   UNL     1       1.169   3.201  18.083  0.00  0.00    +0.000 NA
ATOM     20  C   UNL     1       1.404   3.274  19.363  0.00  0.00    +0.000 A 
ATOM     21  N   UNL     1       1.963   4.475  19.658  0.00  0.00    +0.000 N 
ATOM     22  C   UNL     1       2.268   4.633  21.060  0.00  0.00    +0.000 C 
ATOM     23  C   UNL     1       2.146   3.182  21.577  0.00  0.00    +0.000 C 
ATOM     24  C   UNL     1       1.231   2.442  20.565  0.00  0.00    +0.000 C 
ENDBRANCH  16  17
ENDBRANCH   3  16
TORSDOF 4
ENDMDL
MODEL 3
REMARK VINA RESULT:      -8.0      1.523      1.694
REMARK  Name = 
REMARK  4 active torsions:
REMARK  status: ('A' for Active; 'I' for Inactive)
REMARK    1  A    between atoms: C_2  and  C_13
REMARK    2  A    between atoms: N_3  and  C_4
REMARK    3  A    between atoms: C_4  and  C_5
REMARK    4  A    between atoms: C_15  and  C_16
REMARK                            x       y       z     vdW  Elec       q    Type
REMARK                         _______ _______ _______ _____ _____    ______ ____
ROOT
ATOM      1  O   UNL     1       2.207   9.329  17.444  0.00  0.00    +0.000 OA
ATOM      2  C   UNL     1       1.928   8.527  18.327  0.00  0.00    +0.000 C 
ATOM      3  N   UNL     1       1.331   8.879  19.510  0.00  0.00    +0.000 N 
ATOM      4  H   UNL     1       1.051   8.178  20.188  0.00  0.00    +0.000 HD
ENDROOT
BRANCH   2   5
ATOM      5  C   UNL     1       2.247   7.081  18.188  0.00  0.00    +0.000 C 
ATOM      6  C   UNL     1       3.613   6.626  17.735  0.00  0.00    +0.000 C 
ATOM      7  C   UNL     1       3.218   6.455  19.181  0.00  0.00    +0.000 C 
BRANCH   7   8
ATOM      8  C   UNL     1       2.874   5.111  19.782  0.00  0.00    +0.000 A 
ATOM      9  C   UNL     1       1.658   4.862  20.447  0.00  0.00    +0.000 A 
ATOM     10  C   UNL     1       1.357   3.601  20.978  0.00  0.00    +0.000 A 
ATOM     11  C   UNL     1       2.264   2.553  20.844  0.00  0.00    +0.000 A 
ATOM     12  C   UNL     1       3.462   2.774  20.178  0.00  0.00    +0.000 A 
ATOM     13  F   UNL     1       4.329   1.762  20.035  0.00  0.00    +0.000 F 
ATOM     14  C   UNL     1       3.762   4.030  19.658  0.00  0.00    +0.000 A 
ATOM     15  F   UNL     1       4.925   4.210  19.013  0.00  0.00    +0.000 F 
ENDBRANCH   7   8
ENDBRANCH   2   5
BRANCH   3  16
ATOM     16  C   UNL     1       0.971  10.250  19.765  0.00  0.00    +0.000 C 
BRANCH  16  17
ATOM     17  C   UNL     1       0.439  10.393  21.141  0.00  0.00    +0.000 A 
ATOM     18  N   UNL     1       0.898   9.837  22.257  0.00  0.00    +0.000 NA
ATOM     19  N   UNL     1       0.055  10.183  23.311  0.00  0.00    +0.000 NA
ATOM     20  C   UNL     1      -0.879  10.935  22.801  0.00  0.00    +0.000 A 
ATOM     21  N   UNL     1      -0.660  11.099  21.471  0.00  0.00    +0.000 N 
ATOM     22  C   UNL     1      -1.649  11.933  20.830  0.00  0.00    +0.000 C 
ATOM     23  C   UNL     1      -2.349  12.586  22.042  0.00  0.00    +0.000 C 
ATOM     24  C   UNL     1      -2.092  11.640  23.246  0.00  0.00    +0.000 C 
ENDBRANCH  16  17
ENDBRANCH   3  16
TORSDOF 4
ENDMDL
MODEL 4
REMARK VINA RESULT:      -7.8      4.661      8.696
REMARK  Name = 
REMARK  4 active torsions:
REMARK  status: ('A' for Active; 'I' for Inactive)
REMARK    1  A    between atoms: C_2  and  C_13
REMARK    2  A    between atoms: N_3  and  C_4
REMARK    3  A    between atoms: C_4  and  C_5
REMARK    4  A    between atoms: C_15  and  C_16
REMARK                            x       y       z     vdW  Elec       q    Type
REMARK                         _______ _______ _______ _____ _____    ______ ____
ROOT
ATOM      1  O   UNL     1       2.782   2.790  18.504  0.00  0.00    +0.000 OA
ATOM      2  C   UNL     1       2.904   3.965  18.179  0.00  0.00    +0.000 C 
ATOM      3  N   UNL     1       3.836   4.410  17.278  0.00  0.00    +0.000 N 
ATOM      4  H   UNL     1       3.861   5.379  16.980  0.00  0.00    +0.000 HD
ENDROOT
BRANCH   2   5
ATOM      5  C   UNL     1       2.044   5.025  18.771  0.00  0.00    +0.000 C 
ATOM      6  C   UNL     1       1.918   5.179  20.266  0.00  0.00    +0.000 C 
ATOM      7  C   UNL     1       2.718   6.190  19.484  0.00  0.00    +0.000 C 
BRANCH   7   8
ATOM      8  C   UNL     1       2.224   7.592  19.210  0.00  0.00    +0.000 A 
ATOM      9  C   UNL     1       2.425   8.245  17.980  0.00  0.00    +0.000 A 
ATOM     10  C   UNL     1       1.938   9.538  17.746  0.00  0.00    +0.000 A 
ATOM     11  C   UNL     1       1.225  10.204  18.739  0.00  0.00    +0.000 A 
ATOM     12  C   UNL     1       1.003   9.572  19.955  0.00  0.00    +0.000 A 
ATOM     13  F   UNL     1       0.304  10.207  20.907  0.00  0.00    +0.000 F 
ATOM     14  C   UNL     1       1.494   8.290  20.187  0.00  0.00    +0.000 A 
ATOM     15  F   UNL     1       1.256   7.703  21.370  0.00  0.00    +0.000 F 
ENDBRANCH   7   8
ENDBRANCH   2   5
BRANCH   3  16
ATOM     16  C   UNL     1       4.729   3.479  16.634  0.00  0.00    +0.000 C 
BRANCH  16  17
ATOM     17  C   UNL     1       5.845   4.207  15.985  0.00  0.00    +0.000 A 
ATOM     18  N   UNL     1       6.742   5.005  16.554  0.00  0.00    +0.000 NA
ATOM     19  N   UNL     1       7.566   5.533  15.562  0.00  0.00    +0.000 NA
ATOM     20  C   UNL     1       7.145   5.038  14.433  0.00  0.00    +0.000 A 
ATOM     21  N   UNL     1       6.099   4.203  14.661  0.00  0.00    +0.000 N 
ATOM     22  C   UNL     1       5.579   3.600  13.457  0.00  0.00    +0.000 C 
ATOM     23  C   UNL     1       6.700   3.904  12.439  0.00  0.00    +0.000 C 
ATOM     24  C   UNL     1       7.468   5.131  13.000  0.00  0.00    +0.000 C 
ENDBRANCH  16  17
ENDBRANCH   3  16
TORSDOF 4
ENDMDL
MODEL 5
REMARK VINA RESULT:      -7.8      4.856      8.816
REMARK  Name = 
REMARK  4 active torsions:
REMARK  status: ('A' for Active; 'I' for Inactive)
REMARK    1  A    between atoms: C_2  and  C_13
REMARK    2  A    between atoms: N_3  and  C_4
REMARK    3  A    between atoms: C_4  and  C_5
REMARK    4  A    between atoms: C_15  and  C_16
REMARK                            x       y       z     vdW  Elec       q    Type
REMARK                         _______ _______ _______ _____ _____    ______ ____
ROOT
ATOM      1  O   UNL     1       3.782   2.501  18.939  0.00  0.00    +0.000 OA
ATOM      2  C   UNL     1       3.390   3.546  18.434  0.00  0.00    +0.000 C 
ATOM      3  N   UNL     1       3.787   3.987  17.198  0.00  0.00    +0.000 N 
ATOM      4  H   UNL     1       3.388   4.821  16.782  0.00  0.00    +0.000 HD
ENDROOT
BRANCH   2   5
ATOM      5  C   UNL     1       2.450   4.449  19.152  0.00  0.00    +0.000 C 
ATOM      6  C   UNL     1       2.429   4.511  20.659  0.00  0.00    +0.000 C 
ATOM      7  C   UNL     1       3.020   5.659  19.880  0.00  0.00    +0.000 C 
BRANCH   7   8
ATOM      8  C   UNL     1       2.323   6.991  19.729  0.00  0.00    +0.000 A 
ATOM      9  C   UNL     1       1.565   7.577  20.760  0.00  0.00    +0.000 A 
ATOM     10  C   UNL     1       0.946   8.823  20.599  0.00  0.00    +0.000 A 
ATOM     11  C   UNL     1       1.083   9.521  19.402  0.00  0.00    +0.000 A 
ATOM     12  C   UNL     1       1.839   8.968  18.377  0.00  0.00    +0.000 A 
ATOM     13  F   UNL     1       1.984   9.645  17.230  0.00  0.00    +0.000 F 
ATOM     14  C   UNL     1       2.447   7.725  18.538  0.00  0.00    +0.000 A 
ATOM     15  F   UNL     1       3.178   7.221  17.531  0.00  0.00    +0.000 F 
ENDBRANCH   7   8
ENDBRANCH   2   5
BRANCH   3  16
ATOM     16  C   UNL     1       4.697   3.201  16.403  0.00  0.00    +0.000 C 
BRANCH  16  17
ATOM     17  C   UNL     1       5.798   4.053  15.893  0.00  0.00    +0.000 A 
ATOM     18  N   UNL     1       6.570   4.889  16.579  0.00  0.00    +0.000 NA
ATOM     19  N   UNL     1       7.427   5.537  15.693  0.00  0.00    +0.000 NA
ATOM     20  C   UNL     1       7.149   5.074  14.507  0.00  0.00    +0.000 A 
ATOM     21  N   UNL     1       6.163   4.145  14.599  0.00  0.00    +0.000 N 
ATOM     22  C   UNL     1       5.802   3.570  13.325  0.00  0.00    +0.000 C 
ATOM     23  C   UNL     1       6.976   4.022  12.428  0.00  0.00    +0.000 C 
ATOM     24  C   UNL     1       7.584   5.273  13.116  0.00  0.00    +0.000 C 
ENDBRANCH  16  17
ENDBRANCH   3  16
TORSDOF 4
ENDMDL
MODEL 6
REMARK VINA RESULT:      -7.8      4.398      8.004
REMARK  Name = 
REMARK  4 active torsions:
REMARK  status: ('A' for Active; 'I' for Inactive)
REMARK    1  A    between atoms: C_2  and  C_13
REMARK    2  A    between atoms: N_3  and  C_4
REMARK    3  A    between atoms: C_4  and  C_5
REMARK    4  A    between atoms: C_15  and  C_16
REMARK                            x       y       z     vdW  Elec       q    Type
REMARK                         _______ _______ _______ _____ _____    ______ ____
ROOT
ATOM      1  O   UNL     1       2.437   2.652  18.706  0.00  0.00    +0.000 OA
ATOM      2  C   UNL     1       2.468   3.853  18.465  0.00  0.00    +0.000 C 
ATOM      3  N   UNL     1       3.235   4.407  17.473  0.00  0.00    +0.000 N 
ATOM      4  H   UNL     1       3.182   5.397  17.257  0.00  0.00    +0.000 HD
ENDROOT
BRANCH   2   5
ATOM      5  C   UNL     1       1.676   4.824  19.267  0.00  0.00    +0.000 C 
ATOM      6  C   UNL     1       1.738   4.822  20.774  0.00  0.00    +0.000 C 
ATOM      7  C   UNL     1       2.419   5.928  20.007  0.00  0.00    +0.000 C 
BRANCH   7   8
ATOM      8  C   UNL     1       1.875   7.337  19.945  0.00  0.00    +0.000 A 
ATOM      9  C   UNL     1       1.220   7.951  21.029  0.00  0.00    +0.000 A 
ATOM     10  C   UNL     1       0.743   9.265  20.950  0.00  0.00    +0.000 A 
ATOM     11  C   UNL     1       0.922  10.003  19.784  0.00  0.00    +0.000 A 
ATOM     12  C   UNL     1       1.579   9.422  18.707  0.00  0.00    +0.000 A 
ATOM     13  F   UNL     1       1.765  10.136  17.589  0.00  0.00    +0.000 F 
ATOM     14  C   UNL     1       2.045   8.112  18.786  0.00  0.00    +0.000 A 
ATOM     15  F   UNL     1       2.683   7.581  17.731  0.00  0.00    +0.000 F 
ENDBRANCH   7   8
ENDBRANCH   2   5
BRANCH   3  16
ATOM     16  C   UNL     1       4.047   3.571  16.627  0.00  0.00    +0.000 C 
BRANCH  16  17
ATOM     17  C   UNL     1       5.455   4.034  16.650  0.00  0.00    +0.000 A 
ATOM     18  N   UNL     1       6.334   4.030  15.653  0.00  0.00    +0.000 NA
ATOM     19  N   UNL     1       7.559   4.487  16.133  0.00  0.00    +0.000 NA
ATOM     20  C   UNL     1       7.382   4.754  17.397  0.00  0.00    +0.000 A 
ATOM     21  N   UNL     1       6.093   4.503  17.741  0.00  0.00    +0.000 N 
ATOM     22  C   UNL     1       5.809   4.785  19.128  0.00  0.00    +0.000 C 
ATOM     23  C   UNL     1       7.046   5.610  19.545  0.00  0.00    +0.000 C 
ATOM     24  C   UNL     1       8.170   5.232  18.543  0.00  0.00    +0.000 C 
ENDBRANCH  16  17
ENDBRANCH   3  16
TORSDOF 4
ENDMDL
MODEL 7
REMARK VINA RESULT:      -7.7      4.806      8.807
REMARK  Name = 
REMARK  4 active torsions:
REMARK  status: ('A' for Active; 'I' for Inactive)
REMARK    1  A    between atoms: C_2  and  C_13
REMARK    2  A    between atoms: N_3  and  C_4
REMARK    3  A    between atoms: C_4  and  C_5
REMARK    4  A    between atoms: C_15  and  C_16
REMARK                            x       y       z     vdW  Elec       q    Type
REMARK                         _______ _______ _______ _____ _____    ______ ____
ROOT
ATOM      1  O   UNL     1       1.710   3.874  16.983  0.00  0.00    +0.000 OA
ATOM      2  C   UNL     1       2.575   4.373  17.692  0.00  0.00    +0.000 C 
ATOM      3  N   UNL     1       3.918   4.267  17.439  0.00  0.00    +0.000 N 
ATOM      4  H   UNL     1       4.602   4.753  18.008  0.00  0.00    +0.000 HD
ENDROOT
BRANCH   2   5
ATOM      5  C   UNL     1       2.225   5.130  18.924  0.00  0.00    +0.000 C 
ATOM      6  C   UNL     1       3.230   5.319  20.033  0.00  0.00    +0.000 C 
ATOM      7  C   UNL     1       2.876   6.489  19.149  0.00  0.00    +0.000 C 
BRANCH   7   8
ATOM      8  C   UNL     1       2.013   7.638  19.617  0.00  0.00    +0.000 A 
ATOM      9  C   UNL     1       1.519   7.735  20.932  0.00  0.00    +0.000 A 
ATOM     10  C   UNL     1       0.739   8.822  21.344  0.00  0.00    +0.000 A 
ATOM     11  C   UNL     1       0.443   9.848  20.450  0.00  0.00    +0.000 A 
ATOM     12  C   UNL     1       0.933   9.779  19.153  0.00  0.00    +0.000 A 
ATOM     13  F   UNL     1       0.662  10.773  18.296  0.00  0.00    +0.000 F 
ATOM     14  C   UNL     1       1.703   8.693  18.744  0.00  0.00    +0.000 A 
ATOM     15  F   UNL     1       2.169   8.660  17.485  0.00  0.00    +0.000 F 
ENDBRANCH   7   8
ENDBRANCH   2   5
BRANCH   3  16
ATOM     16  C   UNL     1       4.386   3.558  16.275  0.00  0.00    +0.000 C 
BRANCH  16  17
ATOM     17  C   UNL     1       5.604   4.208  15.734  0.00  0.00    +0.000 A 
ATOM     18  N   UNL     1       6.495   4.946  16.387  0.00  0.00    +0.000 NA
ATOM     19  N   UNL     1       7.441   5.416  15.478  0.00  0.00    +0.000 NA
ATOM     20  C   UNL     1       7.094   4.947  14.313  0.00  0.00    +0.000 A 
ATOM     21  N   UNL     1       5.978   4.184  14.440  0.00  0.00    +0.000 N 
ATOM     22  C   UNL     1       5.533   3.614  13.190  0.00  0.00    +0.000 C 
ATOM     23  C   UNL     1       6.761   3.841  12.281  0.00  0.00    +0.000 C 
ATOM     24  C   UNL     1       7.554   5.015  12.917  0.00  0.00    +0.000 C 
ENDBRANCH  16  17
ENDBRANCH   3  16
TORSDOF 4
ENDMDL
MODEL 8
REMARK VINA RESULT:      -7.7      3.569      7.751
REMARK  Name = 
REMARK  4 active torsions:
REMARK  status: ('A' for Active; 'I' for Inactive)
REMARK    1  A    between atoms: C_2  and  C_13
REMARK    2  A    between atoms: N_3  and  C_4
REMARK    3  A    between atoms: C_4  and  C_5
REMARK    4  A    between atoms: C_15  and  C_16
REMARK                            x       y       z     vdW  Elec       q    Type
REMARK                         _______ _______ _______ _____ _____    ______ ____
ROOT
ATOM      1  O   UNL     1       2.353   6.455  17.657  0.00  0.00    +0.000 OA
ATOM      2  C   UNL     1       2.625   6.979  18.730  0.00  0.00    +0.000 C 
ATOM      3  N   UNL     1       3.253   6.324  19.757  0.00  0.00    +0.000 N 
ATOM      4  H   UNL     1       3.525   6.810  20.604  0.00  0.00    +0.000 HD
ENDROOT
BRANCH   2   5
ATOM      5  C   UNL     1       2.263   8.395  19.013  0.00  0.00    +0.000 C 
ATOM      6  C   UNL     1       1.648   9.268  17.948  0.00  0.00    +0.000 C 
ATOM      7  C   UNL     1       0.788   8.765  19.080  0.00  0.00    +0.000 C 
BRANCH   7   8
ATOM      8  C   UNL     1       0.314   9.655  20.207  0.00  0.00    +0.000 A 
ATOM      9  C   UNL     1      -0.188  10.953  19.994  0.00  0.00    +0.000 A 
ATOM     10  C   UNL     1      -0.639  11.748  21.055  0.00  0.00    +0.000 A 
ATOM     11  C   UNL     1      -0.610  11.257  22.357  0.00  0.00    +0.000 A 
ATOM     12  C   UNL     1      -0.133   9.973  22.587  0.00  0.00    +0.000 A 
ATOM     13  F   UNL     1      -0.118   9.493  23.838  0.00  0.00    +0.000 F 
ATOM     14  C   UNL     1       0.322   9.188  21.531  0.00  0.00    +0.000 A 
ATOM     15  F   UNL     1       0.770   7.948  21.785  0.00  0.00    +0.000 F 
ENDBRANCH   7   8
ENDBRANCH   2   5
BRANCH   3  16
ATOM     16  C   UNL     1       3.655   4.949  19.606  0.00  0.00    +0.000 C 
BRANCH  16  17
ATOM     17  C   UNL     1       5.033   4.875  19.065  0.00  0.00    +0.000 A 
ATOM     18  N   UNL     1       6.176   5.088  19.708  0.00  0.00    +0.000 NA
ATOM     19  N   UNL     1       7.228   4.981  18.800  0.00  0.00    +0.000 NA
ATOM     20  C   UNL     1       6.690   4.705  17.646  0.00  0.00    +0.000 A 
ATOM     21  N   UNL     1       5.342   4.615  17.779  0.00  0.00    +0.000 N 
ATOM     22  C   UNL     1       4.668   4.299  16.542  0.00  0.00    +0.000 C 
ATOM     23  C   UNL     1       5.840   3.840  15.648  0.00  0.00    +0.000 C 
ATOM     24  C   UNL     1       7.118   4.478  16.257  0.00  0.00    +0.000 C 
ENDBRANCH  16  17
ENDBRANCH   3  16
TORSDOF 4
ENDMDL
MODEL 9
REMARK VINA RESULT:      -7.7      2.557      6.744
REMARK  Name = 
REMARK  4 active torsions:
REMARK  status: ('A' for Active; 'I' for Inactive)
REMARK    1  A    between atoms: C_2  and  C_13
REMARK    2  A    between atoms: N_3  and  C_4
REMARK    3  A    between atoms: C_4  and  C_5
REMARK    4  A    between atoms: C_15  and  C_16
REMARK                            x       y       z     vdW  Elec       q    Type
REMARK                         _______ _______ _______ _____ _____    ______ ____
ROOT
ATOM      1  O   UNL     1       2.641   8.370  16.961  0.00  0.00    +0.000 OA
ATOM      2  C   UNL     1       2.339   8.437  18.146  0.00  0.00    +0.000 C 
ATOM      3  N   UNL     1       2.656   7.472  19.066  0.00  0.00    +0.000 N 
ATOM      4  H   UNL     1       2.451   7.595  20.052  0.00  0.00    +0.000 HD
ENDROOT
BRANCH   2   5
ATOM      5  C   UNL     1       1.565   9.589  18.683  0.00  0.00    +0.000 C 
ATOM      6  C   UNL     1       0.359  10.125  17.952  0.00  0.00    +0.000 C 
ATOM      7  C   UNL     1       0.163   9.332  19.220  0.00  0.00    +0.000 C 
BRANCH   7   8
ATOM      8  C   UNL     1      -0.241   9.970  20.530  0.00  0.00    +0.000 A 
ATOM      9  C   UNL     1      -0.980  11.166  20.601  0.00  0.00    +0.000 A 
ATOM     10  C   UNL     1      -1.357  11.724  21.829  0.00  0.00    +0.000 A 
ATOM     11  C   UNL     1      -1.014  11.088  23.019  0.00  0.00    +0.000 A 
ATOM     12  C   UNL     1      -0.298   9.900  22.971  0.00  0.00    +0.000 A 
ATOM     13  F   UNL     1       0.021   9.279  24.115  0.00  0.00    +0.000 F 
ATOM     14  C   UNL     1       0.083   9.351  21.748  0.00  0.00    +0.000 A 
ATOM     15  F   UNL     1       0.767   8.197  21.735  0.00  0.00    +0.000 F 
ENDBRANCH   7   8
ENDBRANCH   2   5
BRANCH   3  16
ATOM     16  C   UNL     1       3.404   6.306  18.670  0.00  0.00    +0.000 C 
BRANCH  16  17
ATOM     17  C   UNL     1       2.523   5.114  18.651  0.00  0.00    +0.000 A 
ATOM     18  N   UNL     1       1.914   4.564  17.607  0.00  0.00    +0.000 NA
ATOM     19  N   UNL     1       1.130   3.502  18.053  0.00  0.00    +0.000 NA
ATOM     20  C   UNL     1       1.292   3.444  19.345  0.00  0.00    +0.000 A 
ATOM     21  N   UNL     1       2.159   4.410  19.742  0.00  0.00    +0.000 N 
ATOM     22  C   UNL     1       2.403   4.406  21.164  0.00  0.00    +0.000 C 
ATOM     23  C   UNL     1       1.827   3.036  21.583  0.00  0.00    +0.000 C 
ATOM     24  C   UNL     1       0.804   2.647  20.482  0.00  0.00    +0.000 C 
ENDBRANCH  16  17
ENDBRANCH   3  16
TORSDOF 4
ENDMDL
