MODEL 1
REMARK VINA RESULT:      -7.0      0.000      0.000
REMARK  Name = 
REMARK  2 active torsions:
REMARK  status: ('A' for Active; 'I' for Inactive)
REMARK    1  A    between atoms: C_10  and  C_11
REMARK    2  A    between atoms: C_12  and  C_13
REMARK                            x       y       z     vdW  Elec       q    Type
REMARK                         _______ _______ _______ _____ _____    ______ ____
ROOT
ATOM      1 CL   UNL     1       1.382   7.430  20.974  0.00  0.00    +0.000 Cl
ATOM      2  C   UNL     1       0.906   9.040  20.707  0.00  0.00    +0.000 C 
ATOM      3  C   UNL     1       0.370   9.845  21.646  0.00  0.00    +0.000 C 
ATOM      4 CL   UNL     1       0.054   9.437  23.271  0.00  0.00    +0.000 Cl
ATOM      5  C   UNL     1       0.091  11.147  21.071  0.00  0.00    +0.000 C 
ATOM      6 CL   UNL     1      -0.600  12.440  21.938  0.00  0.00    +0.000 Cl
ATOM      7  C   UNL     1       0.456  11.149  19.779  0.00  0.00    +0.000 C 
ATOM      8 CL   UNL     1       0.308  12.449  18.689  0.00  0.00    +0.000 Cl
ATOM      9  C   UNL     1       0.999   9.816  19.457  0.00  0.00    +0.000 C 
ATOM     10  C   UNL     1       1.459   9.479  18.236  0.00  0.00    +0.000 C 
ENDROOT
BRANCH  10  11
ATOM     11  C   UNL     1       1.987   8.206  17.797  0.00  0.00    +0.000 C 
ATOM     12  C   UNL     1       3.259   7.818  17.969  0.00  0.00    +0.000 C 
BRANCH  12  13
ATOM     13  C   UNL     1       3.694   6.523  17.442  0.00  0.00    +0.000 A 
ATOM     14  C   UNL     1       3.062   5.350  17.872  0.00  0.00    +0.000 A 
ATOM     15  C   UNL     1       3.514   4.105  17.431  0.00  0.00    +0.000 A 
ATOM     16  C   UNL     1       4.601   4.026  16.562  0.00  0.00    +0.000 A 
ATOM     17  C   UNL     1       5.236   5.191  16.132  0.00  0.00    +0.000 A 
ATOM     18  C   UNL     1       4.786   6.438  16.573  0.00  0.00    +0.000 A 
ENDBRANCH  12  13
ENDBRANCH  10  11
TORSDOF 2
ENDMDL
MODEL 2
REMARK VINA RESULT:      -6.9      2.830      6.963
REMARK  Name = 
REMARK  2 active torsions:
REMARK  status: ('A' for Active; 'I' for Inactive)
REMARK    1  A    between atoms: C_10  and  C_11
REMARK    2  A    between atoms: C_12  and  C_13
REMARK                            x       y       z     vdW  Elec       q    Type
REMARK                         _______ _______ _______ _____ _____    ______ ____
ROOT
ATOM      1 CL   UNL     1       1.488   6.062  20.702  0.00  0.00    +0.000 Cl
ATOM      2  C   UNL     1       2.323   5.037  19.633  0.00  0.00    +0.000 C 
ATOM      3  C   UNL     1       2.430   3.701  19.781  0.00  0.00    +0.000 C 
ATOM      4 CL   UNL     1       1.773   2.764  21.045  0.00  0.00    +0.000 Cl
ATOM      5  C   UNL     1       3.203   3.149  18.685  0.00  0.00    +0.000 C 
ATOM      6 CL   UNL     1       3.568   1.494  18.518  0.00  0.00    +0.000 Cl
ATOM      7  C   UNL     1       3.572   4.141  17.858  0.00  0.00    +0.000 C 
ATOM      8 CL   UNL     1       4.503   3.983  16.441  0.00  0.00    +0.000 Cl
ATOM      9  C   UNL     1       3.039   5.406  18.399  0.00  0.00    +0.000 C 
ATOM     10  C   UNL     1       3.228   6.602  17.808  0.00  0.00    +0.000 C 
ENDROOT
BRANCH  10  11
ATOM     11  C   UNL     1       2.780   7.903  18.253  0.00  0.00    +0.000 C 
ATOM     12  C   UNL     1       1.686   8.523  17.788  0.00  0.00    +0.000 C 
BRANCH  12  13
ATOM     13  C   UNL     1       1.353   9.861  18.281  0.00  0.00    +0.000 A 
ATOM     14  C   UNL     1       2.223  10.930  18.033  0.00  0.00    +0.000 A 
ATOM     15  C   UNL     1       1.951  12.194  18.558  0.00  0.00    +0.000 A 
ATOM     16  C   UNL     1       0.812  12.397  19.336  0.00  0.00    +0.000 A 
ATOM     17  C   UNL     1      -0.056  11.335  19.588  0.00  0.00    +0.000 A 
ATOM     18  C   UNL     1       0.213  10.068  19.064  0.00  0.00    +0.000 A 
ENDBRANCH  12  13
ENDBRANCH  10  11
TORSDOF 2
ENDMDL
MODEL 3
REMARK VINA RESULT:      -6.9      2.940      6.929
REMARK  Name = 
REMARK  2 active torsions:
REMARK  status: ('A' for Active; 'I' for Inactive)
REMARK    1  A    between atoms: C_10  and  C_11
REMARK    2  A    between atoms: C_12  and  C_13
REMARK                            x       y       z     vdW  Elec       q    Type
REMARK                         _______ _______ _______ _____ _____    ______ ____
ROOT
ATOM      1 CL   UNL     1       1.424   5.835  20.816  0.00  0.00    +0.000 Cl
ATOM      2  C   UNL     1       2.276   4.867  19.708  0.00  0.00    +0.000 C 
ATOM      3  C   UNL     1       2.431   3.532  19.820  0.00  0.00    +0.000 C 
ATOM      4 CL   UNL     1       1.826   2.542  21.069  0.00  0.00    +0.000 Cl
ATOM      5  C   UNL     1       3.204   3.035  18.698  0.00  0.00    +0.000 C 
ATOM      6 CL   UNL     1       3.623   1.399  18.483  0.00  0.00    +0.000 Cl
ATOM      7  C   UNL     1       3.526   4.060  17.892  0.00  0.00    +0.000 C 
ATOM      8 CL   UNL     1       4.439   3.970  16.458  0.00  0.00    +0.000 Cl
ATOM      9  C   UNL     1       2.960   5.292  18.473  0.00  0.00    +0.000 C 
ATOM     10  C   UNL     1       3.098   6.508  17.910  0.00  0.00    +0.000 C 
ENDROOT
BRANCH  10  11
ATOM     11  C   UNL     1       2.613   7.781  18.396  0.00  0.00    +0.000 C 
ATOM     12  C   UNL     1       1.821   8.604  17.693  0.00  0.00    +0.000 C 
BRANCH  12  13
ATOM     13  C   UNL     1       1.428   9.890  18.270  0.00  0.00    +0.000 A 
ATOM     14  C   UNL     1       0.187  10.018  18.905  0.00  0.00    +0.000 A 
ATOM     15  C   UNL     1      -0.229  11.257  19.396  0.00  0.00    +0.000 A 
ATOM     16  C   UNL     1       0.592  12.375  19.252  0.00  0.00    +0.000 A 
ATOM     17  C   UNL     1       1.829  12.254  18.619  0.00  0.00    +0.000 A 
ATOM     18  C   UNL     1       2.246  11.015  18.126  0.00  0.00    +0.000 A 
ENDBRANCH  12  13
ENDBRANCH  10  11
TORSDOF 2
ENDMDL
MODEL 4
REMARK VINA RESULT:      -6.9      0.502      1.244
REMARK  Name = 
REMARK  2 active torsions:
REMARK  status: ('A' for Active; 'I' for Inactive)
REMARK    1  A    between atoms: C_10  and  C_11
REMARK    2  A    between atoms: C_12  and  C_13
REMARK                            x       y       z     vdW  Elec       q    Type
REMARK                         _______ _______ _______ _____ _____    ______ ____
ROOT
ATOM      1 CL   UNL     1       1.100   7.791  21.168  0.00  0.00    +0.000 Cl
ATOM      2  C   UNL     1       0.502   9.326  20.746  0.00  0.00    +0.000 C 
ATOM      3  C   UNL     1      -0.117  10.167  21.599  0.00  0.00    +0.000 C 
ATOM      4 CL   UNL     1      -0.434   9.885  23.250  0.00  0.00    +0.000 Cl
ATOM      5  C   UNL     1      -0.488  11.384  20.902  0.00  0.00    +0.000 C 
ATOM      6 CL   UNL     1      -1.299  12.689  21.635  0.00  0.00    +0.000 Cl
ATOM      7  C   UNL     1      -0.097  11.297  19.620  0.00  0.00    +0.000 C 
ATOM      8 CL   UNL     1      -0.325  12.475  18.412  0.00  0.00    +0.000 Cl
ATOM      9  C   UNL     1       0.559   9.989  19.431  0.00  0.00    +0.000 C 
ATOM     10  C   UNL     1       1.070   9.581  18.253  0.00  0.00    +0.000 C 
ENDROOT
BRANCH  10  11
ATOM     11  C   UNL     1       1.709   8.321  17.941  0.00  0.00    +0.000 C 
ATOM     12  C   UNL     1       3.035   8.123  17.960  0.00  0.00    +0.000 C 
BRANCH  12  13
ATOM     13  C   UNL     1       3.572   6.814  17.582  0.00  0.00    +0.000 A 
ATOM     14  C   UNL     1       4.699   6.737  16.756  0.00  0.00    +0.000 A 
ATOM     15  C   UNL     1       5.177   5.496  16.332  0.00  0.00    +0.000 A 
ATOM     16  C   UNL     1       4.530   4.326  16.729  0.00  0.00    +0.000 A 
ATOM     17  C   UNL     1       3.405   4.397  17.550  0.00  0.00    +0.000 A 
ATOM     18  C   UNL     1       2.924   5.638  17.975  0.00  0.00    +0.000 A 
ENDBRANCH  12  13
ENDBRANCH  10  11
TORSDOF 2
ENDMDL
MODEL 5
REMARK VINA RESULT:      -6.9      1.892      3.382
REMARK  Name = 
REMARK  2 active torsions:
REMARK  status: ('A' for Active; 'I' for Inactive)
REMARK    1  A    between atoms: C_10  and  C_11
REMARK    2  A    between atoms: C_12  and  C_13
REMARK                            x       y       z     vdW  Elec       q    Type
REMARK                         _______ _______ _______ _____ _____    ______ ____
ROOT
ATOM      1 CL   UNL     1       1.604   8.898  18.093  0.00  0.00    +0.000 Cl
ATOM      2  C   UNL     1       1.090   9.503  19.596  0.00  0.00    +0.000 C 
ATOM      3  C   UNL     1       0.718  10.779  19.821  0.00  0.00    +0.000 C 
ATOM      4 CL   UNL     1       0.685  12.042  18.677  0.00  0.00    +0.000 Cl
ATOM      5  C   UNL     1       0.334  10.938  21.211  0.00  0.00    +0.000 C 
ATOM      6 CL   UNL     1      -0.188  12.409  21.890  0.00  0.00    +0.000 Cl
ATOM      7  C   UNL     1       0.467   9.761  21.845  0.00  0.00    +0.000 C 
ATOM      8 CL   UNL     1       0.149   9.459  23.490  0.00  0.00    +0.000 Cl
ATOM      9  C   UNL     1       0.953   8.769  20.868  0.00  0.00    +0.000 C 
ATOM     10  C   UNL     1       1.192   7.480  21.178  0.00  0.00    +0.000 C 
ENDROOT
BRANCH  10  11
ATOM     11  C   UNL     1       1.690   6.428  20.319  0.00  0.00    +0.000 C 
ATOM     12  C   UNL     1       1.320   5.143  20.408  0.00  0.00    +0.000 C 
BRANCH  12  13
ATOM     13  C   UNL     1       1.924   4.156  19.512  0.00  0.00    +0.000 A 
ATOM     14  C   UNL     1       2.296   4.529  18.215  0.00  0.00    +0.000 A 
ATOM     15  C   UNL     1       2.807   3.580  17.329  0.00  0.00    +0.000 A 
ATOM     16  C   UNL     1       2.947   2.253  17.733  0.00  0.00    +0.000 A 
ATOM     17  C   UNL     1       2.577   1.875  19.023  0.00  0.00    +0.000 A 
ATOM     18  C   UNL     1       2.064   2.823  19.911  0.00  0.00    +0.000 A 
ENDBRANCH  12  13
ENDBRANCH  10  11
TORSDOF 2
ENDMDL
MODEL 6
REMARK VINA RESULT:      -6.8      1.955      3.199
REMARK  Name = 
REMARK  2 active torsions:
REMARK  status: ('A' for Active; 'I' for Inactive)
REMARK    1  A    between atoms: C_10  and  C_11
REMARK    2  A    between atoms: C_12  and  C_13
REMARK                            x       y       z     vdW  Elec       q    Type
REMARK                         _______ _______ _______ _____ _____    ______ ____
ROOT
ATOM      1 CL   UNL     1       1.609   8.936  18.075  0.00  0.00    +0.000 Cl
ATOM      2  C   UNL     1       1.079   9.528  19.578  0.00  0.00    +0.000 C 
ATOM      3  C   UNL     1       0.681  10.796  19.803  0.00  0.00    +0.000 C 
ATOM      4 CL   UNL     1       0.625  12.060  18.660  0.00  0.00    +0.000 Cl
ATOM      5  C   UNL     1       0.292  10.946  21.192  0.00  0.00    +0.000 C 
ATOM      6 CL   UNL     1      -0.261  12.406  21.872  0.00  0.00    +0.000 Cl
ATOM      7  C   UNL     1       0.448   9.772  21.826  0.00  0.00    +0.000 C 
ATOM      8 CL   UNL     1       0.133   9.461  23.470  0.00  0.00    +0.000 Cl
ATOM      9  C   UNL     1       0.955   8.791  20.848  0.00  0.00    +0.000 C 
ATOM     10  C   UNL     1       1.221   7.507  21.158  0.00  0.00    +0.000 C 
ENDROOT
BRANCH  10  11
ATOM     11  C   UNL     1       1.741   6.466  20.298  0.00  0.00    +0.000 C 
ATOM     12  C   UNL     1       1.501   5.158  20.468  0.00  0.00    +0.000 C 
BRANCH  12  13
ATOM     13  C   UNL     1       2.118   4.189  19.560  0.00  0.00    +0.000 A 
ATOM     14  C   UNL     1       2.849   3.115  20.081  0.00  0.00    +0.000 A 
ATOM     15  C   UNL     1       3.501   2.227  19.225  0.00  0.00    +0.000 A 
ATOM     16  C   UNL     1       3.429   2.408  17.844  0.00  0.00    +0.000 A 
ATOM     17  C   UNL     1       2.704   3.478  17.320  0.00  0.00    +0.000 A 
ATOM     18  C   UNL     1       2.051   4.369  18.174  0.00  0.00    +0.000 A 
ENDBRANCH  12  13
ENDBRANCH  10  11
TORSDOF 2
ENDMDL
MODEL 7
REMARK VINA RESULT:      -6.8      3.107      7.294
REMARK  Name = 
REMARK  2 active torsions:
REMARK  status: ('A' for Active; 'I' for Inactive)
REMARK    1  A    between atoms: C_10  and  C_11
REMARK    2  A    between atoms: C_12  and  C_13
REMARK                            x       y       z     vdW  Elec       q    Type
REMARK                         _______ _______ _______ _____ _____    ______ ____
ROOT
ATOM      1 CL   UNL     1       1.881   4.929  20.831  0.00  0.00    +0.000 Cl
ATOM      2  C   UNL     1       2.821   5.078  19.422  0.00  0.00    +0.000 C 
ATOM      3  C   UNL     1       3.490   4.063  18.838  0.00  0.00    +0.000 C 
ATOM      4 CL   UNL     1       3.546   2.445  19.371  0.00  0.00    +0.000 Cl
ATOM      5  C   UNL     1       4.177   4.548  17.656  0.00  0.00    +0.000 C 
ATOM      6 CL   UNL     1       5.140   3.570  16.649  0.00  0.00    +0.000 Cl
ATOM      7  C   UNL     1       3.932   5.860  17.507  0.00  0.00    +0.000 C 
ATOM      8 CL   UNL     1       4.533   6.867  16.273  0.00  0.00    +0.000 Cl
ATOM      9  C   UNL     1       3.055   6.288  18.613  0.00  0.00    +0.000 C 
ATOM     10  C   UNL     1       2.615   7.553  18.763  0.00  0.00    +0.000 C 
ENDROOT
BRANCH  10  11
ATOM     11  C   UNL     1       1.779   8.093  19.812  0.00  0.00    +0.000 C 
ATOM     12  C   UNL     1       1.135   9.267  19.733  0.00  0.00    +0.000 C 
BRANCH  12  13
ATOM     13  C   UNL     1       0.351   9.735  20.877  0.00  0.00    +0.000 A 
ATOM     14  C   UNL     1      -0.380  10.925  20.780  0.00  0.00    +0.000 A 
ATOM     15  C   UNL     1      -1.073  11.417  21.886  0.00  0.00    +0.000 A 
ATOM     16  C   UNL     1      -1.039  10.725  23.096  0.00  0.00    +0.000 A 
ATOM     17  C   UNL     1      -0.311   9.540  23.200  0.00  0.00    +0.000 A 
ATOM     18  C   UNL     1       0.385   9.046  22.094  0.00  0.00    +0.000 A 
ENDBRANCH  12  13
ENDBRANCH  10  11
TORSDOF 2
ENDMDL
MODEL 8
REMARK VINA RESULT:      -6.7      3.136      7.276
REMARK  Name = 
REMARK  2 active torsions:
REMARK  status: ('A' for Active; 'I' for Inactive)
REMARK    1  A    between atoms: C_10  and  C_11
REMARK    2  A    between atoms: C_12  and  C_13
REMARK                            x       y       z     vdW  Elec       q    Type
REMARK                         _______ _______ _______ _____ _____    ______ ____
ROOT
ATOM      1 CL   UNL     1       1.154   4.867  20.618  0.00  0.00    +0.000 Cl
ATOM      2  C   UNL     1       2.249   4.940  19.319  0.00  0.00    +0.000 C 
ATOM      3  C   UNL     1       2.752   3.865  18.681  0.00  0.00    +0.000 C 
ATOM      4 CL   UNL     1       2.414   2.230  19.027  0.00  0.00    +0.000 Cl
ATOM      5  C   UNL     1       3.647   4.298  17.624  0.00  0.00    +0.000 C 
ATOM      6 CL   UNL     1       4.489   3.233  16.596  0.00  0.00    +0.000 Cl
ATOM      7  C   UNL     1       3.696   5.640  17.607  0.00  0.00    +0.000 C 
ATOM      8 CL   UNL     1       4.622   6.604  16.552  0.00  0.00    +0.000 Cl
ATOM      9  C   UNL     1       2.814   6.142  18.678  0.00  0.00    +0.000 C 
ATOM     10  C   UNL     1       2.633   7.452  18.934  0.00  0.00    +0.000 C 
ENDROOT
BRANCH  10  11
ATOM     11  C   UNL     1       1.820   8.060  19.965  0.00  0.00    +0.000 C 
ATOM     12  C   UNL     1       1.201   9.243  19.837  0.00  0.00    +0.000 C 
BRANCH  12  13
ATOM     13  C   UNL     1       0.439   9.782  20.965  0.00  0.00    +0.000 A 
ATOM     14  C   UNL     1       0.477   9.131  22.204  0.00  0.00    +0.000 A 
ATOM     15  C   UNL     1      -0.301   9.595  23.266  0.00  0.00    +0.000 A 
ATOM     16  C   UNL     1      -1.122  10.709  23.095  0.00  0.00    +0.000 A 
ATOM     17  C   UNL     1      -1.165  11.359  21.862  0.00  0.00    +0.000 A 
ATOM     18  C   UNL     1      -0.388  10.897  20.797  0.00  0.00    +0.000 A 
ENDBRANCH  12  13
ENDBRANCH  10  11
TORSDOF 2
ENDMDL
MODEL 9
REMARK VINA RESULT:      -6.7      1.619      2.908
REMARK  Name = 
REMARK  2 active torsions:
REMARK  status: ('A' for Active; 'I' for Inactive)
REMARK    1  A    between atoms: C_10  and  C_11
REMARK    2  A    between atoms: C_12  and  C_13
REMARK                            x       y       z     vdW  Elec       q    Type
REMARK                         _______ _______ _______ _____ _____    ______ ____
ROOT
ATOM      1 CL   UNL     1       0.959   9.482  17.966  0.00  0.00    +0.000 Cl
ATOM      2  C   UNL     1       0.467   9.882  19.544  0.00  0.00    +0.000 C 
ATOM      3  C   UNL     1      -0.238  10.984  19.869  0.00  0.00    +0.000 C 
ATOM      4 CL   UNL     1      -0.776  12.197  18.798  0.00  0.00    +0.000 Cl
ATOM      5  C   UNL     1      -0.486  11.001  21.298  0.00  0.00    +0.000 C 
ATOM      6 CL   UNL     1      -1.338  12.238  22.100  0.00  0.00    +0.000 Cl
ATOM      7  C   UNL     1       0.061   9.909  21.856  0.00  0.00    +0.000 C 
ATOM      8 CL   UNL     1       0.041   9.500  23.509  0.00  0.00    +0.000 Cl
ATOM      9  C   UNL     1       0.702   9.122  20.785  0.00  0.00    +0.000 C 
ATOM     10  C   UNL     1       1.347   7.960  21.005  0.00  0.00    +0.000 C 
ENDROOT
BRANCH  10  11
ATOM     11  C   UNL     1       2.030   7.118  20.047  0.00  0.00    +0.000 C 
ATOM     12  C   UNL     1       2.015   5.778  20.075  0.00  0.00    +0.000 C 
BRANCH  12  13
ATOM     13  C   UNL     1       2.781   5.029  19.078  0.00  0.00    +0.000 A 
ATOM     14  C   UNL     1       4.154   5.264  18.935  0.00  0.00    +0.000 A 
ATOM     15  C   UNL     1       4.880   4.608  17.940  0.00  0.00    +0.000 A 
ATOM     16  C   UNL     1       4.239   3.715  17.081  0.00  0.00    +0.000 A 
ATOM     17  C   UNL     1       2.871   3.479  17.218  0.00  0.00    +0.000 A 
ATOM     18  C   UNL     1       2.142   4.135  18.213  0.00  0.00    +0.000 A 
ENDBRANCH  12  13
ENDBRANCH  10  11
TORSDOF 2
ENDMDL
