MODEL 1
REMARK VINA RESULT:      -8.3      0.000      0.000
REMARK  Name = 
REMARK  7 active torsions:
REMARK  status: ('A' for Active; 'I' for Inactive)
REMARK    1  A    between atoms: N_2  and  C_4
REMARK    2  A    between atoms: C_7  and  C_8
REMARK    3  A    between atoms: C_10  and  C_11
REMARK    4  A    between atoms: C_11  and  N_12
REMARK    5  A    between atoms: N_12  and  S_13
REMARK    6  A    between atoms: S_13  and  C_16
REMARK    7  A    between atoms: C_19  and  N_20
REMARK                            x       y       z     vdW  Elec       q    Type
REMARK                         _______ _______ _______ _____ _____    ______ ____
ROOT
ATOM      1  C   UNL     1       7.433   5.666  18.025  0.00  0.00    +0.000 C 
ENDROOT
BRANCH   1   4
ATOM      2  C   UNL     1       8.518   9.181  18.349  0.00  0.00    +0.000 A 
ATOM      3  C   UNL     1       8.587   7.866  18.880  0.00  0.00    +0.000 A 
ATOM      4  C   UNL     1       7.795   7.106  18.055  0.00  0.00    +0.000 A 
ATOM      5  O   UNL     1       7.252   7.914  17.105  0.00  0.00    +0.000 OA
ATOM      6  N   UNL     1       7.704   9.206  17.282  0.00  0.00    +0.000 NA
BRANCH   2  10
ATOM      7  C   UNL     1      10.479  12.704  19.748  0.00  0.00    +0.000 A 
ATOM      8  C   UNL     1      10.076  11.724  20.663  0.00  0.00    +0.000 A 
ATOM      9  C   UNL     1       9.432  10.571  20.202  0.00  0.00    +0.000 A 
ATOM     10  C   UNL     1       9.193  10.385  18.830  0.00  0.00    +0.000 A 
ATOM     11  C   UNL     1       9.612  11.374  17.925  0.00  0.00    +0.000 A 
ATOM     12  C   UNL     1      10.250  12.534  18.377  0.00  0.00    +0.000 A 
BRANCH   7  14
ATOM     13  O   UNL     1      10.625  14.525  21.176  0.00  0.00    +0.000 OA
ATOM     14  N   UNL     1      11.146  13.920  20.229  0.00  0.00    +0.000 N 
ATOM     15  O   UNL     1      12.188  14.271  19.659  0.00  0.00    +0.000 OA
ENDBRANCH   7  14
ENDBRANCH   2  10
ENDBRANCH   1   4
BRANCH   1  16
ATOM     16  N   UNL     1       7.437   5.176  16.650  0.00  0.00    +0.000 NA
ATOM     17  H   UNL     1       8.157   4.501  16.395  0.00  0.00    +0.000 HD
BRANCH  16  18
ATOM     18  S   UNL     1       5.959   4.819  15.953  0.00  0.00    +0.000 S 
ATOM     19  O   UNL     1       5.637   5.919  15.079  0.00  0.00    +0.000 OA
ATOM     20  O   UNL     1       6.020   3.452  15.480  0.00  0.00    +0.000 OA
BRANCH  18  21
ATOM     21  C   UNL     1       4.834   4.892  17.329  0.00  0.00    +0.000 A 
ATOM     22  C   UNL     1       4.725   3.790  18.185  0.00  0.00    +0.000 A 
ATOM     23  C   UNL     1       3.875   3.858  19.295  0.00  0.00    +0.000 A 
ATOM     24  C   UNL     1       3.146   5.032  19.540  0.00  0.00    +0.000 A 
ATOM     25  C   UNL     1       3.260   6.136  18.682  0.00  0.00    +0.000 A 
ATOM     26  C   UNL     1       4.109   6.065  17.575  0.00  0.00    +0.000 A 
BRANCH  24  27
ATOM     27  N   UNL     1       2.262   5.108  20.711  0.00  0.00    +0.000 N 
ATOM     28  O   UNL     1       1.502   6.082  20.798  0.00  0.00    +0.000 OA
ATOM     29  O   UNL     1       2.332   4.194  21.546  0.00  0.00    +0.000 OA
ENDBRANCH  24  27
ENDBRANCH  18  21
ENDBRANCH  16  18
ENDBRANCH   1  16
TORSDOF 7
ENDMDL
MODEL 2
REMARK VINA RESULT:      -8.3      0.616      1.563
REMARK  Name = 
REMARK  7 active torsions:
REMARK  status: ('A' for Active; 'I' for Inactive)
REMARK    1  A    between atoms: N_2  and  C_4
REMARK    2  A    between atoms: C_7  and  C_8
REMARK    3  A    between atoms: C_10  and  C_11
REMARK    4  A    between atoms: C_11  and  N_12
REMARK    5  A    between atoms: N_12  and  S_13
REMARK    6  A    between atoms: S_13  and  C_16
REMARK    7  A    between atoms: C_19  and  N_20
REMARK                            x       y       z     vdW  Elec       q    Type
REMARK                         _______ _______ _______ _____ _____    ______ ____
ROOT
ATOM      1  C   UNL     1       7.355   5.606  17.887  0.00  0.00    +0.000 C 
ENDROOT
BRANCH   1   4
ATOM      2  C   UNL     1       8.396   9.128  18.274  0.00  0.00    +0.000 A 
ATOM      3  C   UNL     1       8.510   7.798  18.761  0.00  0.00    +0.000 A 
ATOM      4  C   UNL     1       7.694   7.050  17.947  0.00  0.00    +0.000 A 
ATOM      5  O   UNL     1       7.098   7.877  17.046  0.00  0.00    +0.000 OA
ATOM      6  N   UNL     1       7.537   9.171  17.245  0.00  0.00    +0.000 NA
BRANCH   2  10
ATOM      7  C   UNL     1      10.382  12.624  19.705  0.00  0.00    +0.000 A 
ATOM      8  C   UNL     1       9.962  12.561  18.371  0.00  0.00    +0.000 A 
ATOM      9  C   UNL     1       9.313  11.413  17.905  0.00  0.00    +0.000 A 
ATOM     10  C   UNL     1       9.073  10.328  18.764  0.00  0.00    +0.000 A 
ATOM     11  C   UNL     1       9.492  10.411  20.101  0.00  0.00    +0.000 A 
ATOM     12  C   UNL     1      10.149  11.552  20.575  0.00  0.00    +0.000 A 
BRANCH   7  14
ATOM     13  O   UNL     1      12.151  14.124  19.664  0.00  0.00    +0.000 OA
ATOM     14  N   UNL     1      11.072  13.823  20.196  0.00  0.00    +0.000 N 
ATOM     15  O   UNL     1      10.540  14.461  21.114  0.00  0.00    +0.000 OA
ENDBRANCH   7  14
ENDBRANCH   2  10
ENDBRANCH   1   4
BRANCH   1  16
ATOM     16  N   UNL     1       7.454   5.123  16.514  0.00  0.00    +0.000 NA
ATOM     17  H   UNL     1       8.157   4.411  16.316  0.00  0.00    +0.000 HD
BRANCH  16  18
ATOM     18  S   UNL     1       6.027   4.849  15.686  0.00  0.00    +0.000 S 
ATOM     19  O   UNL     1       5.757   6.041  14.920  0.00  0.00    +0.000 OA
ATOM     20  O   UNL     1       6.126   3.544  15.068  0.00  0.00    +0.000 OA
BRANCH  18  21
ATOM     21  C   UNL     1       4.814   4.770  16.984  0.00  0.00    +0.000 A 
ATOM     22  C   UNL     1       4.118   5.930  17.344  0.00  0.00    +0.000 A 
ATOM     23  C   UNL     1       3.131   5.866  18.333  0.00  0.00    +0.000 A 
ATOM     24  C   UNL     1       2.846   4.638  18.951  0.00  0.00    +0.000 A 
ATOM     25  C   UNL     1       3.542   3.476  18.585  0.00  0.00    +0.000 A 
ATOM     26  C   UNL     1       4.528   3.544  17.597  0.00  0.00    +0.000 A 
BRANCH  24  27
ATOM     27  N   UNL     1       1.801   4.566  19.981  0.00  0.00    +0.000 N 
ATOM     28  O   UNL     1       0.826   3.833  19.766  0.00  0.00    +0.000 OA
ATOM     29  O   UNL     1       1.957   5.247  21.006  0.00  0.00    +0.000 OA
ENDBRANCH  24  27
ENDBRANCH  18  21
ENDBRANCH  16  18
ENDBRANCH   1  16
TORSDOF 7
ENDMDL
MODEL 3
REMARK VINA RESULT:      -8.3      1.911      2.485
REMARK  Name = 
REMARK  7 active torsions:
REMARK  status: ('A' for Active; 'I' for Inactive)
REMARK    1  A    between atoms: N_2  and  C_4
REMARK    2  A    between atoms: C_7  and  C_8
REMARK    3  A    between atoms: C_10  and  C_11
REMARK    4  A    between atoms: C_11  and  N_12
REMARK    5  A    between atoms: N_12  and  S_13
REMARK    6  A    between atoms: S_13  and  C_16
REMARK    7  A    between atoms: C_19  and  N_20
REMARK                            x       y       z     vdW  Elec       q    Type
REMARK                         _______ _______ _______ _____ _____    ______ ____
ROOT
ATOM      1  C   UNL     1       7.412   5.061  18.145  0.00  0.00    +0.000 C 
ENDROOT
BRANCH   1   4
ATOM      2  C   UNL     1       8.195   8.670  18.119  0.00  0.00    +0.000 A 
ATOM      3  C   UNL     1       8.345   7.430  18.795  0.00  0.00    +0.000 A 
ATOM      4  C   UNL     1       7.655   6.522  18.029  0.00  0.00    +0.000 A 
ATOM      5  O   UNL     1       7.093   7.175  16.976  0.00  0.00    +0.000 OA
ATOM      6  N   UNL     1       7.432   8.512  17.027  0.00  0.00    +0.000 NA
BRANCH   2  10
ATOM      7  C   UNL     1       9.798  12.475  19.198  0.00  0.00    +0.000 A 
ATOM      8  C   UNL     1      10.004  11.372  20.036  0.00  0.00    +0.000 A 
ATOM      9  C   UNL     1       9.476  10.127  19.681  0.00  0.00    +0.000 A 
ATOM     10  C   UNL     1       8.749   9.972  18.489  0.00  0.00    +0.000 A 
ATOM     11  C   UNL     1       8.560  11.086  17.656  0.00  0.00    +0.000 A 
ATOM     12  C   UNL     1       9.078  12.338  18.006  0.00  0.00    +0.000 A 
BRANCH   7  14
ATOM     13  O   UNL     1      11.572  13.936  19.514  0.00  0.00    +0.000 OA
ATOM     14  N   UNL     1      10.343  13.786  19.573  0.00  0.00    +0.000 N 
ATOM     15  O   UNL     1       9.545  14.663  19.931  0.00  0.00    +0.000 OA
ENDBRANCH   7  14
ENDBRANCH   2  10
ENDBRANCH   1   4
BRANCH   1  16
ATOM     16  N   UNL     1       6.256   4.680  17.340  0.00  0.00    +0.000 NA
ATOM     17  H   UNL     1       6.435   4.171  16.475  0.00  0.00    +0.000 HD
BRANCH  16  18
ATOM     18  S   UNL     1       4.909   4.101  18.147  0.00  0.00    +0.000 S 
ATOM     19  O   UNL     1       4.186   3.280  17.208  0.00  0.00    +0.000 OA
ATOM     20  O   UNL     1       5.354   3.595  19.428  0.00  0.00    +0.000 OA
BRANCH  18  21
ATOM     21  C   UNL     1       3.940   5.567  18.421  0.00  0.00    +0.000 A 
ATOM     22  C   UNL     1       3.920   6.568  17.444  0.00  0.00    +0.000 A 
ATOM     23  C   UNL     1       3.124   7.704  17.633  0.00  0.00    +0.000 A 
ATOM     24  C   UNL     1       2.352   7.824  18.799  0.00  0.00    +0.000 A 
ATOM     25  C   UNL     1       2.372   6.817  19.775  0.00  0.00    +0.000 A 
ATOM     26  C   UNL     1       3.167   5.684  19.584  0.00  0.00    +0.000 A 
BRANCH  24  27
ATOM     27  N   UNL     1       1.508   9.010  18.994  0.00  0.00    +0.000 N 
ATOM     28  O   UNL     1       1.484   9.858  18.091  0.00  0.00    +0.000 OA
ATOM     29  O   UNL     1       0.869   9.094  20.053  0.00  0.00    +0.000 OA
ENDBRANCH  24  27
ENDBRANCH  18  21
ENDBRANCH  16  18
ENDBRANCH   1  16
TORSDOF 7
ENDMDL
MODEL 4
REMARK VINA RESULT:      -8.2      2.389      2.882
REMARK  Name = 
REMARK  7 active torsions:
REMARK  status: ('A' for Active; 'I' for Inactive)
REMARK    1  A    between atoms: N_2  and  C_4
REMARK    2  A    between atoms: C_7  and  C_8
REMARK    3  A    between atoms: C_10  and  C_11
REMARK    4  A    between atoms: C_11  and  N_12
REMARK    5  A    between atoms: N_12  and  S_13
REMARK    6  A    between atoms: S_13  and  C_16
REMARK    7  A    between atoms: C_19  and  N_20
REMARK                            x       y       z     vdW  Elec       q    Type
REMARK                         _______ _______ _______ _____ _____    ______ ____
ROOT
ATOM      1  C   UNL     1       6.911   7.589  17.581  0.00  0.00    +0.000 C 
ENDROOT
BRANCH   1   4
ATOM      2  C   UNL     1       9.017  10.571  18.141  0.00  0.00    +0.000 A 
ATOM      3  C   UNL     1       8.004   9.967  17.350  0.00  0.00    +0.000 A 
ATOM      4  C   UNL     1       7.814   8.724  17.902  0.00  0.00    +0.000 A 
ATOM      5  O   UNL     1       8.680   8.569  18.940  0.00  0.00    +0.000 OA
ATOM      6  N   UNL     1       9.426   9.720  19.095  0.00  0.00    +0.000 NA
BRANCH   2  10
ATOM      7  C   UNL     1      10.685  14.481  17.762  0.00  0.00    +0.000 A 
ATOM      8  C   UNL     1      11.495  13.358  17.557  0.00  0.00    +0.000 A 
ATOM      9  C   UNL     1      10.946  12.077  17.684  0.00  0.00    +0.000 A 
ATOM     10  C   UNL     1       9.589  11.910  18.007  0.00  0.00    +0.000 A 
ATOM     11  C   UNL     1       8.789  13.047  18.199  0.00  0.00    +0.000 A 
ATOM     12  C   UNL     1       9.330  14.331  18.083  0.00  0.00    +0.000 A 
BRANCH   7  14
ATOM     13  O   UNL     1      11.105  16.422  16.564  0.00  0.00    +0.000 OA
ATOM     14  N   UNL     1      11.260  15.826  17.640  0.00  0.00    +0.000 N 
ATOM     15  O   UNL     1      11.870  16.284  18.615  0.00  0.00    +0.000 OA
ENDBRANCH   7  14
ENDBRANCH   2  10
ENDBRANCH   1   4
BRANCH   1  16
ATOM     16  N   UNL     1       7.694   6.405  17.246  0.00  0.00    +0.000 NA
ATOM     17  H   UNL     1       8.644   6.551  16.907  0.00  0.00    +0.000 HD
BRANCH  16  18
ATOM     18  S   UNL     1       7.584   5.089  18.273  0.00  0.00    +0.000 S 
ATOM     19  O   UNL     1       8.387   4.042  17.691  0.00  0.00    +0.000 OA
ATOM     20  O   UNL     1       7.806   5.570  19.621  0.00  0.00    +0.000 OA
BRANCH  18  21
ATOM     21  C   UNL     1       5.882   4.596  18.121  0.00  0.00    +0.000 A 
ATOM     22  C   UNL     1       5.019   4.764  19.210  0.00  0.00    +0.000 A 
ATOM     23  C   UNL     1       3.669   4.421  19.083  0.00  0.00    +0.000 A 
ATOM     24  C   UNL     1       3.193   3.916  17.862  0.00  0.00    +0.000 A 
ATOM     25  C   UNL     1       4.060   3.752  16.771  0.00  0.00    +0.000 A 
ATOM     26  C   UNL     1       5.408   4.096  16.901  0.00  0.00    +0.000 A 
BRANCH  24  27
ATOM     27  N   UNL     1       1.774   3.566  17.723  0.00  0.00    +0.000 N 
ATOM     28  O   UNL     1       1.009   4.425  17.263  0.00  0.00    +0.000 OA
ATOM     29  O   UNL     1       1.424   2.431  18.077  0.00  0.00    +0.000 OA
ENDBRANCH  24  27
ENDBRANCH  18  21
ENDBRANCH  16  18
ENDBRANCH   1  16
TORSDOF 7
ENDMDL
MODEL 5
REMARK VINA RESULT:      -8.2      5.629      8.260
REMARK  Name = 
REMARK  7 active torsions:
REMARK  status: ('A' for Active; 'I' for Inactive)
REMARK    1  A    between atoms: N_2  and  C_4
REMARK    2  A    between atoms: C_7  and  C_8
REMARK    3  A    between atoms: C_10  and  C_11
REMARK    4  A    between atoms: C_11  and  N_12
REMARK    5  A    between atoms: N_12  and  S_13
REMARK    6  A    between atoms: S_13  and  C_16
REMARK    7  A    between atoms: C_19  and  N_20
REMARK                            x       y       z     vdW  Elec       q    Type
REMARK                         _______ _______ _______ _____ _____    ______ ____
ROOT
ATOM      1  C   UNL     1       2.566   5.071  19.923  0.00  0.00    +0.000 C 
ENDROOT
BRANCH   1   4
ATOM      2  C   UNL     1       1.192   8.420  20.654  0.00  0.00    +0.000 A 
ATOM      3  C   UNL     1       1.316   7.072  21.081  0.00  0.00    +0.000 A 
ATOM      4  C   UNL     1       2.062   6.456  20.105  0.00  0.00    +0.000 A 
ATOM      5  O   UNL     1       2.342   7.364  19.132  0.00  0.00    +0.000 OA
ATOM      6  N   UNL     1       1.806   8.589  19.473  0.00  0.00    +0.000 NA
BRANCH   2  10
ATOM      7  C   UNL     1      -0.802  11.639  22.624  0.00  0.00    +0.000 A 
ATOM      8  C   UNL     1      -0.865  10.349  23.164  0.00  0.00    +0.000 A 
ATOM      9  C   UNL     1      -0.212   9.296  22.515  0.00  0.00    +0.000 A 
ATOM     10  C   UNL     1       0.511   9.522  21.333  0.00  0.00    +0.000 A 
ATOM     11  C   UNL     1       0.573  10.824  20.810  0.00  0.00    +0.000 A 
ATOM     12  C   UNL     1      -0.083  11.883  21.447  0.00  0.00    +0.000 A 
BRANCH   7  14
ATOM     13  O   UNL     1      -0.806  13.697  23.695  0.00  0.00    +0.000 OA
ATOM     14  N   UNL     1      -1.494  12.745  23.296  0.00  0.00    +0.000 N 
ATOM     15  O   UNL     1      -2.722  12.661  23.431  0.00  0.00    +0.000 OA
ENDBRANCH   7  14
ENDBRANCH   2  10
ENDBRANCH   1   4
BRANCH   1  16
ATOM     16  N   UNL     1       3.436   5.004  18.754  0.00  0.00    +0.000 NA
ATOM     17  H   UNL     1       3.386   5.774  18.088  0.00  0.00    +0.000 HD
BRANCH  16  18
ATOM     18  S   UNL     1       5.005   4.470  18.988  0.00  0.00    +0.000 S 
ATOM     19  O   UNL     1       5.668   5.472  19.785  0.00  0.00    +0.000 OA
ATOM     20  O   UNL     1       4.936   3.083  19.396  0.00  0.00    +0.000 OA
BRANCH  18  21
ATOM     21  C   UNL     1       5.706   4.546  17.355  0.00  0.00    +0.000 A 
ATOM     22  C   UNL     1       4.856   4.535  16.243  0.00  0.00    +0.000 A 
ATOM     23  C   UNL     1       5.398   4.640  14.957  0.00  0.00    +0.000 A 
ATOM     24  C   UNL     1       6.787   4.760  14.797  0.00  0.00    +0.000 A 
ATOM     25  C   UNL     1       7.636   4.774  15.914  0.00  0.00    +0.000 A 
ATOM     26  C   UNL     1       7.092   4.669  17.197  0.00  0.00    +0.000 A 
BRANCH  24  27
ATOM     27  N   UNL     1       7.357   4.882  13.448  0.00  0.00    +0.000 N 
ATOM     28  O   UNL     1       6.924   4.126  12.568  0.00  0.00    +0.000 OA
ATOM     29  O   UNL     1       8.240   5.733  13.272  0.00  0.00    +0.000 OA
ENDBRANCH  24  27
ENDBRANCH  18  21
ENDBRANCH  16  18
ENDBRANCH   1  16
TORSDOF 7
ENDMDL
MODEL 6
REMARK VINA RESULT:      -8.2      5.540      8.542
REMARK  Name = 
REMARK  7 active torsions:
REMARK  status: ('A' for Active; 'I' for Inactive)
REMARK    1  A    between atoms: N_2  and  C_4
REMARK    2  A    between atoms: C_7  and  C_8
REMARK    3  A    between atoms: C_10  and  C_11
REMARK    4  A    between atoms: C_11  and  N_12
REMARK    5  A    between atoms: N_12  and  S_13
REMARK    6  A    between atoms: S_13  and  C_16
REMARK    7  A    between atoms: C_19  and  N_20
REMARK                            x       y       z     vdW  Elec       q    Type
REMARK                         _______ _______ _______ _____ _____    ______ ____
ROOT
ATOM      1  C   UNL     1       2.996   5.558  19.872  0.00  0.00    +0.000 C 
ENDROOT
BRANCH   1   4
ATOM      2  C   UNL     1       1.031   8.605  20.575  0.00  0.00    +0.000 A 
ATOM      3  C   UNL     1       1.430   7.321  21.031  0.00  0.00    +0.000 A 
ATOM      4  C   UNL     1       2.241   6.826  20.039  0.00  0.00    +0.000 A 
ATOM      5  O   UNL     1       2.303   7.736  19.031  0.00  0.00    +0.000 OA
ATOM      6  N   UNL     1       1.554   8.847  19.364  0.00  0.00    +0.000 NA
BRANCH   2  10
ATOM      7  C   UNL     1      -1.469  11.445  22.549  0.00  0.00    +0.000 A 
ATOM      8  C   UNL     1      -0.949  10.361  23.266  0.00  0.00    +0.000 A 
ATOM      9  C   UNL     1      -0.131   9.431  22.616  0.00  0.00    +0.000 A 
ATOM     10  C   UNL     1       0.178   9.579  21.254  0.00  0.00    +0.000 A 
ATOM     11  C   UNL     1      -0.344  10.677  20.552  0.00  0.00    +0.000 A 
ATOM     12  C   UNL     1      -1.168  11.609  21.191  0.00  0.00    +0.000 A 
BRANCH   7  14
ATOM     13  O   UNL     1      -3.530  12.123  23.368  0.00  0.00    +0.000 OA
ATOM     14  N   UNL     1      -2.335  12.418  23.225  0.00  0.00    +0.000 N 
ATOM     15  O   UNL     1      -1.823  13.478  23.611  0.00  0.00    +0.000 OA
ENDBRANCH   7  14
ENDBRANCH   2  10
ENDBRANCH   1   4
BRANCH   1  16
ATOM     16  N   UNL     1       4.083   5.744  18.916  0.00  0.00    +0.000 NA
ATOM     17  H   UNL     1       4.474   6.681  18.827  0.00  0.00    +0.000 HD
BRANCH  16  18
ATOM     18  S   UNL     1       5.261   4.558  18.846  0.00  0.00    +0.000 S 
ATOM     19  O   UNL     1       6.353   5.011  19.672  0.00  0.00    +0.000 OA
ATOM     20  O   UNL     1       4.610   3.284  19.063  0.00  0.00    +0.000 OA
BRANCH  18  21
ATOM     21  C   UNL     1       5.811   4.633  17.157  0.00  0.00    +0.000 A 
ATOM     22  C   UNL     1       7.093   5.119  16.873  0.00  0.00    +0.000 A 
ATOM     23  C   UNL     1       7.549   5.139  15.551  0.00  0.00    +0.000 A 
ATOM     24  C   UNL     1       6.718   4.666  14.523  0.00  0.00    +0.000 A 
ATOM     25  C   UNL     1       5.435   4.175  14.810  0.00  0.00    +0.000 A 
ATOM     26  C   UNL     1       4.983   4.157  16.132  0.00  0.00    +0.000 A 
BRANCH  24  27
ATOM     27  N   UNL     1       7.199   4.675  13.135  0.00  0.00    +0.000 N 
ATOM     28  O   UNL     1       6.710   3.852  12.349  0.00  0.00    +0.000 OA
ATOM     29  O   UNL     1       8.069   5.505  12.833  0.00  0.00    +0.000 OA
ENDBRANCH  24  27
ENDBRANCH  18  21
ENDBRANCH  16  18
ENDBRANCH   1  16
TORSDOF 7
ENDMDL
MODEL 7
REMARK VINA RESULT:      -8.2      1.975      2.571
REMARK  Name = 
REMARK  7 active torsions:
REMARK  status: ('A' for Active; 'I' for Inactive)
REMARK    1  A    between atoms: N_2  and  C_4
REMARK    2  A    between atoms: C_7  and  C_8
REMARK    3  A    between atoms: C_10  and  C_11
REMARK    4  A    between atoms: C_11  and  N_12
REMARK    5  A    between atoms: N_12  and  S_13
REMARK    6  A    between atoms: S_13  and  C_16
REMARK    7  A    between atoms: C_19  and  N_20
REMARK                            x       y       z     vdW  Elec       q    Type
REMARK                         _______ _______ _______ _____ _____    ______ ____
ROOT
ATOM      1  C   UNL     1       7.415   4.962  18.336  0.00  0.00    +0.000 C 
ENDROOT
BRANCH   1   4
ATOM      2  C   UNL     1       8.196   8.567  18.146  0.00  0.00    +0.000 A 
ATOM      3  C   UNL     1       8.292   7.372  18.908  0.00  0.00    +0.000 A 
ATOM      4  C   UNL     1       7.666   6.414  18.148  0.00  0.00    +0.000 A 
ATOM      5  O   UNL     1       7.189   6.997  17.015  0.00  0.00    +0.000 OA
ATOM      6  N   UNL     1       7.522   8.336  17.009  0.00  0.00    +0.000 NA
BRANCH   2  10
ATOM      7  C   UNL     1       9.732  12.430  19.110  0.00  0.00    +0.000 A 
ATOM      8  C   UNL     1       8.996  12.249  17.933  0.00  0.00    +0.000 A 
ATOM      9  C   UNL     1       8.495  10.982  17.619  0.00  0.00    +0.000 A 
ATOM     10  C   UNL     1       8.718   9.892  18.477  0.00  0.00    +0.000 A 
ATOM     11  C   UNL     1       9.450  10.092  19.658  0.00  0.00    +0.000 A 
ATOM     12  C   UNL     1       9.962  11.354  19.977  0.00  0.00    +0.000 A 
BRANCH   7  14
ATOM     13  O   UNL     1       9.583  14.744  19.136  0.00  0.00    +0.000 OA
ATOM     14  N   UNL     1      10.268  13.757  19.438  0.00  0.00    +0.000 N 
ATOM     15  O   UNL     1      11.374  13.813  19.994  0.00  0.00    +0.000 OA
ENDBRANCH   7  14
ENDBRANCH   2  10
ENDBRANCH   1   4
BRANCH   1  16
ATOM     16  N   UNL     1       6.331   4.523  17.463  0.00  0.00    +0.000 NA
ATOM     17  H   UNL     1       6.583   3.968  16.646  0.00  0.00    +0.000 HD
BRANCH  16  18
ATOM     18  S   UNL     1       4.926   3.979  18.189  0.00  0.00    +0.000 S 
ATOM     19  O   UNL     1       4.269   3.126  17.230  0.00  0.00    +0.000 OA
ATOM     20  O   UNL     1       5.272   3.521  19.517  0.00  0.00    +0.000 OA
BRANCH  18  21
ATOM     21  C   UNL     1       3.948   5.457  18.336  0.00  0.00    +0.000 A 
ATOM     22  C   UNL     1       3.227   5.688  19.514  0.00  0.00    +0.000 A 
ATOM     23  C   UNL     1       2.491   6.870  19.655  0.00  0.00    +0.000 A 
ATOM     24  C   UNL     1       2.488   7.813  18.616  0.00  0.00    +0.000 A 
ATOM     25  C   UNL     1       3.215   7.582  17.438  0.00  0.00    +0.000 A 
ATOM     26  C   UNL     1       3.949   6.400  17.300  0.00  0.00    +0.000 A 
BRANCH  24  27
ATOM     27  N   UNL     1       1.726   9.060  18.766  0.00  0.00    +0.000 N 
ATOM     28  O   UNL     1       1.943   9.972  17.956  0.00  0.00    +0.000 OA
ATOM     29  O   UNL     1       0.911   9.127  19.698  0.00  0.00    +0.000 OA
ENDBRANCH  24  27
ENDBRANCH  18  21
ENDBRANCH  16  18
ENDBRANCH   1  16
TORSDOF 7
ENDMDL
MODEL 8
REMARK VINA RESULT:      -8.2      5.690      8.158
REMARK  Name = 
REMARK  7 active torsions:
REMARK  status: ('A' for Active; 'I' for Inactive)
REMARK    1  A    between atoms: N_2  and  C_4
REMARK    2  A    between atoms: C_7  and  C_8
REMARK    3  A    between atoms: C_10  and  C_11
REMARK    4  A    between atoms: C_11  and  N_12
REMARK    5  A    between atoms: N_12  and  S_13
REMARK    6  A    between atoms: S_13  and  C_16
REMARK    7  A    between atoms: C_19  and  N_20
REMARK                            x       y       z     vdW  Elec       q    Type
REMARK                         _______ _______ _______ _____ _____    ______ ____
ROOT
ATOM      1  C   UNL     1       3.494   6.427  17.706  0.00  0.00    +0.000 C 
ENDROOT
BRANCH   1   4
ATOM      2  C   UNL     1       1.411   9.046  19.267  0.00  0.00    +0.000 A 
ATOM      3  C   UNL     1       2.055   7.791  19.430  0.00  0.00    +0.000 A 
ATOM      4  C   UNL     1       2.658   7.541  18.221  0.00  0.00    +0.000 A 
ATOM      5  O   UNL     1       2.371   8.562  17.369  0.00  0.00    +0.000 OA
ATOM      6  N   UNL     1       1.598   9.503  18.019  0.00  0.00    +0.000 NA
BRANCH   2  10
ATOM      7  C   UNL     1      -0.860  11.239  22.139  0.00  0.00    +0.000 A 
ATOM      8  C   UNL     1      -0.339   9.985  22.477  0.00  0.00    +0.000 A 
ATOM      9  C   UNL     1       0.403   9.267  21.533  0.00  0.00    +0.000 A 
ATOM     10  C   UNL     1       0.637   9.798  20.254  0.00  0.00    +0.000 A 
ATOM     11  C   UNL     1       0.115  11.061  19.934  0.00  0.00    +0.000 A 
ATOM     12  C   UNL     1      -0.635  11.783  20.868  0.00  0.00    +0.000 A 
BRANCH   7  14
ATOM     13  O   UNL     1      -2.745  11.522  23.461  0.00  0.00    +0.000 OA
ATOM     14  N   UNL     1      -1.648  11.990  23.124  0.00  0.00    +0.000 N 
ATOM     15  O   UNL     1      -1.174  13.050  23.557  0.00  0.00    +0.000 OA
ENDBRANCH   7  14
ENDBRANCH   2  10
ENDBRANCH   1   4
BRANCH   1  16
ATOM     16  N   UNL     1       4.100   5.700  18.816  0.00  0.00    +0.000 NA
ATOM     17  H   UNL     1       3.633   5.751  19.721  0.00  0.00    +0.000 HD
BRANCH  16  18
ATOM     18  S   UNL     1       4.702   4.171  18.502  0.00  0.00    +0.000 S 
ATOM     19  O   UNL     1       5.691   3.899  19.516  0.00  0.00    +0.000 OA
ATOM     20  O   UNL     1       3.571   3.296  18.275  0.00  0.00    +0.000 OA
BRANCH  18  21
ATOM     21  C   UNL     1       5.570   4.385  16.964  0.00  0.00    +0.000 A 
ATOM     22  C   UNL     1       4.970   3.959  15.773  0.00  0.00    +0.000 A 
ATOM     23  C   UNL     1       5.627   4.165  14.555  0.00  0.00    +0.000 A 
ATOM     24  C   UNL     1       6.878   4.802  14.541  0.00  0.00    +0.000 A 
ATOM     25  C   UNL     1       7.474   5.232  15.735  0.00  0.00    +0.000 A 
ATOM     26  C   UNL     1       6.816   5.024  16.950  0.00  0.00    +0.000 A 
BRANCH  24  27
ATOM     27  N   UNL     1       7.564   5.030  13.262  0.00  0.00    +0.000 N 
ATOM     28  O   UNL     1       8.518   5.820  13.250  0.00  0.00    +0.000 OA
ATOM     29  O   UNL     1       7.145   4.419  12.267  0.00  0.00    +0.000 OA
ENDBRANCH  24  27
ENDBRANCH  18  21
ENDBRANCH  16  18
ENDBRANCH   1  16
TORSDOF 7
ENDMDL
MODEL 9
REMARK VINA RESULT:      -8.2      1.825      2.454
REMARK  Name = 
REMARK  7 active torsions:
REMARK  status: ('A' for Active; 'I' for Inactive)
REMARK    1  A    between atoms: N_2  and  C_4
REMARK    2  A    between atoms: C_7  and  C_8
REMARK    3  A    between atoms: C_10  and  C_11
REMARK    4  A    between atoms: C_11  and  N_12
REMARK    5  A    between atoms: N_12  and  S_13
REMARK    6  A    between atoms: S_13  and  C_16
REMARK    7  A    between atoms: C_19  and  N_20
REMARK                            x       y       z     vdW  Elec       q    Type
REMARK                         _______ _______ _______ _____ _____    ______ ____
ROOT
ATOM      1  C   UNL     1       7.154   4.628  17.756  0.00  0.00    +0.000 C 
ENDROOT
BRANCH   1   4
ATOM      2  C   UNL     1       7.933   8.234  17.905  0.00  0.00    +0.000 A 
ATOM      3  C   UNL     1       8.093   6.961  18.514  0.00  0.00    +0.000 A 
ATOM      4  C   UNL     1       7.394   6.093  17.712  0.00  0.00    +0.000 A 
ATOM      5  O   UNL     1       6.818   6.798  16.701  0.00  0.00    +0.000 OA
ATOM      6  N   UNL     1       7.156   8.131  16.816  0.00  0.00    +0.000 NA
BRANCH   2  10
ATOM      7  C   UNL     1       9.573  11.970  19.157  0.00  0.00    +0.000 A 
ATOM      8  C   UNL     1       8.857  11.894  17.957  0.00  0.00    +0.000 A 
ATOM      9  C   UNL     1       8.322  10.668  17.548  0.00  0.00    +0.000 A 
ATOM     10  C   UNL     1       8.490   9.516  18.334  0.00  0.00    +0.000 A 
ATOM     11  C   UNL     1       9.204   9.612  19.540  0.00  0.00    +0.000 A 
ATOM     12  C   UNL     1       9.749  10.832  19.953  0.00  0.00    +0.000 A 
BRANCH   7  14
ATOM     13  O   UNL     1      11.312  13.502  19.252  0.00  0.00    +0.000 OA
ATOM     14  N   UNL     1      10.144  13.253  19.584  0.00  0.00    +0.000 N 
ATOM     15  O   UNL     1       9.428  14.010  20.254  0.00  0.00    +0.000 OA
ENDBRANCH   7  14
ENDBRANCH   2  10
ENDBRANCH   1   4
BRANCH   1  16
ATOM     16  N   UNL     1       6.095   4.321  18.712  0.00  0.00    +0.000 NA
ATOM     17  H   UNL     1       6.046   4.892  19.556  0.00  0.00    +0.000 HD
BRANCH  16  18
ATOM     18  S   UNL     1       4.579   3.965  18.100  0.00  0.00    +0.000 S 
ATOM     19  O   UNL     1       4.665   4.118  16.668  0.00  0.00    +0.000 OA
ATOM     20  O   UNL     1       4.140   2.732  18.717  0.00  0.00    +0.000 OA
BRANCH  18  21
ATOM     21  C   UNL     1       3.572   5.297  18.713  0.00  0.00    +0.000 A 
ATOM     22  C   UNL     1       2.825   5.109  19.881  0.00  0.00    +0.000 A 
ATOM     23  C   UNL     1       2.065   6.166  20.394  0.00  0.00    +0.000 A 
ATOM     24  C   UNL     1       2.065   7.405  19.734  0.00  0.00    +0.000 A 
ATOM     25  C   UNL     1       2.818   7.591  18.565  0.00  0.00    +0.000 A 
ATOM     26  C   UNL     1       3.576   6.533  18.055  0.00  0.00    +0.000 A 
BRANCH  24  27
ATOM     27  N   UNL     1       1.278   8.520  20.278  0.00  0.00    +0.000 N 
ATOM     28  O   UNL     1       0.758   9.306  19.474  0.00  0.00    +0.000 OA
ATOM     29  O   UNL     1       1.182   8.610  21.510  0.00  0.00    +0.000 OA
ENDBRANCH  24  27
ENDBRANCH  18  21
ENDBRANCH  16  18
ENDBRANCH   1  16
TORSDOF 7
ENDMDL
