MODEL 1
REMARK VINA RESULT:      -8.2      0.000      0.000
REMARK  Name = 
REMARK  7 active torsions:
REMARK  status: ('A' for Active; 'I' for Inactive)
REMARK    1  A    between atoms: C_1  and  O_2
REMARK    2  A    between atoms: O_2  and  C_3
REMARK    3  A    between atoms: C_6  and  N_7
REMARK    4  A    between atoms: N_7  and  C_8
REMARK    5  A    between atoms: C_10  and  C_11
REMARK    6  A    between atoms: C_15  and  S_16
REMARK    7  A    between atoms: S_16  and  C_19
REMARK                            x       y       z     vdW  Elec       q    Type
REMARK                         _______ _______ _______ _____ _____    ______ ____
ROOT
ATOM      1  C   UNL     1       2.891   4.929  19.727  0.00  0.00    +0.000 A 
ATOM      2  N   UNL     1       2.227   4.434  20.793  0.00  0.00    +0.000 NA
ATOM      3  C   UNL     1       1.994   3.115  20.841  0.00  0.00    +0.000 A 
ATOM      4  C   UNL     1       1.384   2.549  22.084  0.00  0.00    +0.000 C 
ATOM      5  N   UNL     1       2.293   2.264  19.852  0.00  0.00    +0.000 NA
ATOM      6  C   UNL     1       2.921   2.756  18.778  0.00  0.00    +0.000 A 
ATOM      7  N   UNL     1       3.086   1.822  17.767  0.00  0.00    +0.000 N 
ATOM      8  C   UNL     1       3.272   4.095  18.680  0.00  0.00    +0.000 A 
ATOM      9  H   UNL     1       2.861   0.899  18.128  0.00  0.00    +0.000 HD
ATOM     10  H   UNL     1       4.004   1.860  17.313  0.00  0.00    +0.000 HD
ENDROOT
BRANCH   8  11
ATOM     11  S   UNL     1       4.395   4.628  17.443  0.00  0.00    +0.000 S 
ATOM     12  O   UNL     1       4.943   3.393  16.885  0.00  0.00    +0.000 OA
ATOM     13  O   UNL     1       3.691   5.527  16.539  0.00  0.00    +0.000 OA
BRANCH  11  14
ATOM     14  C   UNL     1       5.793   5.547  18.038  0.00  0.00    +0.000 A 
ATOM     15  C   UNL     1       6.568   5.132  19.119  0.00  0.00    +0.000 A 
ATOM     16  C   UNL     1       7.764   5.811  19.396  0.00  0.00    +0.000 A 
ATOM     17  C   UNL     1       8.169   6.901  18.615  0.00  0.00    +0.000 A 
ATOM     18  C   UNL     1       7.351   7.355  17.584  0.00  0.00    +0.000 A 
ATOM     19  C   UNL     1       6.160   6.687  17.303  0.00  0.00    +0.000 A 
ENDBRANCH  11  14
ENDBRANCH   8  11
BRANCH   1  20
ATOM     20  N   UNL     1       3.219   6.303  19.759  0.00  0.00    +0.000 N 
ATOM     21  H   UNL     1       3.822   6.484  20.565  0.00  0.00    +0.000 HD
BRANCH  20  25
ATOM     22  C   UNL     1       0.881   9.784  19.036  0.00  0.00    +0.000 A 
ATOM     23  C   UNL     1       0.864   9.155  20.281  0.00  0.00    +0.000 A 
ATOM     24  C   UNL     1       1.602   7.983  20.508  0.00  0.00    +0.000 A 
ATOM     25  C   UNL     1       2.357   7.398  19.484  0.00  0.00    +0.000 A 
ATOM     26  C   UNL     1       2.279   7.977  18.209  0.00  0.00    +0.000 A 
ATOM     27  C   UNL     1       1.564   9.173  17.987  0.00  0.00    +0.000 A 
BRANCH  22  29
ATOM     28  C   UNL     1      -0.506  11.370  20.142  0.00  0.00    +0.000 C 
ATOM     29  O   UNL     1       0.138  10.929  18.949  0.00  0.00    +0.000 OA
ENDBRANCH  22  29
ENDBRANCH  20  25
ENDBRANCH   1  20
TORSDOF 5
ENDMDL
MODEL 2
REMARK VINA RESULT:      -8.2      2.442      5.243
REMARK  Name = 
REMARK  7 active torsions:
REMARK  status: ('A' for Active; 'I' for Inactive)
REMARK    1  A    between atoms: C_1  and  O_2
REMARK    2  A    between atoms: O_2  and  C_3
REMARK    3  A    between atoms: C_6  and  N_7
REMARK    4  A    between atoms: N_7  and  C_8
REMARK    5  A    between atoms: C_10  and  C_11
REMARK    6  A    between atoms: C_15  and  S_16
REMARK    7  A    between atoms: S_16  and  C_19
REMARK                            x       y       z     vdW  Elec       q    Type
REMARK                         _______ _______ _______ _____ _____    ______ ____
ROOT
ATOM      1  C   UNL     1       4.312   2.657  19.396  0.00  0.00    +0.000 A 
ATOM      2  N   UNL     1       5.163   1.784  19.976  0.00  0.00    +0.000 NA
ATOM      3  C   UNL     1       4.840   1.283  21.176  0.00  0.00    +0.000 A 
ATOM      4  C   UNL     1       5.712   0.213  21.753  0.00  0.00    +0.000 C 
ATOM      5  N   UNL     1       3.772   1.664  21.886  0.00  0.00    +0.000 NA
ATOM      6  C   UNL     1       2.943   2.555  21.330  0.00  0.00    +0.000 A 
ATOM      7  N   UNL     1       1.932   2.968  22.184  0.00  0.00    +0.000 N 
ATOM      8  C   UNL     1       3.158   3.067  20.058  0.00  0.00    +0.000 A 
ATOM      9  H   UNL     1       1.920   2.363  23.001  0.00  0.00    +0.000 HD
ATOM     10  H   UNL     1       1.015   3.050  21.734  0.00  0.00    +0.000 HD
ENDROOT
BRANCH   8  11
ATOM     11  S   UNL     1       1.884   3.941  19.228  0.00  0.00    +0.000 S 
ATOM     12  O   UNL     1       1.962   3.481  17.843  0.00  0.00    +0.000 OA
ATOM     13  O   UNL     1       0.635   3.724  19.946  0.00  0.00    +0.000 OA
BRANCH  11  14
ATOM     14  C   UNL     1       2.097   5.702  19.161  0.00  0.00    +0.000 A 
ATOM     15  C   UNL     1       2.451   6.379  17.996  0.00  0.00    +0.000 A 
ATOM     16  C   UNL     1       2.404   7.782  17.985  0.00  0.00    +0.000 A 
ATOM     17  C   UNL     1       2.027   8.496  19.129  0.00  0.00    +0.000 A 
ATOM     18  C   UNL     1       1.748   7.815  20.310  0.00  0.00    +0.000 A 
ATOM     19  C   UNL     1       1.793   6.421  20.330  0.00  0.00    +0.000 A 
ENDBRANCH  11  14
ENDBRANCH   8  11
BRANCH   1  20
ATOM     20  N   UNL     1       4.625   3.081  18.085  0.00  0.00    +0.000 N 
ATOM     21  H   UNL     1       4.908   2.270  17.530  0.00  0.00    +0.000 HD
BRANCH  20  25
ATOM     22  C   UNL     1       7.009   6.417  16.952  0.00  0.00    +0.000 A 
ATOM     23  C   UNL     1       6.801   6.108  18.296  0.00  0.00    +0.000 A 
ATOM     24  C   UNL     1       5.981   5.033  18.671  0.00  0.00    +0.000 A 
ATOM     25  C   UNL     1       5.328   4.255  17.707  0.00  0.00    +0.000 A 
ATOM     26  C   UNL     1       5.456   4.642  16.365  0.00  0.00    +0.000 A 
ATOM     27  C   UNL     1       6.306   5.702  15.984  0.00  0.00    +0.000 A 
BRANCH  22  29
ATOM     28  C   UNL     1       7.979   8.433  17.762  0.00  0.00    +0.000 C 
ATOM     29  O   UNL     1       7.846   7.474  16.717  0.00  0.00    +0.000 OA
ENDBRANCH  22  29
ENDBRANCH  20  25
ENDBRANCH   1  20
TORSDOF 5
ENDMDL
MODEL 3
REMARK VINA RESULT:      -8.1      1.988      2.620
REMARK  Name = 
REMARK  7 active torsions:
REMARK  status: ('A' for Active; 'I' for Inactive)
REMARK    1  A    between atoms: C_1  and  O_2
REMARK    2  A    between atoms: O_2  and  C_3
REMARK    3  A    between atoms: C_6  and  N_7
REMARK    4  A    between atoms: N_7  and  C_8
REMARK    5  A    between atoms: C_10  and  C_11
REMARK    6  A    between atoms: C_15  and  S_16
REMARK    7  A    between atoms: S_16  and  C_19
REMARK                            x       y       z     vdW  Elec       q    Type
REMARK                         _______ _______ _______ _____ _____    ______ ____
ROOT
ATOM      1  C   UNL     1       2.878   4.917  18.895  0.00  0.00    +0.000 A 
ATOM      2  N   UNL     1       1.820   4.455  19.594  0.00  0.00    +0.000 NA
ATOM      3  C   UNL     1       1.994   3.378  20.372  0.00  0.00    +0.000 A 
ATOM      4  C   UNL     1       0.861   2.952  21.253  0.00  0.00    +0.000 C 
ATOM      5  N   UNL     1       3.127   2.668  20.429  0.00  0.00    +0.000 NA
ATOM      6  C   UNL     1       4.168   3.103  19.710  0.00  0.00    +0.000 A 
ATOM      7  N   UNL     1       5.254   2.242  19.749  0.00  0.00    +0.000 N 
ATOM      8  C   UNL     1       4.101   4.254  18.939  0.00  0.00    +0.000 A 
ATOM      9  H   UNL     1       5.100   1.544  20.472  0.00  0.00    +0.000 HD
ATOM     10  H   UNL     1       6.158   2.717  19.838  0.00  0.00    +0.000 HD
ENDROOT
BRANCH   8  11
ATOM     11  S   UNL     1       5.566   4.983  18.307  0.00  0.00    +0.000 S 
ATOM     12  O   UNL     1       5.316   6.422  18.362  0.00  0.00    +0.000 OA
ATOM     13  O   UNL     1       6.699   4.462  19.059  0.00  0.00    +0.000 OA
BRANCH  11  14
ATOM     14  C   UNL     1       5.915   4.621  16.604  0.00  0.00    +0.000 A 
ATOM     15  C   UNL     1       4.965   4.099  15.730  0.00  0.00    +0.000 A 
ATOM     16  C   UNL     1       5.267   4.029  14.362  0.00  0.00    +0.000 A 
ATOM     17  C   UNL     1       6.509   4.459  13.878  0.00  0.00    +0.000 A 
ATOM     18  C   UNL     1       7.480   4.910  14.768  0.00  0.00    +0.000 A 
ATOM     19  C   UNL     1       7.188   4.981  16.130  0.00  0.00    +0.000 A 
ENDBRANCH  11  14
ENDBRANCH   8  11
BRANCH   1  20
ATOM     20  N   UNL     1       2.693   6.117  18.172  0.00  0.00    +0.000 N 
ATOM     21  H   UNL     1       3.469   6.235  17.515  0.00  0.00    +0.000 HD
BRANCH  20  25
ATOM     22  C   UNL     1       1.001   9.747  19.608  0.00  0.00    +0.000 A 
ATOM     23  C   UNL     1       1.391   9.616  18.276  0.00  0.00    +0.000 A 
ATOM     24  C   UNL     1       1.988   8.434  17.811  0.00  0.00    +0.000 A 
ATOM     25  C   UNL     1       2.231   7.361  18.677  0.00  0.00    +0.000 A 
ATOM     26  C   UNL     1       1.935   7.545  20.036  0.00  0.00    +0.000 A 
ATOM     27  C   UNL     1       1.306   8.719  20.499  0.00  0.00    +0.000 A 
BRANCH  22  29
ATOM     28  C   UNL     1      -0.923  11.139  19.477  0.00  0.00    +0.000 C 
ATOM     29  O   UNL     1       0.412  10.938  19.932  0.00  0.00    +0.000 OA
ENDBRANCH  22  29
ENDBRANCH  20  25
ENDBRANCH   1  20
TORSDOF 5
ENDMDL
MODEL 4
REMARK VINA RESULT:      -8.1      2.021      2.670
REMARK  Name = 
REMARK  7 active torsions:
REMARK  status: ('A' for Active; 'I' for Inactive)
REMARK    1  A    between atoms: C_1  and  O_2
REMARK    2  A    between atoms: O_2  and  C_3
REMARK    3  A    between atoms: C_6  and  N_7
REMARK    4  A    between atoms: N_7  and  C_8
REMARK    5  A    between atoms: C_10  and  C_11
REMARK    6  A    between atoms: C_15  and  S_16
REMARK    7  A    between atoms: S_16  and  C_19
REMARK                            x       y       z     vdW  Elec       q    Type
REMARK                         _______ _______ _______ _____ _____    ______ ____
ROOT
ATOM      1  C   UNL     1       2.943   5.042  18.763  0.00  0.00    +0.000 A 
ATOM      2  N   UNL     1       1.853   4.580  19.411  0.00  0.00    +0.000 NA
ATOM      3  C   UNL     1       1.977   3.468  20.149  0.00  0.00    +0.000 A 
ATOM      4  C   UNL     1       0.807   3.035  20.976  0.00  0.00    +0.000 C 
ATOM      5  N   UNL     1       3.089   2.727  20.210  0.00  0.00    +0.000 NA
ATOM      6  C   UNL     1       4.163   3.164  19.541  0.00  0.00    +0.000 A 
ATOM      7  N   UNL     1       5.226   2.274  19.576  0.00  0.00    +0.000 N 
ATOM      8  C   UNL     1       4.148   4.347  18.816  0.00  0.00    +0.000 A 
ATOM      9  H   UNL     1       5.033   1.552  20.264  0.00  0.00    +0.000 HD
ATOM     10  H   UNL     1       6.138   2.723  19.712  0.00  0.00    +0.000 HD
ENDROOT
BRANCH   8  11
ATOM     11  S   UNL     1       5.649   5.063  18.259  0.00  0.00    +0.000 S 
ATOM     12  O   UNL     1       5.488   6.495  18.504  0.00  0.00    +0.000 OA
ATOM     13  O   UNL     1       6.755   4.382  18.918  0.00  0.00    +0.000 OA
BRANCH  11  14
ATOM     14  C   UNL     1       5.960   4.905  16.518  0.00  0.00    +0.000 A 
ATOM     15  C   UNL     1       7.142   5.334  15.918  0.00  0.00    +0.000 A 
ATOM     16  C   UNL     1       7.385   4.994  14.579  0.00  0.00    +0.000 A 
ATOM     17  C   UNL     1       6.452   4.251  13.846  0.00  0.00    +0.000 A 
ATOM     18  C   UNL     1       5.240   3.891  14.431  0.00  0.00    +0.000 A 
ATOM     19  C   UNL     1       4.990   4.227  15.761  0.00  0.00    +0.000 A 
ENDBRANCH  11  14
ENDBRANCH   8  11
BRANCH   1  20
ATOM     20  N   UNL     1       2.810   6.275  18.085  0.00  0.00    +0.000 N 
ATOM     21  H   UNL     1       3.646   6.437  17.519  0.00  0.00    +0.000 HD
BRANCH  20  25
ATOM     22  C   UNL     1       0.906   9.782  19.562  0.00  0.00    +0.000 A 
ATOM     23  C   UNL     1       1.274   9.677  18.221  0.00  0.00    +0.000 A 
ATOM     24  C   UNL     1       1.940   8.538  17.742  0.00  0.00    +0.000 A 
ATOM     25  C   UNL     1       2.276   7.485  18.602  0.00  0.00    +0.000 A 
ATOM     26  C   UNL     1       1.998   7.649  19.967  0.00  0.00    +0.000 A 
ATOM     27  C   UNL     1       1.300   8.779  20.445  0.00  0.00    +0.000 A 
BRANCH  22  29
ATOM     28  C   UNL     1       1.045  12.081  20.158  0.00  0.00    +0.000 C 
ATOM     29  O   UNL     1       0.245  10.931  19.899  0.00  0.00    +0.000 OA
ENDBRANCH  22  29
ENDBRANCH  20  25
ENDBRANCH   1  20
TORSDOF 5
ENDMDL
MODEL 5
REMARK VINA RESULT:      -8.0      0.389      1.017
REMARK  Name = 
REMARK  7 active torsions:
REMARK  status: ('A' for Active; 'I' for Inactive)
REMARK    1  A    between atoms: C_1  and  O_2
REMARK    2  A    between atoms: O_2  and  C_3
REMARK    3  A    between atoms: C_6  and  N_7
REMARK    4  A    between atoms: N_7  and  C_8
REMARK    5  A    between atoms: C_10  and  C_11
REMARK    6  A    between atoms: C_15  and  S_16
REMARK    7  A    between atoms: S_16  and  C_19
REMARK                            x       y       z     vdW  Elec       q    Type
REMARK                         _______ _______ _______ _____ _____    ______ ____
ROOT
ATOM      1  C   UNL     1       2.920   4.920  19.711  0.00  0.00    +0.000 A 
ATOM      2  N   UNL     1       2.225   4.451  20.769  0.00  0.00    +0.000 NA
ATOM      3  C   UNL     1       1.906   3.149  20.793  0.00  0.00    +0.000 A 
ATOM      4  C   UNL     1       1.260   2.603  22.028  0.00  0.00    +0.000 C 
ATOM      5  N   UNL     1       2.146   2.299  19.789  0.00  0.00    +0.000 NA
ATOM      6  C   UNL     1       2.804   2.768  18.722  0.00  0.00    +0.000 A 
ATOM      7  N   UNL     1       2.906   1.843  17.694  0.00  0.00    +0.000 N 
ATOM      8  C   UNL     1       3.243   4.082  18.647  0.00  0.00    +0.000 A 
ATOM      9  H   UNL     1       2.620   0.931  18.038  0.00  0.00    +0.000 HD
ATOM     10  H   UNL     1       3.824   1.829  17.238  0.00  0.00    +0.000 HD
ENDROOT
BRANCH   8  11
ATOM     11  S   UNL     1       4.398   4.561  17.418  0.00  0.00    +0.000 S 
ATOM     12  O   UNL     1       4.958   3.304  16.926  0.00  0.00    +0.000 OA
ATOM     13  O   UNL     1       3.718   5.422  16.460  0.00  0.00    +0.000 OA
BRANCH  11  14
ATOM     14  C   UNL     1       5.782   5.505  18.009  0.00  0.00    +0.000 A 
ATOM     15  C   UNL     1       6.594   5.081  19.059  0.00  0.00    +0.000 A 
ATOM     16  C   UNL     1       7.776   5.788  19.329  0.00  0.00    +0.000 A 
ATOM     17  C   UNL     1       8.129   6.912  18.573  0.00  0.00    +0.000 A 
ATOM     18  C   UNL     1       7.274   7.372  17.575  0.00  0.00    +0.000 A 
ATOM     19  C   UNL     1       6.097   6.676  17.300  0.00  0.00    +0.000 A 
ENDBRANCH  11  14
ENDBRANCH   8  11
BRANCH   1  20
ATOM     20  N   UNL     1       3.338   6.269  19.767  0.00  0.00    +0.000 N 
ATOM     21  H   UNL     1       3.930   6.401  20.591  0.00  0.00    +0.000 HD
BRANCH  20  25
ATOM     22  C   UNL     1       0.769   9.518  18.798  0.00  0.00    +0.000 A 
ATOM     23  C   UNL     1       1.668   9.012  17.861  0.00  0.00    +0.000 A 
ATOM     24  C   UNL     1       2.545   7.968  18.192  0.00  0.00    +0.000 A 
ATOM     25  C   UNL     1       2.560   7.421  19.482  0.00  0.00    +0.000 A 
ATOM     26  C   UNL     1       1.729   8.012  20.445  0.00  0.00    +0.000 A 
ATOM     27  C   UNL     1       0.823   9.039  20.105  0.00  0.00    +0.000 A 
BRANCH  22  29
ATOM     28  C   UNL     1      -1.348  10.598  18.922  0.00  0.00    +0.000 C 
ATOM     29  O   UNL     1      -0.047  10.519  18.346  0.00  0.00    +0.000 OA
ENDBRANCH  22  29
ENDBRANCH  20  25
ENDBRANCH   1  20
TORSDOF 5
ENDMDL
MODEL 6
REMARK VINA RESULT:      -8.0      2.009      4.598
REMARK  Name = 
REMARK  7 active torsions:
REMARK  status: ('A' for Active; 'I' for Inactive)
REMARK    1  A    between atoms: C_1  and  O_2
REMARK    2  A    between atoms: O_2  and  C_3
REMARK    3  A    between atoms: C_6  and  N_7
REMARK    4  A    between atoms: N_7  and  C_8
REMARK    5  A    between atoms: C_10  and  C_11
REMARK    6  A    between atoms: C_15  and  S_16
REMARK    7  A    between atoms: S_16  and  C_19
REMARK                            x       y       z     vdW  Elec       q    Type
REMARK                         _______ _______ _______ _____ _____    ______ ____
ROOT
ATOM      1  C   UNL     1       4.623   6.563  17.653  0.00  0.00    +0.000 A 
ATOM      2  N   UNL     1       5.470   7.612  17.595  0.00  0.00    +0.000 NA
ATOM      3  C   UNL     1       6.787   7.367  17.634  0.00  0.00    +0.000 A 
ATOM      4  C   UNL     1       7.726   8.514  17.430  0.00  0.00    +0.000 C 
ATOM      5  N   UNL     1       7.320   6.154  17.824  0.00  0.00    +0.000 NA
ATOM      6  C   UNL     1       6.482   5.116  17.917  0.00  0.00    +0.000 A 
ATOM      7  N   UNL     1       7.121   3.924  18.223  0.00  0.00    +0.000 N 
ATOM      8  C   UNL     1       5.107   5.267  17.808  0.00  0.00    +0.000 A 
ATOM      9  H   UNL     1       8.125   4.052  18.129  0.00  0.00    +0.000 HD
ATOM     10  H   UNL     1       6.770   3.118  17.697  0.00  0.00    +0.000 HD
ENDROOT
BRANCH   8  11
ATOM     11  S   UNL     1       4.077   3.867  17.574  0.00  0.00    +0.000 S 
ATOM     12  O   UNL     1       3.158   4.258  16.507  0.00  0.00    +0.000 OA
ATOM     13  O   UNL     1       4.926   2.705  17.348  0.00  0.00    +0.000 OA
BRANCH  11  14
ATOM     14  C   UNL     1       3.051   3.445  18.961  0.00  0.00    +0.000 A 
ATOM     15  C   UNL     1       3.558   2.902  20.140  0.00  0.00    +0.000 A 
ATOM     16  C   UNL     1       2.709   2.784  21.252  0.00  0.00    +0.000 A 
ATOM     17  C   UNL     1       1.370   3.185  21.178  0.00  0.00    +0.000 A 
ATOM     18  C   UNL     1       0.853   3.657  19.974  0.00  0.00    +0.000 A 
ATOM     19  C   UNL     1       1.689   3.776  18.865  0.00  0.00    +0.000 A 
ENDBRANCH  11  14
ENDBRANCH   8  11
BRANCH   1  20
ATOM     20  N   UNL     1       3.246   6.844  17.498  0.00  0.00    +0.000 N 
ATOM     21  H   UNL     1       3.058   7.062  16.516  0.00  0.00    +0.000 HD
BRANCH  20  25
ATOM     22  C   UNL     1       1.039   9.235  20.239  0.00  0.00    +0.000 A 
ATOM     23  C   UNL     1       1.557   7.998  20.622  0.00  0.00    +0.000 A 
ATOM     24  C   UNL     1       2.249   7.189  19.707  0.00  0.00    +0.000 A 
ATOM     25  C   UNL     1       2.417   7.591  18.376  0.00  0.00    +0.000 A 
ATOM     26  C   UNL     1       1.799   8.784  17.975  0.00  0.00    +0.000 A 
ATOM     27  C   UNL     1       1.131   9.613  18.901  0.00  0.00    +0.000 A 
BRANCH  22  29
ATOM     28  C   UNL     1      -0.154   9.176  22.296  0.00  0.00    +0.000 C 
ATOM     29  O   UNL     1       0.405   9.936  21.228  0.00  0.00    +0.000 OA
ENDBRANCH  22  29
ENDBRANCH  20  25
ENDBRANCH   1  20
TORSDOF 5
ENDMDL
MODEL 7
REMARK VINA RESULT:      -8.0      0.832      1.323
REMARK  Name = 
REMARK  7 active torsions:
REMARK  status: ('A' for Active; 'I' for Inactive)
REMARK    1  A    between atoms: C_1  and  O_2
REMARK    2  A    between atoms: O_2  and  C_3
REMARK    3  A    between atoms: C_6  and  N_7
REMARK    4  A    between atoms: N_7  and  C_8
REMARK    5  A    between atoms: C_10  and  C_11
REMARK    6  A    between atoms: C_15  and  S_16
REMARK    7  A    between atoms: S_16  and  C_19
REMARK                            x       y       z     vdW  Elec       q    Type
REMARK                         _______ _______ _______ _____ _____    ______ ____
ROOT
ATOM      1  C   UNL     1       2.744   5.446  19.781  0.00  0.00    +0.000 A 
ATOM      2  N   UNL     1       2.222   4.771  20.827  0.00  0.00    +0.000 NA
ATOM      3  C   UNL     1       2.158   3.435  20.753  0.00  0.00    +0.000 A 
ATOM      4  C   UNL     1       1.710   2.680  21.965  0.00  0.00    +0.000 C 
ATOM      5  N   UNL     1       2.491   2.726  19.668  0.00  0.00    +0.000 NA
ATOM      6  C   UNL     1       2.977   3.395  18.616  0.00  0.00    +0.000 A 
ATOM      7  N   UNL     1       3.187   2.589  17.507  0.00  0.00    +0.000 N 
ATOM      8  C   UNL     1       3.152   4.771  18.634  0.00  0.00    +0.000 A 
ATOM      9  H   UNL     1       3.103   1.614  17.784  0.00  0.00    +0.000 HD
ATOM     10  H   UNL     1       4.059   2.789  17.008  0.00  0.00    +0.000 HD
ENDROOT
BRANCH   8  11
ATOM     11  S   UNL     1       4.112   5.559  17.396  0.00  0.00    +0.000 S 
ATOM     12  O   UNL     1       4.227   4.566  16.329  0.00  0.00    +0.000 OA
ATOM     13  O   UNL     1       3.488   6.834  17.073  0.00  0.00    +0.000 OA
BRANCH  11  14
ATOM     14  C   UNL     1       5.779   5.949  17.869  0.00  0.00    +0.000 A 
ATOM     15  C   UNL     1       6.526   6.951  17.253  0.00  0.00    +0.000 A 
ATOM     16  C   UNL     1       7.755   7.324  17.817  0.00  0.00    +0.000 A 
ATOM     17  C   UNL     1       8.239   6.691  18.969  0.00  0.00    +0.000 A 
ATOM     18  C   UNL     1       7.521   5.640  19.534  0.00  0.00    +0.000 A 
ATOM     19  C   UNL     1       6.299   5.263  18.979  0.00  0.00    +0.000 A 
ENDBRANCH  11  14
ENDBRANCH   8  11
BRANCH   1  20
ATOM     20  N   UNL     1       2.900   6.843  19.934  0.00  0.00    +0.000 N 
ATOM     21  H   UNL     1       3.654   7.023  20.602  0.00  0.00    +0.000 HD
BRANCH  20  25
ATOM     22  C   UNL     1       0.039   9.966  20.326  0.00  0.00    +0.000 A 
ATOM     23  C   UNL     1       0.219   9.028  21.342  0.00  0.00    +0.000 A 
ATOM     24  C   UNL     1       1.133   7.972  21.197  0.00  0.00    +0.000 A 
ATOM     25  C   UNL     1       1.871   7.817  20.017  0.00  0.00    +0.000 A 
ATOM     26  C   UNL     1       1.602   8.702  18.962  0.00  0.00    +0.000 A 
ATOM     27  C   UNL     1       0.708   9.782  19.119  0.00  0.00    +0.000 A 
BRANCH  22  29
ATOM     28  C   UNL     1      -0.599  12.240  20.037  0.00  0.00    +0.000 C 
ATOM     29  O   UNL     1      -0.864  10.957  20.599  0.00  0.00    +0.000 OA
ENDBRANCH  22  29
ENDBRANCH  20  25
ENDBRANCH   1  20
TORSDOF 5
ENDMDL
MODEL 8
REMARK VINA RESULT:      -7.9      2.029      2.494
REMARK  Name = 
REMARK  7 active torsions:
REMARK  status: ('A' for Active; 'I' for Inactive)
REMARK    1  A    between atoms: C_1  and  O_2
REMARK    2  A    between atoms: O_2  and  C_3
REMARK    3  A    between atoms: C_6  and  N_7
REMARK    4  A    between atoms: N_7  and  C_8
REMARK    5  A    between atoms: C_10  and  C_11
REMARK    6  A    between atoms: C_15  and  S_16
REMARK    7  A    between atoms: S_16  and  C_19
REMARK                            x       y       z     vdW  Elec       q    Type
REMARK                         _______ _______ _______ _____ _____    ______ ____
ROOT
ATOM      1  C   UNL     1       2.998   5.104  18.896  0.00  0.00    +0.000 A 
ATOM      2  N   UNL     1       1.931   4.674  19.602  0.00  0.00    +0.000 NA
ATOM      3  C   UNL     1       2.058   3.553  20.326  0.00  0.00    +0.000 A 
ATOM      4  C   UNL     1       0.923   3.153  21.215  0.00  0.00    +0.000 C 
ATOM      5  N   UNL     1       3.147   2.775  20.321  0.00  0.00    +0.000 NA
ATOM      6  C   UNL     1       4.196   3.181  19.595  0.00  0.00    +0.000 A 
ATOM      7  N   UNL     1       5.229   2.257  19.565  0.00  0.00    +0.000 N 
ATOM      8  C   UNL     1       4.180   4.369  18.878  0.00  0.00    +0.000 A 
ATOM      9  H   UNL     1       5.050   1.537  20.260  0.00  0.00    +0.000 HD
ATOM     10  H   UNL     1       6.161   2.674  19.652  0.00  0.00    +0.000 HD
ENDROOT
BRANCH   8  11
ATOM     11  S   UNL     1       5.670   5.040  18.242  0.00  0.00    +0.000 S 
ATOM     12  O   UNL     1       5.469   6.487  18.277  0.00  0.00    +0.000 OA
ATOM     13  O   UNL     1       6.783   4.490  19.004  0.00  0.00    +0.000 OA
BRANCH  11  14
ATOM     14  C   UNL     1       6.013   4.644  16.545  0.00  0.00    +0.000 A 
ATOM     15  C   UNL     1       5.100   3.988  15.722  0.00  0.00    +0.000 A 
ATOM     16  C   UNL     1       5.373   3.891  14.349  0.00  0.00    +0.000 A 
ATOM     17  C   UNL     1       6.550   4.427  13.811  0.00  0.00    +0.000 A 
ATOM     18  C   UNL     1       7.491   5.014  14.653  0.00  0.00    +0.000 A 
ATOM     19  C   UNL     1       7.228   5.113  16.019  0.00  0.00    +0.000 A 
ENDBRANCH  11  14
ENDBRANCH   8  11
BRANCH   1  20
ATOM     20  N   UNL     1       2.869   6.346  18.234  0.00  0.00    +0.000 N 
ATOM     21  H   UNL     1       3.764   6.591  17.805  0.00  0.00    +0.000 HD
BRANCH  20  25
ATOM     22  C   UNL     1       1.061   9.914  19.683  0.00  0.00    +0.000 A 
ATOM     23  C   UNL     1       1.289   8.831  20.532  0.00  0.00    +0.000 A 
ATOM     24  C   UNL     1       1.847   7.638  20.046  0.00  0.00    +0.000 A 
ATOM     25  C   UNL     1       2.167   7.493  18.690  0.00  0.00    +0.000 A 
ATOM     26  C   UNL     1       1.832   8.548  17.828  0.00  0.00    +0.000 A 
ATOM     27  C   UNL     1       1.301   9.760  18.320  0.00  0.00    +0.000 A 
BRANCH  22  29
ATOM     28  C   UNL     1      -0.072  10.841  21.559  0.00  0.00    +0.000 C 
ATOM     29  O   UNL     1       0.533  11.025  20.282  0.00  0.00    +0.000 OA
ENDBRANCH  22  29
ENDBRANCH  20  25
ENDBRANCH   1  20
TORSDOF 5
ENDMDL
MODEL 9
REMARK VINA RESULT:      -7.9      1.934      4.626
REMARK  Name = 
REMARK  7 active torsions:
REMARK  status: ('A' for Active; 'I' for Inactive)
REMARK    1  A    between atoms: C_1  and  O_2
REMARK    2  A    between atoms: O_2  and  C_3
REMARK    3  A    between atoms: C_6  and  N_7
REMARK    4  A    between atoms: N_7  and  C_8
REMARK    5  A    between atoms: C_10  and  C_11
REMARK    6  A    between atoms: C_15  and  S_16
REMARK    7  A    between atoms: S_16  and  C_19
REMARK                            x       y       z     vdW  Elec       q    Type
REMARK                         _______ _______ _______ _____ _____    ______ ____
ROOT
ATOM      1  C   UNL     1       4.437   6.611  17.812  0.00  0.00    +0.000 A 
ATOM      2  N   UNL     1       5.373   7.579  17.723  0.00  0.00    +0.000 NA
ATOM      3  C   UNL     1       6.662   7.215  17.691  0.00  0.00    +0.000 A 
ATOM      4  C   UNL     1       7.691   8.276  17.452  0.00  0.00    +0.000 C 
ATOM      5  N   UNL     1       7.091   5.956  17.839  0.00  0.00    +0.000 NA
ATOM      6  C   UNL     1       6.166   4.996  17.963  0.00  0.00    +0.000 A 
ATOM      7  N   UNL     1       6.708   3.747  18.221  0.00  0.00    +0.000 N 
ATOM      8  C   UNL     1       4.807   5.274  17.926  0.00  0.00    +0.000 A 
ATOM      9  H   UNL     1       7.714   3.785  18.078  0.00  0.00    +0.000 HD
ATOM     10  H   UNL     1       6.259   2.984  17.705  0.00  0.00    +0.000 HD
ENDROOT
BRANCH   8  11
ATOM     11  S   UNL     1       3.643   3.977  17.729  0.00  0.00    +0.000 S 
ATOM     12  O   UNL     1       2.570   4.562  16.927  0.00  0.00    +0.000 OA
ATOM     13  O   UNL     1       4.337   2.815  17.191  0.00  0.00    +0.000 OA
BRANCH  11  14
ATOM     14  C   UNL     1       2.873   3.421  19.229  0.00  0.00    +0.000 A 
ATOM     15  C   UNL     1       3.570   2.760  20.239  0.00  0.00    +0.000 A 
ATOM     16  C   UNL     1       2.931   2.533  21.467  0.00  0.00    +0.000 A 
ATOM     17  C   UNL     1       1.608   2.944  21.675  0.00  0.00    +0.000 A 
ATOM     18  C   UNL     1       0.895   3.535  20.636  0.00  0.00    +0.000 A 
ATOM     19  C   UNL     1       1.522   3.764  19.412  0.00  0.00    +0.000 A 
ENDBRANCH  11  14
ENDBRANCH   8  11
BRANCH   1  20
ATOM     20  N   UNL     1       3.085   7.018  17.730  0.00  0.00    +0.000 N 
ATOM     21  H   UNL     1       2.881   7.306  16.770  0.00  0.00    +0.000 HD
BRANCH  20  25
ATOM     22  C   UNL     1       0.637   9.167  20.467  0.00  0.00    +0.000 A 
ATOM     23  C   UNL     1       0.905   9.673  19.195  0.00  0.00    +0.000 A 
ATOM     24  C   UNL     1       1.746   8.985  18.307  0.00  0.00    +0.000 A 
ATOM     25  C   UNL     1       2.361   7.784  18.681  0.00  0.00    +0.000 A 
ATOM     26  C   UNL     1       2.172   7.342  19.999  0.00  0.00    +0.000 A 
ATOM     27  C   UNL     1       1.301   8.015  20.883  0.00  0.00    +0.000 A 
BRANCH  22  29
ATOM     28  C   UNL     1      -0.390   9.516  22.584  0.00  0.00    +0.000 C 
ATOM     29  O   UNL     1      -0.214   9.919  21.229  0.00  0.00    +0.000 OA
ENDBRANCH  22  29
ENDBRANCH  20  25
ENDBRANCH   1  20
TORSDOF 5
ENDMDL
