MODEL 1
REMARK VINA RESULT:      -8.2      0.000      0.000
REMARK  Name = 
REMARK  1 active torsions:
REMARK  status: ('A' for Active; 'I' for Inactive)
REMARK    1  A    between atoms: C_4  and  C_5
REMARK                            x       y       z     vdW  Elec       q    Type
REMARK                         _______ _______ _______ _____ _____    ______ ____
ROOT
ATOM      1  C   UNL     1       6.781   4.970  17.310  0.00  0.00    +0.000 A 
ATOM      2  N   UNL     1       6.958   4.742  15.977  0.00  0.00    +0.000 NA
ATOM      3  C   UNL     1       6.058   4.045  15.293  0.00  0.00    +0.000 A 
ATOM      4  C   UNL     1       4.865   3.638  15.832  0.00  0.00    +0.000 A 
ATOM      5  C   UNL     1       4.550   4.128  17.095  0.00  0.00    +0.000 A 
ATOM      6  C   UNL     1       5.607   4.476  17.892  0.00  0.00    +0.000 A 
ATOM      7  N   UNL     1       5.310   3.761  19.064  0.00  0.00    +0.000 N 
ATOM      8  C   UNL     1       3.992   3.262  18.980  0.00  0.00    +0.000 A 
ATOM      9  C   UNL     1       3.261   2.237  19.618  0.00  0.00    +0.000 A 
ATOM     10  C   UNL     1       1.899   2.093  19.273  0.00  0.00    +0.000 A 
ATOM     11  C   UNL     1       1.267   2.951  18.377  0.00  0.00    +0.000 A 
ATOM     12  C   UNL     1       2.044   3.851  17.654  0.00  0.00    +0.000 A 
ATOM     13  C   UNL     1       3.430   3.936  17.918  0.00  0.00    +0.000 A 
ATOM     14  H   UNL     1       5.993   3.391  19.699  0.00  0.00    +0.000 HD
ENDROOT
BRANCH   1  18
ATOM     15  C   UNL     1       8.372   8.033  18.703  0.00  0.00    +0.000 A 
ATOM     16  C   UNL     1       7.842   8.431  17.497  0.00  0.00    +0.000 A 
ATOM     17  N   UNL     1       7.364   7.305  16.891  0.00  0.00    +0.000 N 
ATOM     18  C   UNL     1       7.517   6.180  17.692  0.00  0.00    +0.000 A 
ATOM     19  C   UNL     1       8.177   6.629  18.826  0.00  0.00    +0.000 A 
ATOM     20  H   UNL     1       6.788   7.269  16.043  0.00  0.00    +0.000 HD
ENDBRANCH   1  18
TORSDOF 1
ENDMDL
MODEL 2
REMARK VINA RESULT:      -8.0      0.954      1.228
REMARK  Name = 
REMARK  1 active torsions:
REMARK  status: ('A' for Active; 'I' for Inactive)
REMARK    1  A    between atoms: C_4  and  C_5
REMARK                            x       y       z     vdW  Elec       q    Type
REMARK                         _______ _______ _______ _____ _____    ______ ____
ROOT
ATOM      1  C   UNL     1       7.094   5.759  17.396  0.00  0.00    +0.000 A 
ATOM      2  N   UNL     1       7.488   5.558  16.105  0.00  0.00    +0.000 NA
ATOM      3  C   UNL     1       6.882   4.646  15.355  0.00  0.00    +0.000 A 
ATOM      4  C   UNL     1       5.768   3.963  15.769  0.00  0.00    +0.000 A 
ATOM      5  C   UNL     1       5.184   4.381  16.960  0.00  0.00    +0.000 A 
ATOM      6  C   UNL     1       6.014   4.997  17.858  0.00  0.00    +0.000 A 
ATOM      7  N   UNL     1       5.756   4.251  19.021  0.00  0.00    +0.000 N 
ATOM      8  C   UNL     1       4.624   3.436  18.806  0.00  0.00    +0.000 A 
ATOM      9  C   UNL     1       4.094   2.273  19.403  0.00  0.00    +0.000 A 
ATOM     10  C   UNL     1       2.864   1.786  18.907  0.00  0.00    +0.000 A 
ATOM     11  C   UNL     1       2.158   2.442  17.902  0.00  0.00    +0.000 A 
ATOM     12  C   UNL     1       2.774   3.495  17.232  0.00  0.00    +0.000 A 
ATOM     13  C   UNL     1       4.052   3.929  17.654  0.00  0.00    +0.000 A 
ATOM     14  H   UNL     1       6.423   4.076  19.749  0.00  0.00    +0.000 HD
ENDROOT
BRANCH   1  18
ATOM     15  C   UNL     1       8.198   9.268  17.961  0.00  0.00    +0.000 A 
ATOM     16  C   UNL     1       8.847   8.536  18.929  0.00  0.00    +0.000 A 
ATOM     17  N   UNL     1       8.366   7.262  18.841  0.00  0.00    +0.000 N 
ATOM     18  C   UNL     1       7.454   7.122  17.802  0.00  0.00    +0.000 A 
ATOM     19  C   UNL     1       7.324   8.391  17.260  0.00  0.00    +0.000 A 
ATOM     20  H   UNL     1       8.736   6.438  19.327  0.00  0.00    +0.000 HD
ENDBRANCH   1  18
TORSDOF 1
ENDMDL
MODEL 3
REMARK VINA RESULT:      -7.9      2.434      4.293
REMARK  Name = 
REMARK  1 active torsions:
REMARK  status: ('A' for Active; 'I' for Inactive)
REMARK    1  A    between atoms: C_4  and  C_5
REMARK                            x       y       z     vdW  Elec       q    Type
REMARK                         _______ _______ _______ _____ _____    ______ ____
ROOT
ATOM      1  C   UNL     1       6.845   5.147  15.564  0.00  0.00    +0.000 A 
ATOM      2  N   UNL     1       7.800   4.592  16.365  0.00  0.00    +0.000 NA
ATOM      3  C   UNL     1       7.609   4.516  17.677  0.00  0.00    +0.000 A 
ATOM      4  C   UNL     1       6.425   4.854  18.278  0.00  0.00    +0.000 A 
ATOM      5  C   UNL     1       5.353   5.132  17.437  0.00  0.00    +0.000 A 
ATOM      6  C   UNL     1       5.668   5.584  16.184  0.00  0.00    +0.000 A 
ATOM      7  N   UNL     1       4.885   6.748  16.110  0.00  0.00    +0.000 N 
ATOM      8  C   UNL     1       3.980   6.766  17.193  0.00  0.00    +0.000 A 
ATOM      9  C   UNL     1       3.220   7.755  17.854  0.00  0.00    +0.000 A 
ATOM     10  C   UNL     1       2.364   7.334  18.896  0.00  0.00    +0.000 A 
ATOM     11  C   UNL     1       2.222   5.993  19.243  0.00  0.00    +0.000 A 
ATOM     12  C   UNL     1       3.091   5.063  18.680  0.00  0.00    +0.000 A 
ATOM     13  C   UNL     1       4.023   5.488  17.706  0.00  0.00    +0.000 A 
ATOM     14  H   UNL     1       5.129   7.571  15.590  0.00  0.00    +0.000 HD
ENDROOT
BRANCH   1  18
ATOM     15  C   UNL     1       7.055   4.241  11.960  0.00  0.00    +0.000 A 
ATOM     16  C   UNL     1       6.160   3.344  12.496  0.00  0.00    +0.000 A 
ATOM     17  N   UNL     1       6.154   3.556  13.844  0.00  0.00    +0.000 N 
ATOM     18  C   UNL     1       6.985   4.610  14.206  0.00  0.00    +0.000 A 
ATOM     19  C   UNL     1       7.577   5.029  13.025  0.00  0.00    +0.000 A 
ATOM     20  H   UNL     1       5.500   3.150  14.521  0.00  0.00    +0.000 HD
ENDBRANCH   1  18
TORSDOF 1
ENDMDL
MODEL 4
REMARK VINA RESULT:      -7.9      0.976      1.069
REMARK  Name = 
REMARK  1 active torsions:
REMARK  status: ('A' for Active; 'I' for Inactive)
REMARK    1  A    between atoms: C_4  and  C_5
REMARK                            x       y       z     vdW  Elec       q    Type
REMARK                         _______ _______ _______ _____ _____    ______ ____
ROOT
ATOM      1  C   UNL     1       6.206   4.858  17.703  0.00  0.00    +0.000 A 
ATOM      2  N   UNL     1       6.067   4.588  16.373  0.00  0.00    +0.000 NA
ATOM      3  C   UNL     1       4.970   3.990  15.923  0.00  0.00    +0.000 A 
ATOM      4  C   UNL     1       3.882   3.735  16.718  0.00  0.00    +0.000 A 
ATOM      5  C   UNL     1       3.901   4.280  17.997  0.00  0.00    +0.000 A 
ATOM      6  C   UNL     1       5.136   4.514  18.538  0.00  0.00    +0.000 A 
ATOM      7  N   UNL     1       5.019   3.859  19.776  0.00  0.00    +0.000 N 
ATOM      8  C   UNL     1       3.667   3.516  19.991  0.00  0.00    +0.000 A 
ATOM      9  C   UNL     1       2.981   2.595  20.811  0.00  0.00    +0.000 A 
ATOM     10  C   UNL     1       1.569   2.606  20.767  0.00  0.00    +0.000 A 
ATOM     11  C   UNL     1       0.858   3.516  19.989  0.00  0.00    +0.000 A 
ATOM     12  C   UNL     1       1.558   4.308  19.082  0.00  0.00    +0.000 A 
ATOM     13  C   UNL     1       2.969   4.234  19.045  0.00  0.00    +0.000 A 
ATOM     14  H   UNL     1       5.777   3.423  20.267  0.00  0.00    +0.000 HD
ENDROOT
BRANCH   1  18
ATOM     15  C   UNL     1       8.353   7.768  18.583  0.00  0.00    +0.000 A 
ATOM     16  C   UNL     1       7.713   8.142  17.424  0.00  0.00    +0.000 A 
ATOM     17  N   UNL     1       7.016   7.051  16.994  0.00  0.00    +0.000 N 
ATOM     18  C   UNL     1       7.136   5.980  17.871  0.00  0.00    +0.000 A 
ATOM     19  C   UNL     1       8.000   6.417  18.862  0.00  0.00    +0.000 A 
ATOM     20  H   UNL     1       6.326   7.030  16.235  0.00  0.00    +0.000 HD
ENDBRANCH   1  18
TORSDOF 1
ENDMDL
MODEL 5
REMARK VINA RESULT:      -7.7      1.722      3.447
REMARK  Name = 
REMARK  1 active torsions:
REMARK  status: ('A' for Active; 'I' for Inactive)
REMARK    1  A    between atoms: C_4  and  C_5
REMARK                            x       y       z     vdW  Elec       q    Type
REMARK                         _______ _______ _______ _____ _____    ______ ____
ROOT
ATOM      1  C   UNL     1       5.654   5.414  16.635  0.00  0.00    +0.000 A 
ATOM      2  N   UNL     1       6.788   5.851  17.253  0.00  0.00    +0.000 NA
ATOM      3  C   UNL     1       6.900   5.777  18.574  0.00  0.00    +0.000 A 
ATOM      4  C   UNL     1       5.972   5.153  19.366  0.00  0.00    +0.000 A 
ATOM      5  C   UNL     1       4.969   4.443  18.714  0.00  0.00    +0.000 A 
ATOM      6  C   UNL     1       4.658   4.859  17.448  0.00  0.00    +0.000 A 
ATOM      7  N   UNL     1       3.264   5.011  17.548  0.00  0.00    +0.000 N 
ATOM      8  C   UNL     1       2.822   4.434  18.758  0.00  0.00    +0.000 A 
ATOM      9  C   UNL     1       1.674   4.556  19.570  0.00  0.00    +0.000 A 
ATOM     10  C   UNL     1       1.592   3.730  20.714  0.00  0.00    +0.000 A 
ATOM     11  C   UNL     1       2.571   2.788  21.020  0.00  0.00    +0.000 A 
ATOM     12  C   UNL     1       3.756   2.795  20.289  0.00  0.00    +0.000 A 
ATOM     13  C   UNL     1       3.892   3.688  19.202  0.00  0.00    +0.000 A 
ATOM     14  H   UNL     1       2.722   5.679  17.033  0.00  0.00    +0.000 HD
ENDROOT
BRANCH   1  18
ATOM     15  C   UNL     1       6.443   4.010  13.279  0.00  0.00    +0.000 A 
ATOM     16  C   UNL     1       7.504   4.834  13.573  0.00  0.00    +0.000 A 
ATOM     17  N   UNL     1       7.191   5.473  14.738  0.00  0.00    +0.000 N 
ATOM     18  C   UNL     1       5.971   5.049  15.250  0.00  0.00    +0.000 A 
ATOM     19  C   UNL     1       5.481   4.145  14.320  0.00  0.00    +0.000 A 
ATOM     20  H   UNL     1       7.822   6.053  15.302  0.00  0.00    +0.000 HD
ENDBRANCH   1  18
TORSDOF 1
ENDMDL
MODEL 6
REMARK VINA RESULT:      -7.7      2.227      3.802
REMARK  Name = 
REMARK  1 active torsions:
REMARK  status: ('A' for Active; 'I' for Inactive)
REMARK    1  A    between atoms: C_4  and  C_5
REMARK                            x       y       z     vdW  Elec       q    Type
REMARK                         _______ _______ _______ _____ _____    ______ ____
ROOT
ATOM      1  C   UNL     1       6.213   5.617  16.462  0.00  0.00    +0.000 A 
ATOM      2  N   UNL     1       7.400   5.380  17.091  0.00  0.00    +0.000 NA
ATOM      3  C   UNL     1       7.443   5.252  18.412  0.00  0.00    +0.000 A 
ATOM      4  C   UNL     1       6.318   5.216  19.193  0.00  0.00    +0.000 A 
ATOM      5  C   UNL     1       5.097   5.153  18.530  0.00  0.00    +0.000 A 
ATOM      6  C   UNL     1       5.067   5.676  17.265  0.00  0.00    +0.000 A 
ATOM      7  N   UNL     1       3.969   6.548  17.358  0.00  0.00    +0.000 N 
ATOM      8  C   UNL     1       3.276   6.291  18.561  0.00  0.00    +0.000 A 
ATOM      9  C   UNL     1       2.363   7.004  19.367  0.00  0.00    +0.000 A 
ATOM     10  C   UNL     1       1.842   6.345  20.503  0.00  0.00    +0.000 A 
ATOM     11  C   UNL     1       2.164   5.026  20.808  0.00  0.00    +0.000 A 
ATOM     12  C   UNL     1       3.177   4.402  20.084  0.00  0.00    +0.000 A 
ATOM     13  C   UNL     1       3.779   5.088  19.005  0.00  0.00    +0.000 A 
ATOM     14  H   UNL     1       3.872   7.404  16.845  0.00  0.00    +0.000 HD
ENDROOT
BRANCH   1  18
ATOM     15  C   UNL     1       6.417   3.951  13.140  0.00  0.00    +0.000 A 
ATOM     16  C   UNL     1       7.551   4.728  13.213  0.00  0.00    +0.000 A 
ATOM     17  N   UNL     1       7.449   5.459  14.361  0.00  0.00    +0.000 N 
ATOM     18  C   UNL     1       6.300   5.144  15.076  0.00  0.00    +0.000 A 
ATOM     19  C   UNL     1       5.631   4.213  14.298  0.00  0.00    +0.000 A 
ATOM     20  H   UNL     1       8.185   6.036  14.782  0.00  0.00    +0.000 HD
ENDBRANCH   1  18
TORSDOF 1
ENDMDL
MODEL 7
REMARK VINA RESULT:      -7.6      2.336      5.706
REMARK  Name = 
REMARK  1 active torsions:
REMARK  status: ('A' for Active; 'I' for Inactive)
REMARK    1  A    between atoms: C_4  and  C_5
REMARK                            x       y       z     vdW  Elec       q    Type
REMARK                         _______ _______ _______ _____ _____    ______ ____
ROOT
ATOM      1  C   UNL     1       3.169   5.366  19.636  0.00  0.00    +0.000 A 
ATOM      2  N   UNL     1       2.546   6.573  19.510  0.00  0.00    +0.000 NA
ATOM      3  C   UNL     1       2.872   7.393  18.518  0.00  0.00    +0.000 A 
ATOM      4  C   UNL     1       3.728   7.037  17.509  0.00  0.00    +0.000 A 
ATOM      5  C   UNL     1       4.128   5.706  17.468  0.00  0.00    +0.000 A 
ATOM      6  C   UNL     1       4.117   5.033  18.660  0.00  0.00    +0.000 A 
ATOM      7  N   UNL     1       5.418   4.504  18.685  0.00  0.00    +0.000 N 
ATOM      8  C   UNL     1       6.011   4.673  17.415  0.00  0.00    +0.000 A 
ATOM      9  C   UNL     1       7.330   4.684  16.914  0.00  0.00    +0.000 A 
ATOM     10  C   UNL     1       7.498   4.835  15.519  0.00  0.00    +0.000 A 
ATOM     11  C   UNL     1       6.416   4.920  14.647  0.00  0.00    +0.000 A 
ATOM     12  C   UNL     1       5.138   5.058  15.182  0.00  0.00    +0.000 A 
ATOM     13  C   UNL     1       4.966   5.010  16.584  0.00  0.00    +0.000 A 
ATOM     14  H   UNL     1       5.952   4.335  19.518  0.00  0.00    +0.000 HD
ENDROOT
BRANCH   1  18
ATOM     15  C   UNL     1       1.361   2.757  21.579  0.00  0.00    +0.000 A 
ATOM     16  C   UNL     1       0.735   2.779  20.354  0.00  0.00    +0.000 A 
ATOM     17  N   UNL     1       1.282   3.816  19.655  0.00  0.00    +0.000 N 
ATOM     18  C   UNL     1       2.293   4.446  20.369  0.00  0.00    +0.000 A 
ATOM     19  C   UNL     1       2.329   3.800  21.595  0.00  0.00    +0.000 A 
ATOM     20  H   UNL     1       1.136   4.023  18.661  0.00  0.00    +0.000 HD
ENDBRANCH   1  18
TORSDOF 1
ENDMDL
MODEL 8
REMARK VINA RESULT:      -7.4      1.766      3.767
REMARK  Name = 
REMARK  1 active torsions:
REMARK  status: ('A' for Active; 'I' for Inactive)
REMARK    1  A    between atoms: C_4  and  C_5
REMARK                            x       y       z     vdW  Elec       q    Type
REMARK                         _______ _______ _______ _____ _____    ______ ____
ROOT
ATOM      1  C   UNL     1       6.280   5.152  15.644  0.00  0.00    +0.000 A 
ATOM      2  N   UNL     1       7.323   5.811  16.228  0.00  0.00    +0.000 NA
ATOM      3  C   UNL     1       7.373   5.944  17.548  0.00  0.00    +0.000 A 
ATOM      4  C   UNL     1       6.483   5.334  18.393  0.00  0.00    +0.000 A 
ATOM      5  C   UNL     1       5.605   4.420  17.822  0.00  0.00    +0.000 A 
ATOM      6  C   UNL     1       5.314   4.605  16.497  0.00  0.00    +0.000 A 
ATOM      7  N   UNL     1       3.909   4.599  16.525  0.00  0.00    +0.000 N 
ATOM      8  C   UNL     1       3.474   4.155  17.792  0.00  0.00    +0.000 A 
ATOM      9  C   UNL     1       2.279   4.254  18.537  0.00  0.00    +0.000 A 
ATOM     10  C   UNL     1       2.232   3.600  19.788  0.00  0.00    +0.000 A 
ATOM     11  C   UNL     1       3.296   2.839  20.267  0.00  0.00    +0.000 A 
ATOM     12  C   UNL     1       4.508   2.884  19.585  0.00  0.00    +0.000 A 
ATOM     13  C   UNL     1       4.598   3.619  18.380  0.00  0.00    +0.000 A 
ATOM     14  H   UNL     1       3.321   5.114  15.896  0.00  0.00    +0.000 HD
ENDROOT
BRANCH   1  18
ATOM     15  C   UNL     1       7.249   4.284  12.157  0.00  0.00    +0.000 A 
ATOM     16  C   UNL     1       6.288   3.359  12.495  0.00  0.00    +0.000 A 
ATOM     17  N   UNL     1       6.001   3.559  13.814  0.00  0.00    +0.000 N 
ATOM     18  C   UNL     1       6.710   4.631  14.342  0.00  0.00    +0.000 A 
ATOM     19  C   UNL     1       7.519   5.076  13.308  0.00  0.00    +0.000 A 
ATOM     20  H   UNL     1       5.234   3.128  14.342  0.00  0.00    +0.000 HD
ENDBRANCH   1  18
TORSDOF 1
ENDMDL
MODEL 9
REMARK VINA RESULT:      -7.3      1.952      2.590
REMARK  Name = 
REMARK  1 active torsions:
REMARK  status: ('A' for Active; 'I' for Inactive)
REMARK    1  A    between atoms: C_4  and  C_5
REMARK                            x       y       z     vdW  Elec       q    Type
REMARK                         _______ _______ _______ _____ _____    ______ ____
ROOT
ATOM      1  C   UNL     1       4.747   6.446  17.493  0.00  0.00    +0.000 A 
ATOM      2  N   UNL     1       4.118   7.647  17.343  0.00  0.00    +0.000 NA
ATOM      3  C   UNL     1       2.827   7.767  17.632  0.00  0.00    +0.000 A 
ATOM      4  C   UNL     1       2.097   6.761  18.208  0.00  0.00    +0.000 A 
ATOM      5  C   UNL     1       2.803   5.643  18.639  0.00  0.00    +0.000 A 
ATOM      6  C   UNL     1       3.982   5.384  17.994  0.00  0.00    +0.000 A 
ATOM      7  N   UNL     1       3.805   4.038  17.633  0.00  0.00    +0.000 N 
ATOM      8  C   UNL     1       2.674   3.525  18.305  0.00  0.00    +0.000 A 
ATOM      9  C   UNL     1       1.806   2.427  18.120  0.00  0.00    +0.000 A 
ATOM     10  C   UNL     1       0.792   2.227  19.084  0.00  0.00    +0.000 A 
ATOM     11  C   UNL     1       0.666   3.039  20.207  0.00  0.00    +0.000 A 
ATOM     12  C   UNL     1       1.436   4.196  20.284  0.00  0.00    +0.000 A 
ATOM     13  C   UNL     1       2.387   4.462  19.273  0.00  0.00    +0.000 A 
ATOM     14  H   UNL     1       4.195   3.607  16.816  0.00  0.00    +0.000 HD
ENDROOT
BRANCH   1  18
ATOM     15  C   UNL     1       8.281   7.043  18.495  0.00  0.00    +0.000 A 
ATOM     16  C   UNL     1       7.972   8.090  17.657  0.00  0.00    +0.000 A 
ATOM     17  N   UNL     1       6.726   7.838  17.161  0.00  0.00    +0.000 N 
ATOM     18  C   UNL     1       6.181   6.676  17.693  0.00  0.00    +0.000 A 
ATOM     19  C   UNL     1       7.169   6.155  18.515  0.00  0.00    +0.000 A 
ATOM     20  H   UNL     1       6.147   8.484  16.615  0.00  0.00    +0.000 HD
ENDBRANCH   1  18
TORSDOF 1
ENDMDL
