MODEL 1
REMARK VINA RESULT:      -6.8      0.000      0.000
REMARK  Name = 
REMARK  9 active torsions:
REMARK  status: ('A' for Active; 'I' for Inactive)
REMARK    1  A    between atoms: C_1  and  C_2
REMARK    2  A    between atoms: C_2  and  C_3
REMARK    3  A    between atoms: C_3  and  S_4
REMARK    4  A    between atoms: S_4  and  N_7
REMARK    5  A    between atoms: C_10  and  C_11
REMARK    6  A    between atoms: N_13  and  C_14
REMARK    7  A    between atoms: C_14  and  C_15
REMARK    8  A    between atoms: C_15  and  O_16
REMARK    9  A    between atoms: O_16  and  C_17
REMARK                            x       y       z     vdW  Elec       q    Type
REMARK                         _______ _______ _______ _____ _____    ______ ____
ROOT
ATOM      1  N   UNL     1       3.755   4.729  18.484  0.00  0.00    +0.000 NA
ATOM      2  C   UNL     1       5.027   4.090  18.935  0.00  0.00    +0.000 C 
ATOM      3  C   UNL     1       6.092   5.158  19.187  0.00  0.00    +0.000 C 
ATOM      4  C   UNL     1       6.325   6.040  17.953  0.00  0.00    +0.000 C 
ATOM      5  C   UNL     1       4.987   6.652  17.526  0.00  0.00    +0.000 C 
ATOM      6  C   UNL     1       3.937   5.575  17.270  0.00  0.00    +0.000 C 
ENDROOT
BRANCH   4   7
ATOM      7  C   UNL     1       7.007   5.255  16.831  0.00  0.00    +0.000 C 
ATOM      8  O   UNL     1       7.840   4.377  17.044  0.00  0.00    +0.000 OA
ATOM      9  N   UNL     1       6.655   5.629  15.557  0.00  0.00    +0.000 N 
ATOM     10  H   UNL     1       5.877   6.254  15.400  0.00  0.00    +0.000 HD
BRANCH   9  11
ATOM     11  C   UNL     1       7.165   4.919  14.394  0.00  0.00    +0.000 C 
BRANCH  11  12
ATOM     12  C   UNL     1       6.165   3.896  13.849  0.00  0.00    +0.000 C 
BRANCH  12  13
ATOM     13  O   UNL     1       6.499   3.583  12.490  0.00  0.00    +0.000 OA
ATOM     14  C   UNL     1       5.418   2.931  11.834  0.00  0.00    +0.000 C 
ENDBRANCH  12  13
ENDBRANCH  11  12
ENDBRANCH   9  11
ENDBRANCH   4   7
BRANCH   1  15
ATOM     15  S   UNL     1       2.447   3.616  18.370  0.00  0.00    +0.000 S 
ATOM     16  O   UNL     1       2.959   2.291  18.653  0.00  0.00    +0.000 OA
ATOM     17  O   UNL     1       1.719   3.904  17.155  0.00  0.00    +0.000 OA
BRANCH  15  18
ATOM     18  C   UNL     1       1.459   4.122  19.777  0.00  0.00    +0.000 C 
BRANCH  18  20
ATOM     19  C   UNL     1       2.170   2.959  21.891  0.00  0.00    +0.000 C 
ATOM     20  C   UNL     1       1.207   2.947  20.717  0.00  0.00    +0.000 C 
ENDBRANCH  18  20
ENDBRANCH  15  18
ENDBRANCH   1  15
TORSDOF 7
ENDMDL
MODEL 2
REMARK VINA RESULT:      -6.6      0.939      1.086
REMARK  Name = 
REMARK  9 active torsions:
REMARK  status: ('A' for Active; 'I' for Inactive)
REMARK    1  A    between atoms: C_1  and  C_2
REMARK    2  A    between atoms: C_2  and  C_3
REMARK    3  A    between atoms: C_3  and  S_4
REMARK    4  A    between atoms: S_4  and  N_7
REMARK    5  A    between atoms: C_10  and  C_11
REMARK    6  A    between atoms: N_13  and  C_14
REMARK    7  A    between atoms: C_14  and  C_15
REMARK    8  A    between atoms: C_15  and  O_16
REMARK    9  A    between atoms: O_16  and  C_17
REMARK                            x       y       z     vdW  Elec       q    Type
REMARK                         _______ _______ _______ _____ _____    ______ ____
ROOT
ATOM      1  N   UNL     1       4.085   4.472  18.681  0.00  0.00    +0.000 NA
ATOM      2  C   UNL     1       5.506   4.192  19.042  0.00  0.00    +0.000 C 
ATOM      3  C   UNL     1       6.327   5.481  18.986  0.00  0.00    +0.000 C 
ATOM      4  C   UNL     1       6.230   6.166  17.616  0.00  0.00    +0.000 C 
ATOM      5  C   UNL     1       4.753   6.409  17.291  0.00  0.00    +0.000 C 
ATOM      6  C   UNL     1       3.949   5.114  17.342  0.00  0.00    +0.000 C 
ENDROOT
BRANCH   4   7
ATOM      7  C   UNL     1       6.952   5.353  16.539  0.00  0.00    +0.000 C 
ATOM      8  O   UNL     1       7.857   4.563  16.796  0.00  0.00    +0.000 OA
ATOM      9  N   UNL     1       6.546   5.598  15.250  0.00  0.00    +0.000 N 
ATOM     10  H   UNL     1       5.716   6.145  15.067  0.00  0.00    +0.000 HD
BRANCH   9  11
ATOM     11  C   UNL     1       7.088   4.843  14.131  0.00  0.00    +0.000 C 
BRANCH  11  12
ATOM     12  C   UNL     1       6.093   3.822  13.577  0.00  0.00    +0.000 C 
BRANCH  12  13
ATOM     13  O   UNL     1       6.315   3.658  12.170  0.00  0.00    +0.000 OA
ATOM     14  C   UNL     1       5.798   2.413  11.712  0.00  0.00    +0.000 C 
ENDBRANCH  12  13
ENDBRANCH  11  12
ENDBRANCH   9  11
ENDBRANCH   4   7
BRANCH   1  15
ATOM     15  S   UNL     1       3.052   3.115  18.912  0.00  0.00    +0.000 S 
ATOM     16  O   UNL     1       3.309   2.575  20.232  0.00  0.00    +0.000 OA
ATOM     17  O   UNL     1       3.127   2.288  17.728  0.00  0.00    +0.000 OA
BRANCH  15  18
ATOM     18  C   UNL     1       1.453   3.920  18.963  0.00  0.00    +0.000 C 
BRANCH  18  20
ATOM     19  C   UNL     1       1.656   5.676  20.753  0.00  0.00    +0.000 C 
ATOM     20  C   UNL     1       1.087   4.315  20.390  0.00  0.00    +0.000 C 
ENDBRANCH  18  20
ENDBRANCH  15  18
ENDBRANCH   1  15
TORSDOF 7
ENDMDL
MODEL 3
REMARK VINA RESULT:      -6.4      1.626      1.845
REMARK  Name = 
REMARK  9 active torsions:
REMARK  status: ('A' for Active; 'I' for Inactive)
REMARK    1  A    between atoms: C_1  and  C_2
REMARK    2  A    between atoms: C_2  and  C_3
REMARK    3  A    between atoms: C_3  and  S_4
REMARK    4  A    between atoms: S_4  and  N_7
REMARK    5  A    between atoms: C_10  and  C_11
REMARK    6  A    between atoms: N_13  and  C_14
REMARK    7  A    between atoms: C_14  and  C_15
REMARK    8  A    between atoms: C_15  and  O_16
REMARK    9  A    between atoms: O_16  and  C_17
REMARK                            x       y       z     vdW  Elec       q    Type
REMARK                         _______ _______ _______ _____ _____    ______ ____
ROOT
ATOM      1  N   UNL     1       4.648   5.465  19.027  0.00  0.00    +0.000 NA
ATOM      2  C   UNL     1       6.003   4.865  19.212  0.00  0.00    +0.000 C 
ATOM      3  C   UNL     1       7.083   5.886  18.851  0.00  0.00    +0.000 C 
ATOM      4  C   UNL     1       6.909   6.427  17.426  0.00  0.00    +0.000 C 
ATOM      5  C   UNL     1       5.499   7.010  17.289  0.00  0.00    +0.000 C 
ATOM      6  C   UNL     1       4.432   5.979  17.644  0.00  0.00    +0.000 C 
ENDROOT
BRANCH   4   7
ATOM      7  C   UNL     1       7.213   5.349  16.383  0.00  0.00    +0.000 C 
ATOM      8  O   UNL     1       7.945   4.390  16.611  0.00  0.00    +0.000 OA
ATOM      9  N   UNL     1       6.642   5.550  15.150  0.00  0.00    +0.000 N 
ATOM     10  H   UNL     1       5.940   6.266  15.018  0.00  0.00    +0.000 HD
BRANCH   9  11
ATOM     11  C   UNL     1       6.780   4.569  14.085  0.00  0.00    +0.000 C 
BRANCH  11  12
ATOM     12  C   UNL     1       5.446   3.917  13.714  0.00  0.00    +0.000 C 
BRANCH  12  13
ATOM     13  O   UNL     1       5.509   3.442  12.363  0.00  0.00    +0.000 OA
ATOM     14  C   UNL     1       6.850   3.432  11.885  0.00  0.00    +0.000 C 
ENDBRANCH  12  13
ENDBRANCH  11  12
ENDBRANCH   9  11
ENDBRANCH   4   7
BRANCH   1  15
ATOM     15  S   UNL     1       3.381   4.451  19.600  0.00  0.00    +0.000 S 
ATOM     16  O   UNL     1       2.558   5.229  20.504  0.00  0.00    +0.000 OA
ATOM     17  O   UNL     1       3.962   3.190  20.001  0.00  0.00    +0.000 OA
BRANCH  15  18
ATOM     18  C   UNL     1       2.442   4.210  18.093  0.00  0.00    +0.000 C 
BRANCH  18  20
ATOM     19  C   UNL     1       0.841   2.389  18.766  0.00  0.00    +0.000 C 
ATOM     20  C   UNL     1       2.053   2.745  17.922  0.00  0.00    +0.000 C 
ENDBRANCH  18  20
ENDBRANCH  15  18
ENDBRANCH   1  15
TORSDOF 7
ENDMDL
MODEL 4
REMARK VINA RESULT:      -6.3      1.102      1.247
REMARK  Name = 
REMARK  9 active torsions:
REMARK  status: ('A' for Active; 'I' for Inactive)
REMARK    1  A    between atoms: C_1  and  C_2
REMARK    2  A    between atoms: C_2  and  C_3
REMARK    3  A    between atoms: C_3  and  S_4
REMARK    4  A    between atoms: S_4  and  N_7
REMARK    5  A    between atoms: C_10  and  C_11
REMARK    6  A    between atoms: N_13  and  C_14
REMARK    7  A    between atoms: C_14  and  C_15
REMARK    8  A    between atoms: C_15  and  O_16
REMARK    9  A    between atoms: O_16  and  C_17
REMARK                            x       y       z     vdW  Elec       q    Type
REMARK                         _______ _______ _______ _____ _____    ______ ____
ROOT
ATOM      1  N   UNL     1       4.335   5.526  18.778  0.00  0.00    +0.000 NA
ATOM      2  C   UNL     1       5.487   4.649  19.142  0.00  0.00    +0.000 C 
ATOM      3  C   UNL     1       6.776   5.469  19.197  0.00  0.00    +0.000 C 
ATOM      4  C   UNL     1       7.042   6.211  17.881  0.00  0.00    +0.000 C 
ATOM      5  C   UNL     1       5.824   7.077  17.548  0.00  0.00    +0.000 C 
ATOM      6  C   UNL     1       4.546   6.245  17.488  0.00  0.00    +0.000 C 
ENDROOT
BRANCH   4   7
ATOM      7  C   UNL     1       7.405   5.234  16.759  0.00  0.00    +0.000 C 
ATOM      8  O   UNL     1       8.049   4.207  16.953  0.00  0.00    +0.000 OA
ATOM      9  N   UNL     1       6.994   5.609  15.502  0.00  0.00    +0.000 N 
ATOM     10  H   UNL     1       6.355   6.382  15.378  0.00  0.00    +0.000 HD
BRANCH   9  11
ATOM     11  C   UNL     1       7.200   4.742  14.352  0.00  0.00    +0.000 C 
BRANCH  11  12
ATOM     12  C   UNL     1       6.093   3.697  14.202  0.00  0.00    +0.000 C 
BRANCH  12  13
ATOM     13  O   UNL     1       5.565   3.752  12.870  0.00  0.00    +0.000 OA
ATOM     14  C   UNL     1       6.444   3.125  11.944  0.00  0.00    +0.000 C 
ENDBRANCH  12  13
ENDBRANCH  11  12
ENDBRANCH   9  11
ENDBRANCH   4   7
BRANCH   1  15
ATOM     15  S   UNL     1       2.817   4.724  18.889  0.00  0.00    +0.000 S 
ATOM     16  O   UNL     1       2.522   4.141  17.596  0.00  0.00    +0.000 OA
ATOM     17  O   UNL     1       1.887   5.612  19.548  0.00  0.00    +0.000 OA
BRANCH  15  18
ATOM     18  C   UNL     1       3.232   3.382  20.001  0.00  0.00    +0.000 C 
BRANCH  18  20
ATOM     19  C   UNL     1       1.304   2.685  21.460  0.00  0.00    +0.000 C 
ATOM     20  C   UNL     1       2.542   3.559  21.350  0.00  0.00    +0.000 C 
ENDBRANCH  18  20
ENDBRANCH  15  18
ENDBRANCH   1  15
TORSDOF 7
ENDMDL
MODEL 5
REMARK VINA RESULT:      -6.3      3.429      7.113
REMARK  Name = 
REMARK  9 active torsions:
REMARK  status: ('A' for Active; 'I' for Inactive)
REMARK    1  A    between atoms: C_1  and  C_2
REMARK    2  A    between atoms: C_2  and  C_3
REMARK    3  A    between atoms: C_3  and  S_4
REMARK    4  A    between atoms: S_4  and  N_7
REMARK    5  A    between atoms: C_10  and  C_11
REMARK    6  A    between atoms: N_13  and  C_14
REMARK    7  A    between atoms: C_14  and  C_15
REMARK    8  A    between atoms: C_15  and  O_16
REMARK    9  A    between atoms: O_16  and  C_17
REMARK                            x       y       z     vdW  Elec       q    Type
REMARK                         _______ _______ _______ _____ _____    ______ ____
ROOT
ATOM      1  N   UNL     1       5.798   4.702  17.817  0.00  0.00    +0.000 NA
ATOM      2  C   UNL     1       5.506   5.145  19.213  0.00  0.00    +0.000 C 
ATOM      3  C   UNL     1       4.179   4.549  19.686  0.00  0.00    +0.000 C 
ATOM      4  C   UNL     1       3.022   4.900  18.741  0.00  0.00    +0.000 C 
ATOM      5  C   UNL     1       3.385   4.441  17.326  0.00  0.00    +0.000 C 
ATOM      6  C   UNL     1       4.706   5.049  16.863  0.00  0.00    +0.000 C 
ENDROOT
BRANCH   4   7
ATOM      7  C   UNL     1       2.678   6.389  18.816  0.00  0.00    +0.000 C 
ATOM      8  O   UNL     1       2.820   7.154  17.866  0.00  0.00    +0.000 OA
ATOM      9  N   UNL     1       2.234   6.826  20.041  0.00  0.00    +0.000 N 
ATOM     10  H   UNL     1       1.996   6.166  20.768  0.00  0.00    +0.000 HD
BRANCH   9  11
ATOM     11  C   UNL     1       1.796   8.199  20.239  0.00  0.00    +0.000 C 
BRANCH  11  12
ATOM     12  C   UNL     1       0.898   8.355  21.468  0.00  0.00    +0.000 C 
BRANCH  12  13
ATOM     13  O   UNL     1      -0.189   9.236  21.153  0.00  0.00    +0.000 OA
ATOM     14  C   UNL     1       0.141  10.586  21.463  0.00  0.00    +0.000 C 
ENDBRANCH  12  13
ENDBRANCH  11  12
ENDBRANCH   9  11
ENDBRANCH   4   7
BRANCH   1  15
ATOM     15  S   UNL     1       7.367   5.165  17.280  0.00  0.00    +0.000 S 
ATOM     16  O   UNL     1       7.257   5.612  15.906  0.00  0.00    +0.000 OA
ATOM     17  O   UNL     1       8.297   4.128  17.666  0.00  0.00    +0.000 OA
BRANCH  15  18
ATOM     18  C   UNL     1       7.651   6.613  18.296  0.00  0.00    +0.000 C 
BRANCH  18  20
ATOM     19  C   UNL     1       8.328   9.033  18.186  0.00  0.00    +0.000 C 
ATOM     20  C   UNL     1       7.675   7.879  17.445  0.00  0.00    +0.000 C 
ENDBRANCH  18  20
ENDBRANCH  15  18
ENDBRANCH   1  15
TORSDOF 7
ENDMDL
MODEL 6
REMARK VINA RESULT:      -6.2      0.850      1.076
REMARK  Name = 
REMARK  9 active torsions:
REMARK  status: ('A' for Active; 'I' for Inactive)
REMARK    1  A    between atoms: C_1  and  C_2
REMARK    2  A    between atoms: C_2  and  C_3
REMARK    3  A    between atoms: C_3  and  S_4
REMARK    4  A    between atoms: S_4  and  N_7
REMARK    5  A    between atoms: C_10  and  C_11
REMARK    6  A    between atoms: N_13  and  C_14
REMARK    7  A    between atoms: C_14  and  C_15
REMARK    8  A    between atoms: C_15  and  O_16
REMARK    9  A    between atoms: O_16  and  C_17
REMARK                            x       y       z     vdW  Elec       q    Type
REMARK                         _______ _______ _______ _____ _____    ______ ____
ROOT
ATOM      1  N   UNL     1       3.757   4.196  18.427  0.00  0.00    +0.000 NA
ATOM      2  C   UNL     1       5.110   3.851  18.957  0.00  0.00    +0.000 C 
ATOM      3  C   UNL     1       5.973   5.109  19.055  0.00  0.00    +0.000 C 
ATOM      4  C   UNL     1       6.078   5.841  17.710  0.00  0.00    +0.000 C 
ATOM      5  C   UNL     1       4.665   6.151  17.207  0.00  0.00    +0.000 C 
ATOM      6  C   UNL     1       3.817   4.887  17.106  0.00  0.00    +0.000 C 
ENDROOT
BRANCH   4   7
ATOM      7  C   UNL     1       6.906   5.037  16.705  0.00  0.00    +0.000 C 
ATOM      8  O   UNL     1       7.926   4.429  17.018  0.00  0.00    +0.000 OA
ATOM      9  N   UNL     1       6.452   5.075  15.409  0.00  0.00    +0.000 N 
ATOM     10  H   UNL     1       5.545   5.465  15.193  0.00  0.00    +0.000 HD
BRANCH   9  11
ATOM     11  C   UNL     1       7.093   4.296  14.361  0.00  0.00    +0.000 C 
BRANCH  11  12
ATOM     12  C   UNL     1       7.611   5.169  13.217  0.00  0.00    +0.000 C 
BRANCH  12  13
ATOM     13  O   UNL     1       7.309   4.539  11.965  0.00  0.00    +0.000 OA
ATOM     14  C   UNL     1       6.470   3.405  12.151  0.00  0.00    +0.000 C 
ENDBRANCH  12  13
ENDBRANCH  11  12
ENDBRANCH   9  11
ENDBRANCH   4   7
BRANCH   1  15
ATOM     15  S   UNL     1       2.659   2.872  18.473  0.00  0.00    +0.000 S 
ATOM     16  O   UNL     1       3.399   1.664  18.169  0.00  0.00    +0.000 OA
ATOM     17  O   UNL     1       1.478   3.244  17.727  0.00  0.00    +0.000 OA
BRANCH  15  18
ATOM     18  C   UNL     1       2.260   2.833  20.219  0.00  0.00    +0.000 C 
BRANCH  18  20
ATOM     19  C   UNL     1       1.592   5.208  20.717  0.00  0.00    +0.000 C 
ATOM     20  C   UNL     1       1.106   3.780  20.535  0.00  0.00    +0.000 C 
ENDBRANCH  18  20
ENDBRANCH  15  18
ENDBRANCH   1  15
TORSDOF 7
ENDMDL
MODEL 7
REMARK VINA RESULT:      -6.1      2.719      4.416
REMARK  Name = 
REMARK  9 active torsions:
REMARK  status: ('A' for Active; 'I' for Inactive)
REMARK    1  A    between atoms: C_1  and  C_2
REMARK    2  A    between atoms: C_2  and  C_3
REMARK    3  A    between atoms: C_3  and  S_4
REMARK    4  A    between atoms: S_4  and  N_7
REMARK    5  A    between atoms: C_10  and  C_11
REMARK    6  A    between atoms: N_13  and  C_14
REMARK    7  A    between atoms: C_14  and  C_15
REMARK    8  A    between atoms: C_15  and  O_16
REMARK    9  A    between atoms: O_16  and  C_17
REMARK                            x       y       z     vdW  Elec       q    Type
REMARK                         _______ _______ _______ _____ _____    ______ ____
ROOT
ATOM      1  N   UNL     1       3.970   4.722  18.196  0.00  0.00    +0.000 NA
ATOM      2  C   UNL     1       4.513   4.594  16.811  0.00  0.00    +0.000 C 
ATOM      3  C   UNL     1       5.900   3.952  16.847  0.00  0.00    +0.000 C 
ATOM      4  C   UNL     1       6.869   4.727  17.751  0.00  0.00    +0.000 C 
ATOM      5  C   UNL     1       6.253   4.844  19.148  0.00  0.00    +0.000 C 
ATOM      6  C   UNL     1       4.873   5.493  19.098  0.00  0.00    +0.000 C 
ENDROOT
BRANCH   4   7
ATOM      7  C   UNL     1       7.228   6.084  17.141  0.00  0.00    +0.000 C 
ATOM      8  O   UNL     1       7.218   6.294  15.931  0.00  0.00    +0.000 OA
ATOM      9  N   UNL     1       7.606   7.049  18.043  0.00  0.00    +0.000 N 
ATOM     10  H   UNL     1       7.481   6.903  19.035  0.00  0.00    +0.000 HD
BRANCH   9  11
ATOM     11  C   UNL     1       7.900   8.408  17.616  0.00  0.00    +0.000 C 
BRANCH  11  12
ATOM     12  C   UNL     1       8.682   9.196  18.669  0.00  0.00    +0.000 C 
BRANCH  12  13
ATOM     13  O   UNL     1       9.005  10.492  18.148  0.00  0.00    +0.000 OA
ATOM     14  C   UNL     1       9.798  11.231  19.070  0.00  0.00    +0.000 C 
ENDBRANCH  12  13
ENDBRANCH  11  12
ENDBRANCH   9  11
ENDBRANCH   4   7
BRANCH   1  15
ATOM     15  S   UNL     1       2.333   5.251  18.230  0.00  0.00    +0.000 S 
ATOM     16  O   UNL     1       1.536   4.294  17.488  0.00  0.00    +0.000 OA
ATOM     17  O   UNL     1       2.310   6.661  17.915  0.00  0.00    +0.000 OA
BRANCH  15  18
ATOM     18  C   UNL     1       1.951   5.035  19.967  0.00  0.00    +0.000 C 
BRANCH  18  20
ATOM     19  C   UNL     1       1.490   2.839  21.106  0.00  0.00    +0.000 C 
ATOM     20  C   UNL     1       0.947   3.904  20.169  0.00  0.00    +0.000 C 
ENDBRANCH  18  20
ENDBRANCH  15  18
ENDBRANCH   1  15
TORSDOF 7
ENDMDL
MODEL 8
REMARK VINA RESULT:      -6.1      3.114      4.670
REMARK  Name = 
REMARK  9 active torsions:
REMARK  status: ('A' for Active; 'I' for Inactive)
REMARK    1  A    between atoms: C_1  and  C_2
REMARK    2  A    between atoms: C_2  and  C_3
REMARK    3  A    between atoms: C_3  and  S_4
REMARK    4  A    between atoms: S_4  and  N_7
REMARK    5  A    between atoms: C_10  and  C_11
REMARK    6  A    between atoms: N_13  and  C_14
REMARK    7  A    between atoms: C_14  and  C_15
REMARK    8  A    between atoms: C_15  and  O_16
REMARK    9  A    between atoms: O_16  and  C_17
REMARK                            x       y       z     vdW  Elec       q    Type
REMARK                         _______ _______ _______ _____ _____    ______ ____
ROOT
ATOM      1  N   UNL     1       5.057   4.354  18.346  0.00  0.00    +0.000 NA
ATOM      2  C   UNL     1       5.646   4.558  16.990  0.00  0.00    +0.000 C 
ATOM      3  C   UNL     1       7.173   4.529  17.071  0.00  0.00    +0.000 C 
ATOM      4  C   UNL     1       7.716   5.560  18.069  0.00  0.00    +0.000 C 
ATOM      5  C   UNL     1       7.064   5.316  19.433  0.00  0.00    +0.000 C 
ATOM      6  C   UNL     1       5.542   5.356  19.340  0.00  0.00    +0.000 C 
ENDROOT
BRANCH   4   7
ATOM      7  C   UNL     1       7.512   6.988  17.557  0.00  0.00    +0.000 C 
ATOM      8  O   UNL     1       6.791   7.255  16.599  0.00  0.00    +0.000 OA
ATOM      9  N   UNL     1       8.228   7.955  18.220  0.00  0.00    +0.000 N 
ATOM     10  H   UNL     1       8.708   7.740  19.083  0.00  0.00    +0.000 HD
BRANCH   9  11
ATOM     11  C   UNL     1       8.074   9.364  17.894  0.00  0.00    +0.000 C 
BRANCH  11  12
ATOM     12  C   UNL     1       8.972  10.263  18.746  0.00  0.00    +0.000 C 
BRANCH  12  13
ATOM     13  O   UNL     1       9.858  10.997  17.891  0.00  0.00    +0.000 OA
ATOM     14  C   UNL     1       9.548  12.386  17.902  0.00  0.00    +0.000 C 
ENDBRANCH  12  13
ENDBRANCH  11  12
ENDBRANCH   9  11
ENDBRANCH   4   7
BRANCH   1  15
ATOM     15  S   UNL     1       3.345   4.175  18.315  0.00  0.00    +0.000 S 
ATOM     16  O   UNL     1       3.043   2.824  17.889  0.00  0.00    +0.000 OA
ATOM     17  O   UNL     1       2.786   5.324  17.641  0.00  0.00    +0.000 OA
BRANCH  15  18
ATOM     18  C   UNL     1       2.969   4.283  20.064  0.00  0.00    +0.000 C 
BRANCH  18  20
ATOM     19  C   UNL     1       1.349   2.836  21.333  0.00  0.00    +0.000 C 
ATOM     20  C   UNL     1       2.705   2.900  20.651  0.00  0.00    +0.000 C 
ENDBRANCH  18  20
ENDBRANCH  15  18
ENDBRANCH   1  15
TORSDOF 7
ENDMDL
MODEL 9
REMARK VINA RESULT:      -6.0      1.370      1.451
REMARK  Name = 
REMARK  9 active torsions:
REMARK  status: ('A' for Active; 'I' for Inactive)
REMARK    1  A    between atoms: C_1  and  C_2
REMARK    2  A    between atoms: C_2  and  C_3
REMARK    3  A    between atoms: C_3  and  S_4
REMARK    4  A    between atoms: S_4  and  N_7
REMARK    5  A    between atoms: C_10  and  C_11
REMARK    6  A    between atoms: N_13  and  C_14
REMARK    7  A    between atoms: C_14  and  C_15
REMARK    8  A    between atoms: C_15  and  O_16
REMARK    9  A    between atoms: O_16  and  C_17
REMARK                            x       y       z     vdW  Elec       q    Type
REMARK                         _______ _______ _______ _____ _____    ______ ____
ROOT
ATOM      1  N   UNL     1       3.078   4.356  18.528  0.00  0.00    +0.000 NA
ATOM      2  C   UNL     1       4.279   3.606  18.053  0.00  0.00    +0.000 C 
ATOM      3  C   UNL     1       5.541   4.443  18.272  0.00  0.00    +0.000 C 
ATOM      4  C   UNL     1       5.445   5.817  17.596  0.00  0.00    +0.000 C 
ATOM      5  C   UNL     1       4.188   6.529  18.104  0.00  0.00    +0.000 C 
ATOM      6  C   UNL     1       2.936   5.688  17.873  0.00  0.00    +0.000 C 
ENDROOT
BRANCH   4   7
ATOM      7  C   UNL     1       5.482   5.687  16.071  0.00  0.00    +0.000 C 
ATOM      8  O   UNL     1       5.152   6.599  15.318  0.00  0.00    +0.000 OA
ATOM      9  N   UNL     1       5.872   4.458  15.598  0.00  0.00    +0.000 N 
ATOM     10  H   UNL     1       6.265   3.767  16.222  0.00  0.00    +0.000 HD
BRANCH   9  11
ATOM     11  C   UNL     1       6.029   4.213  14.172  0.00  0.00    +0.000 C 
BRANCH  11  12
ATOM     12  C   UNL     1       7.299   4.852  13.606  0.00  0.00    +0.000 C 
BRANCH  12  13
ATOM     13  O   UNL     1       7.440   4.485  12.227  0.00  0.00    +0.000 OA
ATOM     14  C   UNL     1       6.612   3.372  11.906  0.00  0.00    +0.000 C 
ENDBRANCH  12  13
ENDBRANCH  11  12
ENDBRANCH   9  11
ENDBRANCH   4   7
BRANCH   1  15
ATOM     15  S   UNL     1       1.641   3.409  18.502  0.00  0.00    +0.000 S 
ATOM     16  O   UNL     1       2.022   2.013  18.577  0.00  0.00    +0.000 OA
ATOM     17  O   UNL     1       0.795   3.907  17.441  0.00  0.00    +0.000 OA
BRANCH  15  18
ATOM     18  C   UNL     1       0.922   3.856  20.081  0.00  0.00    +0.000 C 
BRANCH  18  20
ATOM     19  C   UNL     1       2.361   2.714  21.800  0.00  0.00    +0.000 C 
ATOM     20  C   UNL     1       2.003   4.035  21.141  0.00  0.00    +0.000 C 
ENDBRANCH  18  20
ENDBRANCH  15  18
ENDBRANCH   1  15
TORSDOF 7
ENDMDL
