MODEL 1
REMARK VINA RESULT:      -6.3      0.000      0.000
REMARK  Name = 
REMARK  7 active torsions:
REMARK  status: ('A' for Active; 'I' for Inactive)
REMARK    1  A    between atoms: C_4  and  O_5
REMARK    2  A    between atoms: C_7  and  C_8
REMARK    3  A    between atoms: C_11  and  C_12
REMARK    4  A    between atoms: C_12  and  C_13
REMARK    5  A    between atoms: C_12  and  C_14
REMARK    6  A    between atoms: C_15  and  O_16
REMARK    7  A    between atoms: C_17  and  O_18
REMARK                            x       y       z     vdW  Elec       q    Type
REMARK                         _______ _______ _______ _____ _____    ______ ____
ROOT
ATOM      1  C   UNL     1       3.687   1.410  18.316  0.00  0.00    +0.000 C 
ATOM      2  C   UNL     1       3.708   2.519  19.084  0.00  0.00    +0.000 C 
ATOM      3  C   UNL     1       2.760   2.646  20.270  0.00  0.00    +0.000 C 
ATOM      4  C   UNL     1       1.552   3.577  20.013  0.00  0.00    +0.000 C 
ATOM      5  C   UNL     1       2.032   4.958  19.669  0.00  0.00    +0.000 C 
ATOM      6  C   UNL     1       2.043   5.541  18.454  0.00  0.00    +0.000 C 
ATOM      7  C   UNL     1       1.259   5.042  17.265  0.00  0.00    +0.000 C 
ATOM      8  C   UNL     1       2.929   6.753  18.233  0.00  0.00    +0.000 C 
ATOM      9  C   UNL     1       3.946   6.652  17.079  0.00  0.00    +0.000 C 
ATOM     10  C   UNL     1       5.188   5.688  17.153  0.00  0.00    +0.000 C 
ATOM     11  C   UNL     1       4.800   4.181  17.390  0.00  0.00    +0.000 C 
ATOM     12  C   UNL     1       4.696   3.664  18.867  0.00  0.00    +0.000 C 
ENDROOT
BRANCH  10  13
ATOM     13  C   UNL     1       6.375   6.249  18.007  0.00  0.00    +0.000 C 
ATOM     14  C   UNL     1       6.828   7.644  17.537  0.00  0.00    +0.000 C 
ATOM     15  C   UNL     1       7.645   5.380  17.944  0.00  0.00    +0.000 C 
ENDBRANCH  10  13
BRANCH   4  16
ATOM     16  O   UNL     1       0.741   3.659  21.187  0.00  0.00    +0.000 OA
ATOM     17  H   UNL     1      -0.158   3.381  20.945  0.00  0.00    +0.000 HD
ENDBRANCH   4  16
BRANCH  11  18
ATOM     18  O   UNL     1       5.705   3.306  16.677  0.00  0.00    +0.000 OA
ATOM     19  H   UNL     1       6.436   3.063  17.266  0.00  0.00    +0.000 HD
ENDBRANCH  11  18
BRANCH  12  20
ATOM     20  O   UNL     1       5.948   3.155  19.331  0.00  0.00    +0.000 OA
ATOM     21  H   UNL     1       6.446   2.973  18.511  0.00  0.00    +0.000 HD
ENDBRANCH  12  20
TORSDOF 4
ENDMDL
MODEL 2
REMARK VINA RESULT:      -6.0      1.488      1.850
REMARK  Name = 
REMARK  7 active torsions:
REMARK  status: ('A' for Active; 'I' for Inactive)
REMARK    1  A    between atoms: C_4  and  O_5
REMARK    2  A    between atoms: C_7  and  C_8
REMARK    3  A    between atoms: C_11  and  C_12
REMARK    4  A    between atoms: C_12  and  C_13
REMARK    5  A    between atoms: C_12  and  C_14
REMARK    6  A    between atoms: C_15  and  O_16
REMARK    7  A    between atoms: C_17  and  O_18
REMARK                            x       y       z     vdW  Elec       q    Type
REMARK                         _______ _______ _______ _____ _____    ______ ____
ROOT
ATOM      1  C   UNL     1       1.968   2.410  19.853  0.00  0.00    +0.000 C 
ATOM      2  C   UNL     1       2.767   3.474  20.076  0.00  0.00    +0.000 C 
ATOM      3  C   UNL     1       2.379   4.516  21.117  0.00  0.00    +0.000 C 
ATOM      4  C   UNL     1       1.818   5.826  20.516  0.00  0.00    +0.000 C 
ATOM      5  C   UNL     1       2.836   6.453  19.607  0.00  0.00    +0.000 C 
ATOM      6  C   UNL     1       2.827   6.473  18.259  0.00  0.00    +0.000 C 
ATOM      7  C   UNL     1       1.616   6.167  17.413  0.00  0.00    +0.000 C 
ATOM      8  C   UNL     1       4.120   6.779  17.525  0.00  0.00    +0.000 C 
ATOM      9  C   UNL     1       4.586   5.726  16.501  0.00  0.00    +0.000 C 
ATOM     10  C   UNL     1       5.110   4.310  16.950  0.00  0.00    +0.000 C 
ATOM     11  C   UNL     1       4.072   3.501  17.813  0.00  0.00    +0.000 C 
ATOM     12  C   UNL     1       4.109   3.671  19.371  0.00  0.00    +0.000 C 
ENDROOT
BRANCH  10  13
ATOM     13  C   UNL     1       6.592   4.315  17.458  0.00  0.00    +0.000 C 
ATOM     14  C   UNL     1       6.837   5.383  18.542  0.00  0.00    +0.000 C 
ATOM     15  C   UNL     1       7.621   4.628  16.357  0.00  0.00    +0.000 C 
ENDBRANCH  10  13
BRANCH   4  16
ATOM     16  O   UNL     1       1.513   6.752  21.562  0.00  0.00    +0.000 OA
ATOM     17  H   UNL     1       2.223   6.694  22.222  0.00  0.00    +0.000 HD
ENDBRANCH   4  16
BRANCH  11  18
ATOM     18  O   UNL     1       4.160   2.088  17.519  0.00  0.00    +0.000 OA
ATOM     19  H   UNL     1       4.777   1.958  16.782  0.00  0.00    +0.000 HD
ENDBRANCH  11  18
BRANCH  12  20
ATOM     20  O   UNL     1       4.981   2.717  19.980  0.00  0.00    +0.000 OA
ATOM     21  H   UNL     1       5.268   3.154  20.804  0.00  0.00    +0.000 HD
ENDBRANCH  12  20
TORSDOF 4
ENDMDL
MODEL 3
REMARK VINA RESULT:      -5.8      9.626     12.155
REMARK  Name = 
REMARK  7 active torsions:
REMARK  status: ('A' for Active; 'I' for Inactive)
REMARK    1  A    between atoms: C_4  and  O_5
REMARK    2  A    between atoms: C_7  and  C_8
REMARK    3  A    between atoms: C_11  and  C_12
REMARK    4  A    between atoms: C_12  and  C_13
REMARK    5  A    between atoms: C_12  and  C_14
REMARK    6  A    between atoms: C_15  and  O_16
REMARK    7  A    between atoms: C_17  and  O_18
REMARK                            x       y       z     vdW  Elec       q    Type
REMARK                         _______ _______ _______ _____ _____    ______ ____
ROOT
ATOM      1  C   UNL     1      12.033  11.842  17.993  0.00  0.00    +0.000 C 
ATOM      2  C   UNL     1      10.982  12.688  18.004  0.00  0.00    +0.000 C 
ATOM      3  C   UNL     1      10.727  13.607  16.816  0.00  0.00    +0.000 C 
ATOM      4  C   UNL     1      11.141  15.077  17.058  0.00  0.00    +0.000 C 
ATOM      5  C   UNL     1      10.388  15.638  18.231  0.00  0.00    +0.000 C 
ATOM      6  C   UNL     1      10.863  15.872  19.470  0.00  0.00    +0.000 C 
ATOM      7  C   UNL     1      12.330  15.937  19.820  0.00  0.00    +0.000 C 
ATOM      8  C   UNL     1       9.876  16.042  20.610  0.00  0.00    +0.000 C 
ATOM      9  C   UNL     1      10.057  15.096  21.814  0.00  0.00    +0.000 C 
ATOM     10  C   UNL     1       9.755  13.554  21.707  0.00  0.00    +0.000 C 
ATOM     11  C   UNL     1      10.584  12.828  20.583  0.00  0.00    +0.000 C 
ATOM     12  C   UNL     1       9.965  12.739  19.145  0.00  0.00    +0.000 C 
ENDROOT
BRANCH  10  13
ATOM     13  C   UNL     1       8.232  13.200  21.794  0.00  0.00    +0.000 C 
ATOM     14  C   UNL     1       7.420  14.278  22.537  0.00  0.00    +0.000 C 
ATOM     15  C   UNL     1       7.945  11.894  22.558  0.00  0.00    +0.000 C 
ENDBRANCH  10  13
BRANCH   4  16
ATOM     16  O   UNL     1      10.835  15.866  15.905  0.00  0.00    +0.000 OA
ATOM     17  H   UNL     1       9.977  15.565  15.561  0.00  0.00    +0.000 HD
ENDBRANCH   4  16
BRANCH  11  18
ATOM     18  O   UNL     1      10.936  11.488  20.997  0.00  0.00    +0.000 OA
ATOM     19  H   UNL     1      11.030  10.930  20.210  0.00  0.00    +0.000 HD
ENDBRANCH  11  18
BRANCH  12  20
ATOM     20  O   UNL     1       9.183  11.553  18.985  0.00  0.00    +0.000 OA
ATOM     21  H   UNL     1       8.367  11.741  19.486  0.00  0.00    +0.000 HD
ENDBRANCH  12  20
TORSDOF 4
ENDMDL
MODEL 4
REMARK VINA RESULT:      -5.7      1.347      1.986
REMARK  Name = 
REMARK  7 active torsions:
REMARK  status: ('A' for Active; 'I' for Inactive)
REMARK    1  A    between atoms: C_4  and  O_5
REMARK    2  A    between atoms: C_7  and  C_8
REMARK    3  A    between atoms: C_11  and  C_12
REMARK    4  A    between atoms: C_12  and  C_13
REMARK    5  A    between atoms: C_12  and  C_14
REMARK    6  A    between atoms: C_15  and  O_16
REMARK    7  A    between atoms: C_17  and  O_18
REMARK                            x       y       z     vdW  Elec       q    Type
REMARK                         _______ _______ _______ _____ _____    ______ ____
ROOT
ATOM      1  C   UNL     1       4.710   1.078  19.504  0.00  0.00    +0.000 C 
ATOM      2  C   UNL     1       4.238   2.220  20.044  0.00  0.00    +0.000 C 
ATOM      3  C   UNL     1       3.542   2.196  21.399  0.00  0.00    +0.000 C 
ATOM      4  C   UNL     1       2.002   2.309  21.316  0.00  0.00    +0.000 C 
ATOM      5  C   UNL     1       1.616   3.591  20.634  0.00  0.00    +0.000 C 
ATOM      6  C   UNL     1       1.149   3.741  19.379  0.00  0.00    +0.000 C 
ATOM      7  C   UNL     1       0.599   2.615  18.537  0.00  0.00    +0.000 C 
ATOM      8  C   UNL     1       1.209   5.114  18.736  0.00  0.00    +0.000 C 
ATOM      9  C   UNL     1       1.954   5.203  17.389  0.00  0.00    +0.000 C 
ATOM     10  C   UNL     1       3.516   5.028  17.295  0.00  0.00    +0.000 C 
ATOM     11  C   UNL     1       4.030   3.656  17.872  0.00  0.00    +0.000 C 
ATOM     12  C   UNL     1       4.421   3.589  19.389  0.00  0.00    +0.000 C 
ENDROOT
BRANCH  10  13
ATOM     13  C   UNL     1       4.322   6.307  17.703  0.00  0.00    +0.000 C 
ATOM     14  C   UNL     1       3.450   7.577  17.701  0.00  0.00    +0.000 C 
ATOM     15  C   UNL     1       5.489   6.629  16.752  0.00  0.00    +0.000 C 
ENDBRANCH  10  13
BRANCH   4  16
ATOM     16  O   UNL     1       1.441   2.310  22.631  0.00  0.00    +0.000 OA
ATOM     17  H   UNL     1       2.110   1.951  23.237  0.00  0.00    +0.000 HD
ENDBRANCH   4  16
BRANCH  11  18
ATOM     18  O   UNL     1       5.155   3.173  17.103  0.00  0.00    +0.000 OA
ATOM     19  H   UNL     1       4.951   2.284  16.772  0.00  0.00    +0.000 HD
ENDBRANCH  11  18
BRANCH  12  20
ATOM     20  O   UNL     1       5.800   3.904  19.587  0.00  0.00    +0.000 OA
ATOM     21  H   UNL     1       5.926   3.809  20.551  0.00  0.00    +0.000 HD
ENDBRANCH  12  20
TORSDOF 4
ENDMDL
MODEL 5
REMARK VINA RESULT:      -5.6      1.855      2.373
REMARK  Name = 
REMARK  7 active torsions:
REMARK  status: ('A' for Active; 'I' for Inactive)
REMARK    1  A    between atoms: C_4  and  O_5
REMARK    2  A    between atoms: C_7  and  C_8
REMARK    3  A    between atoms: C_11  and  C_12
REMARK    4  A    between atoms: C_12  and  C_13
REMARK    5  A    between atoms: C_12  and  C_14
REMARK    6  A    between atoms: C_15  and  O_16
REMARK    7  A    between atoms: C_17  and  O_18
REMARK                            x       y       z     vdW  Elec       q    Type
REMARK                         _______ _______ _______ _____ _____    ______ ____
ROOT
ATOM      1  C   UNL     1       0.745   2.152  18.479  0.00  0.00    +0.000 C 
ATOM      2  C   UNL     1       1.942   2.389  19.056  0.00  0.00    +0.000 C 
ATOM      3  C   UNL     1       2.093   2.294  20.569  0.00  0.00    +0.000 C 
ATOM      4  C   UNL     1       2.155   3.665  21.282  0.00  0.00    +0.000 C 
ATOM      5  C   UNL     1       3.317   4.463  20.762  0.00  0.00    +0.000 C 
ATOM      6  C   UNL     1       3.274   5.516  19.922  0.00  0.00    +0.000 C 
ATOM      7  C   UNL     1       2.026   6.308  19.614  0.00  0.00    +0.000 C 
ATOM      8  C   UNL     1       4.543   5.921  19.195  0.00  0.00    +0.000 C 
ATOM      9  C   UNL     1       4.457   5.978  17.656  0.00  0.00    +0.000 C 
ATOM     10  C   UNL     1       4.309   4.672  16.788  0.00  0.00    +0.000 C 
ATOM     11  C   UNL     1       3.047   3.809  17.162  0.00  0.00    +0.000 C 
ATOM     12  C   UNL     1       3.207   2.697  18.256  0.00  0.00    +0.000 C 
ENDROOT
BRANCH  10  13
ATOM     13  C   UNL     1       5.653   3.896  16.578  0.00  0.00    +0.000 C 
ATOM     14  C   UNL     1       6.863   4.647  17.166  0.00  0.00    +0.000 C 
ATOM     15  C   UNL     1       6.010   3.671  15.097  0.00  0.00    +0.000 C 
ENDBRANCH  10  13
BRANCH   4  16
ATOM     16  O   UNL     1       2.330   3.476  22.689  0.00  0.00    +0.000 OA
ATOM     17  H   UNL     1       2.393   2.520  22.852  0.00  0.00    +0.000 HD
ENDBRANCH   4  16
BRANCH  11  18
ATOM     18  O   UNL     1       2.487   3.191  15.981  0.00  0.00    +0.000 OA
ATOM     19  H   UNL     1       1.521   3.161  16.069  0.00  0.00    +0.000 HD
ENDBRANCH  11  18
BRANCH  12  20
ATOM     20  O   UNL     1       3.581   1.445  17.677  0.00  0.00    +0.000 OA
ATOM     21  H   UNL     1       4.406   1.208  18.143  0.00  0.00    +0.000 HD
ENDBRANCH  12  20
TORSDOF 4
ENDMDL
MODEL 6
REMARK VINA RESULT:      -5.6      1.914      3.232
REMARK  Name = 
REMARK  7 active torsions:
REMARK  status: ('A' for Active; 'I' for Inactive)
REMARK    1  A    between atoms: C_4  and  O_5
REMARK    2  A    between atoms: C_7  and  C_8
REMARK    3  A    between atoms: C_11  and  C_12
REMARK    4  A    between atoms: C_12  and  C_13
REMARK    5  A    between atoms: C_12  and  C_14
REMARK    6  A    between atoms: C_15  and  O_16
REMARK    7  A    between atoms: C_17  and  O_18
REMARK                            x       y       z     vdW  Elec       q    Type
REMARK                         _______ _______ _______ _____ _____    ______ ____
ROOT
ATOM      1  C   UNL     1       2.592   4.434  21.441  0.00  0.00    +0.000 C 
ATOM      2  C   UNL     1       2.255   4.498  20.136  0.00  0.00    +0.000 C 
ATOM      3  C   UNL     1       0.948   3.882  19.652  0.00  0.00    +0.000 C 
ATOM      4  C   UNL     1       1.124   2.532  18.919  0.00  0.00    +0.000 C 
ATOM      5  C   UNL     1       2.010   2.710  17.719  0.00  0.00    +0.000 C 
ATOM      6  C   UNL     1       3.296   2.325  17.588  0.00  0.00    +0.000 C 
ATOM      7  C   UNL     1       3.983   1.336  18.498  0.00  0.00    +0.000 C 
ATOM      8  C   UNL     1       4.135   2.946  16.487  0.00  0.00    +0.000 C 
ATOM      9  C   UNL     1       5.442   3.633  16.933  0.00  0.00    +0.000 C 
ATOM     10  C   UNL     1       5.431   4.973  17.759  0.00  0.00    +0.000 C 
ATOM     11  C   UNL     1       4.627   4.873  19.109  0.00  0.00    +0.000 C 
ATOM     12  C   UNL     1       3.100   5.228  19.092  0.00  0.00    +0.000 C 
ENDROOT
BRANCH  10  13
ATOM     13  C   UNL     1       5.181   6.252  16.888  0.00  0.00    +0.000 C 
ATOM     14  C   UNL     1       5.333   5.973  15.381  0.00  0.00    +0.000 C 
ATOM     15  C   UNL     1       6.168   7.397  17.179  0.00  0.00    +0.000 C 
ENDBRANCH  10  13
BRANCH   4  16
ATOM     16  O   UNL     1      -0.147   2.049  18.475  0.00  0.00    +0.000 OA
ATOM     17  H   UNL     1      -0.696   2.820  18.259  0.00  0.00    +0.000 HD
ENDBRANCH   4  16
BRANCH  11  18
ATOM     18  O   UNL     1       5.258   5.675  20.135  0.00  0.00    +0.000 OA
ATOM     19  H   UNL     1       5.524   5.096  20.867  0.00  0.00    +0.000 HD
ENDBRANCH  11  18
BRANCH  12  20
ATOM     20  O   UNL     1       2.884   6.615  19.357  0.00  0.00    +0.000 OA
ATOM     21  H   UNL     1       2.872   6.669  20.332  0.00  0.00    +0.000 HD
ENDBRANCH  12  20
TORSDOF 4
ENDMDL
MODEL 7
REMARK VINA RESULT:      -5.6      9.079     11.762
REMARK  Name = 
REMARK  7 active torsions:
REMARK  status: ('A' for Active; 'I' for Inactive)
REMARK    1  A    between atoms: C_4  and  O_5
REMARK    2  A    between atoms: C_7  and  C_8
REMARK    3  A    between atoms: C_11  and  C_12
REMARK    4  A    between atoms: C_12  and  C_13
REMARK    5  A    between atoms: C_12  and  C_14
REMARK    6  A    between atoms: C_15  and  O_16
REMARK    7  A    between atoms: C_17  and  O_18
REMARK                            x       y       z     vdW  Elec       q    Type
REMARK                         _______ _______ _______ _____ _____    ______ ____
ROOT
ATOM      1  C   UNL     1       7.909  12.705  17.300  0.00  0.00    +0.000 C 
ATOM      2  C   UNL     1       9.032  12.729  18.047  0.00  0.00    +0.000 C 
ATOM      3  C   UNL     1       9.466  11.487  18.815  0.00  0.00    +0.000 C 
ATOM      4  C   UNL     1       9.177  11.553  20.332  0.00  0.00    +0.000 C 
ATOM      5  C   UNL     1       9.886  12.730  20.940  0.00  0.00    +0.000 C 
ATOM      6  C   UNL     1       9.340  13.896  21.340  0.00  0.00    +0.000 C 
ATOM      7  C   UNL     1       7.863  14.108  21.569  0.00  0.00    +0.000 C 
ATOM      8  C   UNL     1      10.247  15.097  21.537  0.00  0.00    +0.000 C 
ATOM      9  C   UNL     1       9.881  16.363  20.736  0.00  0.00    +0.000 C 
ATOM     10  C   UNL     1      10.042  16.427  19.171  0.00  0.00    +0.000 C 
ATOM     11  C   UNL     1       9.238  15.308  18.411  0.00  0.00    +0.000 C 
ATOM     12  C   UNL     1       9.956  13.944  18.123  0.00  0.00    +0.000 C 
ENDROOT
BRANCH  10  13
ATOM     13  C   UNL     1      11.513  16.680  18.695  0.00  0.00    +0.000 C 
ATOM     14  C   UNL     1      12.326  17.501  19.714  0.00  0.00    +0.000 C 
ATOM     15  C   UNL     1      11.607  17.477  17.381  0.00  0.00    +0.000 C 
ENDBRANCH  10  13
BRANCH   4  16
ATOM     16  O   UNL     1       9.647  10.363  20.971  0.00  0.00    +0.000 OA
ATOM     17  H   UNL     1       9.869   9.723  20.275  0.00  0.00    +0.000 HD
ENDBRANCH   4  16
BRANCH  11  18
ATOM     18  O   UNL     1       8.728  15.813  17.156  0.00  0.00    +0.000 OA
ATOM     19  H   UNL     1       9.395  15.675  16.466  0.00  0.00    +0.000 HD
ENDBRANCH  11  18
BRANCH  12  20
ATOM     20  O   UNL     1      10.631  13.965  16.863  0.00  0.00    +0.000 OA
ATOM     21  H   UNL     1      10.443  13.085  16.483  0.00  0.00    +0.000 HD
ENDBRANCH  12  20
TORSDOF 4
ENDMDL
MODEL 8
REMARK VINA RESULT:      -5.4      9.560     11.914
REMARK  Name = 
REMARK  7 active torsions:
REMARK  status: ('A' for Active; 'I' for Inactive)
REMARK    1  A    between atoms: C_4  and  O_5
REMARK    2  A    between atoms: C_7  and  C_8
REMARK    3  A    between atoms: C_11  and  C_12
REMARK    4  A    between atoms: C_12  and  C_13
REMARK    5  A    between atoms: C_12  and  C_14
REMARK    6  A    between atoms: C_15  and  O_16
REMARK    7  A    between atoms: C_17  and  O_18
REMARK                            x       y       z     vdW  Elec       q    Type
REMARK                         _______ _______ _______ _____ _____    ______ ____
ROOT
ATOM      1  C   UNL     1       7.890  12.506  17.224  0.00  0.00    +0.000 C 
ATOM      2  C   UNL     1       8.943  13.205  17.697  0.00  0.00    +0.000 C 
ATOM      3  C   UNL     1      10.360  12.692  17.479  0.00  0.00    +0.000 C 
ATOM      4  C   UNL     1      10.996  12.048  18.733  0.00  0.00    +0.000 C 
ATOM      5  C   UNL     1      11.044  13.045  19.856  0.00  0.00    +0.000 C 
ATOM      6  C   UNL     1      10.254  13.086  20.947  0.00  0.00    +0.000 C 
ATOM      7  C   UNL     1       9.397  11.937  21.420  0.00  0.00    +0.000 C 
ATOM      8  C   UNL     1      10.175  14.376  21.743  0.00  0.00    +0.000 C 
ATOM      9  C   UNL     1       8.764  14.966  21.943  0.00  0.00    +0.000 C 
ATOM     10  C   UNL     1       7.951  15.588  20.747  0.00  0.00    +0.000 C 
ATOM     11  C   UNL     1       7.729  14.588  19.552  0.00  0.00    +0.000 C 
ATOM     12  C   UNL     1       8.798  14.552  18.406  0.00  0.00    +0.000 C 
ENDROOT
BRANCH  10  13
ATOM     13  C   UNL     1       8.391  17.043  20.371  0.00  0.00    +0.000 C 
ATOM     14  C   UNL     1       9.059  17.778  21.549  0.00  0.00    +0.000 C 
ATOM     15  C   UNL     1       7.221  17.952  19.953  0.00  0.00    +0.000 C 
ENDBRANCH  10  13
BRANCH   4  16
ATOM     16  O   UNL     1      12.331  11.628  18.443  0.00  0.00    +0.000 OA
ATOM     17  H   UNL     1      12.499  11.809  17.504  0.00  0.00    +0.000 HD
ENDBRANCH   4  16
BRANCH  11  18
ATOM     18  O   UNL     1       6.435  14.804  18.944  0.00  0.00    +0.000 OA
ATOM     19  H   UNL     1       6.008  13.945  18.798  0.00  0.00    +0.000 HD
ENDBRANCH  11  18
BRANCH  12  20
ATOM     20  O   UNL     1       8.479  15.476  17.364  0.00  0.00    +0.000 OA
ATOM     21  H   UNL     1       7.743  16.001  17.733  0.00  0.00    +0.000 HD
ENDBRANCH  12  20
TORSDOF 4
ENDMDL
MODEL 9
REMARK VINA RESULT:      -5.1     10.470     11.726
REMARK  Name = 
REMARK  7 active torsions:
REMARK  status: ('A' for Active; 'I' for Inactive)
REMARK    1  A    between atoms: C_4  and  O_5
REMARK    2  A    between atoms: C_7  and  C_8
REMARK    3  A    between atoms: C_11  and  C_12
REMARK    4  A    between atoms: C_12  and  C_13
REMARK    5  A    between atoms: C_12  and  C_14
REMARK    6  A    between atoms: C_15  and  O_16
REMARK    7  A    between atoms: C_17  and  O_18
REMARK                            x       y       z     vdW  Elec       q    Type
REMARK                         _______ _______ _______ _____ _____    ______ ____
ROOT
ATOM      1  C   UNL     1       7.419  17.159  19.102  0.00  0.00    +0.000 C 
ATOM      2  C   UNL     1       7.369  15.821  19.267  0.00  0.00    +0.000 C 
ATOM      3  C   UNL     1       6.242  15.191  20.075  0.00  0.00    +0.000 C 
ATOM      4  C   UNL     1       6.659  14.745  21.495  0.00  0.00    +0.000 C 
ATOM      5  C   UNL     1       7.771  13.738  21.412  0.00  0.00    +0.000 C 
ATOM      6  C   UNL     1       9.076  13.938  21.683  0.00  0.00    +0.000 C 
ATOM      7  C   UNL     1       9.614  15.120  22.452  0.00  0.00    +0.000 C 
ATOM      8  C   UNL     1      10.092  12.942  21.153  0.00  0.00    +0.000 C 
ATOM      9  C   UNL     1      11.224  13.524  20.281  0.00  0.00    +0.000 C 
ATOM     10  C   UNL     1      10.947  14.094  18.840  0.00  0.00    +0.000 C 
ATOM     11  C   UNL     1       9.878  15.250  18.817  0.00  0.00    +0.000 C 
ATOM     12  C   UNL     1       8.371  14.864  18.621  0.00  0.00    +0.000 C 
ENDROOT
BRANCH  10  13
ATOM     13  C   UNL     1      10.809  12.990  17.738  0.00  0.00    +0.000 C 
ATOM     14  C   UNL     1      11.540  11.688  18.117  0.00  0.00    +0.000 C 
ATOM     15  C   UNL     1      11.409  13.397  16.379  0.00  0.00    +0.000 C 
ENDBRANCH  10  13
BRANCH   4  16
ATOM     16  O   UNL     1       5.549  14.138  22.163  0.00  0.00    +0.000 OA
ATOM     17  H   UNL     1       4.847  14.007  21.505  0.00  0.00    +0.000 HD
ENDBRANCH   4  16
BRANCH  11  18
ATOM     18  O   UNL     1      10.218  16.234  17.813  0.00  0.00    +0.000 OA
ATOM     19  H   UNL     1      11.157  16.462  17.900  0.00  0.00    +0.000 HD
ENDBRANCH  11  18
BRANCH  12  20
ATOM     20  O   UNL     1       8.012  14.844  17.238  0.00  0.00    +0.000 OA
ATOM     21  H   UNL     1       8.124  15.771  16.954  0.00  0.00    +0.000 HD
ENDBRANCH  12  20
TORSDOF 4
ENDMDL
