MODEL 1
REMARK VINA RESULT:      -7.5      0.000      0.000
REMARK  Name = 
REMARK  22 active torsions:
REMARK  status: ('A' for Active; 'I' for Inactive)
REMARK    1  A    between atoms: C_1  and  C_2
REMARK    2  A    between atoms: C_2  and  N_3
REMARK    3  A    between atoms: C_4  and  C_5
REMARK    4  A    between atoms: N_7  and  C_8
REMARK    5  A    between atoms: C_8  and  C_9
REMARK    6  A    between atoms: C_9  and  C_10
REMARK    7  A    between atoms: C_10  and  O_12
REMARK    8  A    between atoms: O_12  and  C_13
REMARK    9  A    between atoms: C_16  and  C_17
REMARK   10  A    between atoms: C_17  and  C_18
REMARK   11  A    between atoms: C_17  and  C_20
REMARK   12  A    between atoms: C_17  and  C_22
REMARK   13  A    between atoms: C_18  and  C_19
REMARK   14  A    between atoms: C_20  and  C_21
REMARK   15  A    between atoms: C_25  and  C_26
REMARK   16  A    between atoms: C_27  and  C_28
REMARK   17  A    between atoms: C_28  and  O_29
REMARK   18  A    between atoms: C_28  and  C_30
REMARK   19  A    between atoms: C_28  and  C_32
REMARK   20  A    between atoms: C_30  and  C_31
REMARK   21  A    between atoms: C_32  and  C_33
REMARK   22  A    between atoms: C_34  and  C_35
REMARK                            x       y       z     vdW  Elec       q    Type
REMARK                         _______ _______ _______ _____ _____    ______ ____
ROOT
ATOM      1  C   UNL     1      -0.348  10.706  19.233  0.00  0.00    +0.000 C 
ENDROOT
BRANCH   1   2
ATOM      2  C   UNL     1       0.843   9.691  19.098  0.00  0.00    +0.000 A 
ATOM      3  C   UNL     1       1.626   9.662  17.928  0.00  0.00    +0.000 A 
ATOM      4  C   UNL     1       2.461   8.568  17.633  0.00  0.00    +0.000 A 
ATOM      5  C   UNL     1       2.567   7.481  18.507  0.00  0.00    +0.000 A 
ATOM      6  C   UNL     1       1.897   7.532  19.735  0.00  0.00    +0.000 A 
ATOM      7  C   UNL     1       2.003   6.442  20.773  0.00  0.00    +0.000 C 
ATOM      8  C   UNL     1       1.058   8.639  20.017  0.00  0.00    +0.000 A 
BRANCH   5   9
ATOM      9  C   UNL     1       3.306   6.320  18.087  0.00  0.00    +0.000 C 
ATOM     10  C   UNL     1       3.892   5.320  17.755  0.00  0.00    +0.000 C 
BRANCH  10  11
ATOM     11  C   UNL     1       4.642   4.102  17.381  0.00  0.00    +0.000 C 
BRANCH  11  12
ATOM     12  O   UNL     1       5.816   3.985  18.185  0.00  0.00    +0.000 OA
ATOM     13  H   UNL     1       6.564   4.317  17.663  0.00  0.00    +0.000 HD
ENDBRANCH  11  12
BRANCH  11  14
ATOM     14  C   UNL     1       3.775   2.837  17.581  0.00  0.00    +0.000 C 
ATOM     15  C   UNL     1       2.610   3.009  18.555  0.00  0.00    +0.000 C 
ENDBRANCH  11  14
BRANCH  11  16
ATOM     16  C   UNL     1       5.094   4.200  15.906  0.00  0.00    +0.000 C 
ATOM     17  C   UNL     1       6.500   4.777  15.728  0.00  0.00    +0.000 C 
ENDBRANCH  11  16
ENDBRANCH  10  11
ENDBRANCH   5   9
ENDBRANCH   1   2
BRANCH   1  22
ATOM     18  N   UNL     1      -1.701  11.889  21.236  0.00  0.00    +0.000 N 
ATOM     19  C   UNL     1      -1.815  11.775  22.637  0.00  0.00    +0.000 A 
ATOM     20  C   UNL     1      -0.931  10.783  23.014  0.00  0.00    +0.000 A 
ATOM     21  C   UNL     1      -0.305  10.289  21.857  0.00  0.00    +0.000 A 
ATOM     22  C   UNL     1      -0.792  10.952  20.731  0.00  0.00    +0.000 A 
BRANCH  19  23
ATOM     23  C   UNL     1      -2.694  12.582  23.487  0.00  0.00    +0.000 C 
ATOM     24  O   UNL     1      -2.414  13.716  23.887  0.00  0.00    +0.000 OA
ATOM     25  N   UNL     1      -3.902  12.018  23.850  0.00  0.00    +0.000 N 
ATOM     26  H   UNL     1      -4.155  11.104  23.504  0.00  0.00    +0.000 HD
BRANCH  25  27
ATOM     27  C   UNL     1      -4.806  12.698  24.765  0.00  0.00    +0.000 C 
BRANCH  27  28
ATOM     28  C   UNL     1      -5.884  13.493  24.044  0.00  0.00    +0.000 C 
BRANCH  28  29
ATOM     29  C   UNL     1      -7.016  12.577  23.655  0.00  0.00    +0.000 C 
ATOM     30  O   UNL     1      -7.112  11.406  23.997  0.00  0.00    +0.000 OA
BRANCH  29  31
ATOM     31  O   UNL     1      -7.888  13.222  22.830  0.00  0.00    +0.000 OA
ATOM     32  C   UNL     1      -7.694  12.936  21.444  0.00  0.00    +0.000 C 
ENDBRANCH  29  31
ENDBRANCH  28  29
ENDBRANCH  27  28
ENDBRANCH  25  27
ENDBRANCH  19  23
BRANCH  18  34
ATOM     33  C   UNL     1      -3.845  12.516  20.159  0.00  0.00    +0.000 C 
ATOM     34  C   UNL     1      -2.422  12.913  20.494  0.00  0.00    +0.000 C 
ENDBRANCH  18  34
ENDBRANCH   1  22
BRANCH   1  35
ATOM     35  C   UNL     1      -1.561  10.304  18.319  0.00  0.00    +0.000 C 
ATOM     36  C   UNL     1      -1.948  11.262  17.201  0.00  0.00    +0.000 C 
ENDBRANCH   1  35
BRANCH   1  37
ATOM     37  C   UNL     1       0.205  12.100  18.681  0.00  0.00    +0.000 C 
ATOM     38  C   UNL     1       1.363  12.759  19.427  0.00  0.00    +0.000 C 
ENDBRANCH   1  37
TORSDOF 15
ENDMDL
MODEL 2
REMARK VINA RESULT:      -7.2      1.686      2.729
REMARK  Name = 
REMARK  22 active torsions:
REMARK  status: ('A' for Active; 'I' for Inactive)
REMARK    1  A    between atoms: C_1  and  C_2
REMARK    2  A    between atoms: C_2  and  N_3
REMARK    3  A    between atoms: C_4  and  C_5
REMARK    4  A    between atoms: N_7  and  C_8
REMARK    5  A    between atoms: C_8  and  C_9
REMARK    6  A    between atoms: C_9  and  C_10
REMARK    7  A    between atoms: C_10  and  O_12
REMARK    8  A    between atoms: O_12  and  C_13
REMARK    9  A    between atoms: C_16  and  C_17
REMARK   10  A    between atoms: C_17  and  C_18
REMARK   11  A    between atoms: C_17  and  C_20
REMARK   12  A    between atoms: C_17  and  C_22
REMARK   13  A    between atoms: C_18  and  C_19
REMARK   14  A    between atoms: C_20  and  C_21
REMARK   15  A    between atoms: C_25  and  C_26
REMARK   16  A    between atoms: C_27  and  C_28
REMARK   17  A    between atoms: C_28  and  O_29
REMARK   18  A    between atoms: C_28  and  C_30
REMARK   19  A    between atoms: C_28  and  C_32
REMARK   20  A    between atoms: C_30  and  C_31
REMARK   21  A    between atoms: C_32  and  C_33
REMARK   22  A    between atoms: C_34  and  C_35
REMARK                            x       y       z     vdW  Elec       q    Type
REMARK                         _______ _______ _______ _____ _____    ______ ____
ROOT
ATOM      1  C   UNL     1      -0.171  10.716  19.300  0.00  0.00    +0.000 C 
ENDROOT
BRANCH   1   2
ATOM      2  C   UNL     1       0.972   9.645  19.186  0.00  0.00    +0.000 A 
ATOM      3  C   UNL     1       1.781   9.586  18.036  0.00  0.00    +0.000 A 
ATOM      4  C   UNL     1       2.569   8.455  17.752  0.00  0.00    +0.000 A 
ATOM      5  C   UNL     1       2.601   7.359  18.619  0.00  0.00    +0.000 A 
ATOM      6  C   UNL     1       1.904   7.434  19.831  0.00  0.00    +0.000 A 
ATOM      7  C   UNL     1       1.932   6.332  20.863  0.00  0.00    +0.000 C 
ATOM      8  C   UNL     1       1.113   8.578  20.101  0.00  0.00    +0.000 A 
BRANCH   5   9
ATOM      9  C   UNL     1       3.293   6.166  18.209  0.00  0.00    +0.000 C 
ATOM     10  C   UNL     1       3.879   5.155  17.910  0.00  0.00    +0.000 C 
BRANCH  10  11
ATOM     11  C   UNL     1       4.634   3.941  17.531  0.00  0.00    +0.000 C 
BRANCH  11  12
ATOM     12  O   UNL     1       5.747   3.766  18.406  0.00  0.00    +0.000 OA
ATOM     13  H   UNL     1       5.427   3.308  19.201  0.00  0.00    +0.000 HD
ENDBRANCH  11  12
BRANCH  11  14
ATOM     14  C   UNL     1       3.735   2.685  17.613  0.00  0.00    +0.000 C 
ATOM     15  C   UNL     1       2.754   2.678  18.784  0.00  0.00    +0.000 C 
ENDBRANCH  11  14
BRANCH  11  16
ATOM     16  C   UNL     1       5.187   4.098  16.096  0.00  0.00    +0.000 C 
ATOM     17  C   UNL     1       6.675   4.451  16.043  0.00  0.00    +0.000 C 
ENDBRANCH  11  16
ENDBRANCH  10  11
ENDBRANCH   5   9
ENDBRANCH   1   2
BRANCH   1  22
ATOM     18  N   UNL     1      -1.673  11.798  21.254  0.00  0.00    +0.000 N 
ATOM     19  C   UNL     1      -1.807  11.696  22.654  0.00  0.00    +0.000 A 
ATOM     20  C   UNL     1      -0.843  10.796  23.067  0.00  0.00    +0.000 A 
ATOM     21  C   UNL     1      -0.148  10.345  21.931  0.00  0.00    +0.000 A 
ATOM     22  C   UNL     1      -0.669  10.943  20.784  0.00  0.00    +0.000 A 
BRANCH  19  23
ATOM     23  C   UNL     1      -2.776  12.430  23.472  0.00  0.00    +0.000 C 
ATOM     24  O   UNL     1      -3.925  12.037  23.697  0.00  0.00    +0.000 OA
ATOM     25  N   UNL     1      -2.355  13.630  24.012  0.00  0.00    +0.000 N 
ATOM     26  H   UNL     1      -1.409  13.946  23.860  0.00  0.00    +0.000 HD
BRANCH  25  27
ATOM     27  C   UNL     1      -3.268  14.479  24.762  0.00  0.00    +0.000 C 
BRANCH  27  28
ATOM     28  C   UNL     1      -2.717  15.880  24.987  0.00  0.00    +0.000 C 
BRANCH  28  29
ATOM     29  C   UNL     1      -1.226  15.880  24.772  0.00  0.00    +0.000 C 
ATOM     30  O   UNL     1      -0.401  15.564  25.620  0.00  0.00    +0.000 OA
BRANCH  29  31
ATOM     31  O   UNL     1      -0.925  16.328  23.521  0.00  0.00    +0.000 OA
ATOM     32  C   UNL     1      -1.727  17.430  23.092  0.00  0.00    +0.000 C 
ENDBRANCH  29  31
ENDBRANCH  28  29
ENDBRANCH  27  28
ENDBRANCH  25  27
ENDBRANCH  19  23
BRANCH  18  34
ATOM     33  C   UNL     1      -1.917  14.149  20.503  0.00  0.00    +0.000 C 
ATOM     34  C   UNL     1      -2.470  12.739  20.480  0.00  0.00    +0.000 C 
ENDBRANCH  18  34
ENDBRANCH   1  22
BRANCH   1  35
ATOM     35  C   UNL     1      -1.361  10.403  18.323  0.00  0.00    +0.000 C 
ATOM     36  C   UNL     1      -1.787  11.500  17.356  0.00  0.00    +0.000 C 
ENDBRANCH   1  35
BRANCH   1  37
ATOM     37  C   UNL     1       0.475  12.095  18.815  0.00  0.00    +0.000 C 
ATOM     38  C   UNL     1       1.493  12.771  19.729  0.00  0.00    +0.000 C 
ENDBRANCH   1  37
TORSDOF 15
ENDMDL
MODEL 3
REMARK VINA RESULT:      -7.2      1.240      1.936
REMARK  Name = 
REMARK  22 active torsions:
REMARK  status: ('A' for Active; 'I' for Inactive)
REMARK    1  A    between atoms: C_1  and  C_2
REMARK    2  A    between atoms: C_2  and  N_3
REMARK    3  A    between atoms: C_4  and  C_5
REMARK    4  A    between atoms: N_7  and  C_8
REMARK    5  A    between atoms: C_8  and  C_9
REMARK    6  A    between atoms: C_9  and  C_10
REMARK    7  A    between atoms: C_10  and  O_12
REMARK    8  A    between atoms: O_12  and  C_13
REMARK    9  A    between atoms: C_16  and  C_17
REMARK   10  A    between atoms: C_17  and  C_18
REMARK   11  A    between atoms: C_17  and  C_20
REMARK   12  A    between atoms: C_17  and  C_22
REMARK   13  A    between atoms: C_18  and  C_19
REMARK   14  A    between atoms: C_20  and  C_21
REMARK   15  A    between atoms: C_25  and  C_26
REMARK   16  A    between atoms: C_27  and  C_28
REMARK   17  A    between atoms: C_28  and  O_29
REMARK   18  A    between atoms: C_28  and  C_30
REMARK   19  A    between atoms: C_28  and  C_32
REMARK   20  A    between atoms: C_30  and  C_31
REMARK   21  A    between atoms: C_32  and  C_33
REMARK   22  A    between atoms: C_34  and  C_35
REMARK                            x       y       z     vdW  Elec       q    Type
REMARK                         _______ _______ _______ _____ _____    ______ ____
ROOT
ATOM      1  C   UNL     1       0.056  11.329  19.452  0.00  0.00    +0.000 C 
ENDROOT
BRANCH   1   2
ATOM      2  C   UNL     1       1.010  10.097  19.254  0.00  0.00    +0.000 A 
ATOM      3  C   UNL     1       1.667   9.894  18.026  0.00  0.00    +0.000 A 
ATOM      4  C   UNL     1       2.245   8.652  17.702  0.00  0.00    +0.000 A 
ATOM      5  C   UNL     1       2.214   7.581  18.601  0.00  0.00    +0.000 A 
ATOM      6  C   UNL     1       1.677   7.785  19.877  0.00  0.00    +0.000 A 
ATOM      7  C   UNL     1       1.659   6.714  20.941  0.00  0.00    +0.000 C 
ATOM      8  C   UNL     1       1.096   9.040  20.188  0.00  0.00    +0.000 A 
BRANCH   5   9
ATOM      9  C   UNL     1       2.674   6.290  18.163  0.00  0.00    +0.000 C 
ATOM     10  C   UNL     1       3.044   5.190  17.836  0.00  0.00    +0.000 C 
BRANCH  10  11
ATOM     11  C   UNL     1       3.542   3.855  17.442  0.00  0.00    +0.000 C 
BRANCH  11  12
ATOM     12  O   UNL     1       2.480   3.083  16.881  0.00  0.00    +0.000 OA
ATOM     13  H   UNL     1       1.959   3.672  16.311  0.00  0.00    +0.000 HD
ENDBRANCH  11  12
BRANCH  11  14
ATOM     14  C   UNL     1       4.674   3.976  16.395  0.00  0.00    +0.000 C 
ATOM     15  C   UNL     1       5.877   4.803  16.847  0.00  0.00    +0.000 C 
ENDBRANCH  11  14
BRANCH  11  16
ATOM     16  C   UNL     1       4.059   3.103  18.689  0.00  0.00    +0.000 C 
ATOM     17  C   UNL     1       3.068   3.085  19.854  0.00  0.00    +0.000 C 
ENDBRANCH  11  16
ENDBRANCH  10  11
ENDBRANCH   5   9
ENDBRANCH   1   2
BRANCH   1  22
ATOM     18  N   UNL     1      -1.574  12.261  21.379  0.00  0.00    +0.000 N 
ATOM     19  C   UNL     1      -1.864  11.990  22.732  0.00  0.00    +0.000 A 
ATOM     20  C   UNL     1      -1.009  10.972  23.110  0.00  0.00    +0.000 A 
ATOM     21  C   UNL     1      -0.227  10.620  21.996  0.00  0.00    +0.000 A 
ATOM     22  C   UNL     1      -0.583  11.399  20.897  0.00  0.00    +0.000 A 
BRANCH  19  23
ATOM     23  C   UNL     1      -2.866  12.684  23.544  0.00  0.00    +0.000 C 
ATOM     24  O   UNL     1      -2.683  13.787  24.069  0.00  0.00    +0.000 OA
ATOM     25  N   UNL     1      -4.079  12.047  23.719  0.00  0.00    +0.000 N 
ATOM     26  H   UNL     1      -4.251  11.160  23.270  0.00  0.00    +0.000 HD
BRANCH  25  27
ATOM     27  C   UNL     1      -5.107  12.609  24.582  0.00  0.00    +0.000 C 
BRANCH  27  28
ATOM     28  C   UNL     1      -6.450  12.750  23.880  0.00  0.00    +0.000 C 
BRANCH  28  29
ATOM     29  C   UNL     1      -6.570  14.130  23.286  0.00  0.00    +0.000 C 
ATOM     30  O   UNL     1      -7.380  14.974  23.645  0.00  0.00    +0.000 OA
BRANCH  29  31
ATOM     31  O   UNL     1      -5.684  14.286  22.262  0.00  0.00    +0.000 OA
ATOM     32  C   UNL     1      -5.087  15.583  22.206  0.00  0.00    +0.000 C 
ENDBRANCH  29  31
ENDBRANCH  28  29
ENDBRANCH  27  28
ENDBRANCH  25  27
ENDBRANCH  19  23
BRANCH  18  34
ATOM     33  C   UNL     1      -1.520  14.683  20.847  0.00  0.00    +0.000 C 
ATOM     34  C   UNL     1      -2.222  13.353  20.667  0.00  0.00    +0.000 C 
ENDBRANCH  18  34
ENDBRANCH   1  22
BRANCH   1  35
ATOM     35  C   UNL     1      -1.035  11.406  18.323  0.00  0.00    +0.000 C 
ATOM     36  C   UNL     1      -1.996  10.232  18.190  0.00  0.00    +0.000 C 
ENDBRANCH   1  35
BRANCH   1  37
ATOM     37  C   UNL     1       0.979  12.624  19.292  0.00  0.00    +0.000 C 
ATOM     38  C   UNL     1       1.913  12.985  20.443  0.00  0.00    +0.000 C 
ENDBRANCH   1  37
TORSDOF 15
ENDMDL
MODEL 4
REMARK VINA RESULT:      -7.0      1.170      1.347
REMARK  Name = 
REMARK  22 active torsions:
REMARK  status: ('A' for Active; 'I' for Inactive)
REMARK    1  A    between atoms: C_1  and  C_2
REMARK    2  A    between atoms: C_2  and  N_3
REMARK    3  A    between atoms: C_4  and  C_5
REMARK    4  A    between atoms: N_7  and  C_8
REMARK    5  A    between atoms: C_8  and  C_9
REMARK    6  A    between atoms: C_9  and  C_10
REMARK    7  A    between atoms: C_10  and  O_12
REMARK    8  A    between atoms: O_12  and  C_13
REMARK    9  A    between atoms: C_16  and  C_17
REMARK   10  A    between atoms: C_17  and  C_18
REMARK   11  A    between atoms: C_17  and  C_20
REMARK   12  A    between atoms: C_17  and  C_22
REMARK   13  A    between atoms: C_18  and  C_19
REMARK   14  A    between atoms: C_20  and  C_21
REMARK   15  A    between atoms: C_25  and  C_26
REMARK   16  A    between atoms: C_27  and  C_28
REMARK   17  A    between atoms: C_28  and  O_29
REMARK   18  A    between atoms: C_28  and  C_30
REMARK   19  A    between atoms: C_28  and  C_32
REMARK   20  A    between atoms: C_30  and  C_31
REMARK   21  A    between atoms: C_32  and  C_33
REMARK   22  A    between atoms: C_34  and  C_35
REMARK                            x       y       z     vdW  Elec       q    Type
REMARK                         _______ _______ _______ _____ _____    ______ ____
ROOT
ATOM      1  C   UNL     1      -0.036  11.212  19.404  0.00  0.00    +0.000 C 
ENDROOT
BRANCH   1   2
ATOM      2  C   UNL     1       1.019  10.057  19.253  0.00  0.00    +0.000 A 
ATOM      3  C   UNL     1       1.793   9.948  18.082  0.00  0.00    +0.000 A 
ATOM      4  C   UNL     1       2.484   8.763  17.770  0.00  0.00    +0.000 A 
ATOM      5  C   UNL     1       2.452   7.658  18.626  0.00  0.00    +0.000 A 
ATOM      6  C   UNL     1       1.793   7.774  19.856  0.00  0.00    +0.000 A 
ATOM      7  C   UNL     1       1.760   6.663  20.877  0.00  0.00    +0.000 C 
ATOM      8  C   UNL     1       1.099   8.973  20.155  0.00  0.00    +0.000 A 
BRANCH   5   9
ATOM      9  C   UNL     1       3.040   6.420  18.189  0.00  0.00    +0.000 C 
ATOM     10  C   UNL     1       3.520   5.393  17.778  0.00  0.00    +0.000 C 
BRANCH  10  11
ATOM     11  C   UNL     1       4.073   4.110  17.293  0.00  0.00    +0.000 C 
BRANCH  11  12
ATOM     12  O   UNL     1       5.071   3.635  18.197  0.00  0.00    +0.000 OA
ATOM     13  H   UNL     1       5.897   4.104  17.995  0.00  0.00    +0.000 HD
ENDBRANCH  11  12
BRANCH  11  14
ATOM     14  C   UNL     1       2.962   3.041  17.174  0.00  0.00    +0.000 C 
ATOM     15  C   UNL     1       1.707   3.330  17.996  0.00  0.00    +0.000 C 
ENDBRANCH  11  14
BRANCH  11  16
ATOM     16  C   UNL     1       4.749   4.320  15.919  0.00  0.00    +0.000 C 
ATOM     17  C   UNL     1       6.272   4.176  15.952  0.00  0.00    +0.000 C 
ENDBRANCH  11  16
ENDBRANCH  10  11
ENDBRANCH   5   9
ENDBRANCH   1   2
BRANCH   1  22
ATOM     18  N   UNL     1      -1.715  12.105  21.309  0.00  0.00    +0.000 N 
ATOM     19  C   UNL     1      -1.986  11.857  22.670  0.00  0.00    +0.000 A 
ATOM     20  C   UNL     1      -1.071  10.904  23.075  0.00  0.00    +0.000 A 
ATOM     21  C   UNL     1      -0.272  10.565  21.970  0.00  0.00    +0.000 A 
ATOM     22  C   UNL     1      -0.675  11.288  20.849  0.00  0.00    +0.000 A 
BRANCH  19  23
ATOM     23  C   UNL     1      -3.026  12.516  23.464  0.00  0.00    +0.000 C 
ATOM     24  O   UNL     1      -4.108  11.994  23.750  0.00  0.00    +0.000 OA
ATOM     25  N   UNL     1      -2.757  13.797  23.906  0.00  0.00    +0.000 N 
ATOM     26  H   UNL     1      -1.864  14.222  23.704  0.00  0.00    +0.000 HD
BRANCH  25  27
ATOM     27  C   UNL     1      -3.758  14.571  24.624  0.00  0.00    +0.000 C 
BRANCH  27  28
ATOM     28  C   UNL     1      -4.449  15.600  23.740  0.00  0.00    +0.000 C 
BRANCH  28  29
ATOM     29  C   UNL     1      -5.820  15.103  23.360  0.00  0.00    +0.000 C 
ATOM     30  O   UNL     1      -6.797  15.127  24.096  0.00  0.00    +0.000 OA
BRANCH  29  31
ATOM     31  O   UNL     1      -5.805  14.581  22.101  0.00  0.00    +0.000 OA
ATOM     32  C   UNL     1      -6.941  13.770  21.797  0.00  0.00    +0.000 C 
ENDBRANCH  29  31
ENDBRANCH  28  29
ENDBRANCH  27  28
ENDBRANCH  25  27
ENDBRANCH  19  23
BRANCH  18  34
ATOM     33  C   UNL     1      -3.771  12.670  20.042  0.00  0.00    +0.000 C 
ATOM     34  C   UNL     1      -2.427  13.134  20.566  0.00  0.00    +0.000 C 
ENDBRANCH  18  34
ENDBRANCH   1  22
BRANCH   1  35
ATOM     35  C   UNL     1      -1.131  11.150  18.280  0.00  0.00    +0.000 C 
ATOM     36  C   UNL     1      -1.992   9.897  18.202  0.00  0.00    +0.000 C 
ENDBRANCH   1  35
BRANCH   1  37
ATOM     37  C   UNL     1       0.775  12.572  19.186  0.00  0.00    +0.000 C 
ATOM     38  C   UNL     1       0.165  13.631  18.273  0.00  0.00    +0.000 C 
ENDBRANCH   1  37
TORSDOF 15
ENDMDL
MODEL 5
REMARK VINA RESULT:      -7.0      1.730      3.045
REMARK  Name = 
REMARK  22 active torsions:
REMARK  status: ('A' for Active; 'I' for Inactive)
REMARK    1  A    between atoms: C_1  and  C_2
REMARK    2  A    between atoms: C_2  and  N_3
REMARK    3  A    between atoms: C_4  and  C_5
REMARK    4  A    between atoms: N_7  and  C_8
REMARK    5  A    between atoms: C_8  and  C_9
REMARK    6  A    between atoms: C_9  and  C_10
REMARK    7  A    between atoms: C_10  and  O_12
REMARK    8  A    between atoms: O_12  and  C_13
REMARK    9  A    between atoms: C_16  and  C_17
REMARK   10  A    between atoms: C_17  and  C_18
REMARK   11  A    between atoms: C_17  and  C_20
REMARK   12  A    between atoms: C_17  and  C_22
REMARK   13  A    between atoms: C_18  and  C_19
REMARK   14  A    between atoms: C_20  and  C_21
REMARK   15  A    between atoms: C_25  and  C_26
REMARK   16  A    between atoms: C_27  and  C_28
REMARK   17  A    between atoms: C_28  and  O_29
REMARK   18  A    between atoms: C_28  and  C_30
REMARK   19  A    between atoms: C_28  and  C_32
REMARK   20  A    between atoms: C_30  and  C_31
REMARK   21  A    between atoms: C_32  and  C_33
REMARK   22  A    between atoms: C_34  and  C_35
REMARK                            x       y       z     vdW  Elec       q    Type
REMARK                         _______ _______ _______ _____ _____    ______ ____
ROOT
ATOM      1  C   UNL     1      -0.496  10.839  19.280  0.00  0.00    +0.000 C 
ENDROOT
BRANCH   1   2
ATOM      2  C   UNL     1       0.726   9.865  19.127  0.00  0.00    +0.000 A 
ATOM      3  C   UNL     1       1.546   9.925  17.984  0.00  0.00    +0.000 A 
ATOM      4  C   UNL     1       2.420   8.873  17.655  0.00  0.00    +0.000 A 
ATOM      5  C   UNL     1       2.530   7.740  18.468  0.00  0.00    +0.000 A 
ATOM      6  C   UNL     1       1.821   7.702  19.674  0.00  0.00    +0.000 A 
ATOM      7  C   UNL     1       1.925   6.557  20.652  0.00  0.00    +0.000 C 
ATOM      8  C   UNL     1       0.942   8.769  19.991  0.00  0.00    +0.000 A 
BRANCH   5   9
ATOM      9  C   UNL     1       3.314   6.625  18.007  0.00  0.00    +0.000 C 
ATOM     10  C   UNL     1       3.989   5.686  17.665  0.00  0.00    +0.000 C 
BRANCH  10  11
ATOM     11  C   UNL     1       4.844   4.564  17.221  0.00  0.00    +0.000 C 
BRANCH  11  12
ATOM     12  O   UNL     1       5.218   4.745  15.856  0.00  0.00    +0.000 OA
ATOM     13  H   UNL     1       5.249   5.701  15.684  0.00  0.00    +0.000 HD
ENDBRANCH  11  12
BRANCH  11  14
ATOM     14  C   UNL     1       6.127   4.477  18.080  0.00  0.00    +0.000 C 
ATOM     15  C   UNL     1       7.430   4.657  17.302  0.00  0.00    +0.000 C 
ENDBRANCH  11  14
BRANCH  11  16
ATOM     16  C   UNL     1       4.057   3.238  17.319  0.00  0.00    +0.000 C 
ATOM     17  C   UNL     1       3.667   2.856  18.748  0.00  0.00    +0.000 C 
ENDBRANCH  11  16
ENDBRANCH  10  11
ENDBRANCH   5   9
ENDBRANCH   1   2
BRANCH   1  22
ATOM     18  N   UNL     1      -1.941  11.889  21.294  0.00  0.00    +0.000 N 
ATOM     19  C   UNL     1      -1.962  11.850  22.703  0.00  0.00    +0.000 A 
ATOM     20  C   UNL     1      -0.891  11.062  23.080  0.00  0.00    +0.000 A 
ATOM     21  C   UNL     1      -0.244  10.613  21.916  0.00  0.00    +0.000 A 
ATOM     22  C   UNL     1      -0.902  11.101  20.787  0.00  0.00    +0.000 A 
BRANCH  19  23
ATOM     23  C   UNL     1      -2.930  12.539  23.559  0.00  0.00    +0.000 C 
ATOM     24  O   UNL     1      -3.973  12.023  23.973  0.00  0.00    +0.000 OA
ATOM     25  N   UNL     1      -2.637  13.843  23.910  0.00  0.00    +0.000 N 
ATOM     26  H   UNL     1      -1.773  14.264  23.603  0.00  0.00    +0.000 HD
BRANCH  25  27
ATOM     27  C   UNL     1      -3.576  14.644  24.681  0.00  0.00    +0.000 C 
BRANCH  27  28
ATOM     28  C   UNL     1      -2.925  15.868  25.310  0.00  0.00    +0.000 C 
BRANCH  28  29
ATOM     29  C   UNL     1      -1.508  16.001  24.817  0.00  0.00    +0.000 C 
ATOM     30  O   UNL     1      -0.520  15.612  25.426  0.00  0.00    +0.000 OA
BRANCH  29  31
ATOM     31  O   UNL     1      -1.479  16.656  23.622  0.00  0.00    +0.000 OA
ATOM     32  C   UNL     1      -0.321  16.374  22.835  0.00  0.00    +0.000 C 
ENDBRANCH  29  31
ENDBRANCH  28  29
ENDBRANCH  27  28
ENDBRANCH  25  27
ENDBRANCH  19  23
BRANCH  18  34
ATOM     33  C   UNL     1      -2.497  14.179  20.522  0.00  0.00    +0.000 C 
ATOM     34  C   UNL     1      -2.877  12.713  20.541  0.00  0.00    +0.000 C 
ENDBRANCH  18  34
ENDBRANCH   1  22
BRANCH   1  35
ATOM     35  C   UNL     1      -1.722  10.374  18.415  0.00  0.00    +0.000 C 
ATOM     36  C   UNL     1      -2.120  11.245  17.231  0.00  0.00    +0.000 C 
ENDBRANCH   1  35
BRANCH   1  37
ATOM     37  C   UNL     1      -0.014  12.241  18.683  0.00  0.00    +0.000 C 
ATOM     38  C   UNL     1       0.858  13.133  19.563  0.00  0.00    +0.000 C 
ENDBRANCH   1  37
TORSDOF 15
ENDMDL
MODEL 6
REMARK VINA RESULT:      -6.8      1.191      1.717
REMARK  Name = 
REMARK  22 active torsions:
REMARK  status: ('A' for Active; 'I' for Inactive)
REMARK    1  A    between atoms: C_1  and  C_2
REMARK    2  A    between atoms: C_2  and  N_3
REMARK    3  A    between atoms: C_4  and  C_5
REMARK    4  A    between atoms: N_7  and  C_8
REMARK    5  A    between atoms: C_8  and  C_9
REMARK    6  A    between atoms: C_9  and  C_10
REMARK    7  A    between atoms: C_10  and  O_12
REMARK    8  A    between atoms: O_12  and  C_13
REMARK    9  A    between atoms: C_16  and  C_17
REMARK   10  A    between atoms: C_17  and  C_18
REMARK   11  A    between atoms: C_17  and  C_20
REMARK   12  A    between atoms: C_17  and  C_22
REMARK   13  A    between atoms: C_18  and  C_19
REMARK   14  A    between atoms: C_20  and  C_21
REMARK   15  A    between atoms: C_25  and  C_26
REMARK   16  A    between atoms: C_27  and  C_28
REMARK   17  A    between atoms: C_28  and  O_29
REMARK   18  A    between atoms: C_28  and  C_30
REMARK   19  A    between atoms: C_28  and  C_32
REMARK   20  A    between atoms: C_30  and  C_31
REMARK   21  A    between atoms: C_32  and  C_33
REMARK   22  A    between atoms: C_34  and  C_35
REMARK                            x       y       z     vdW  Elec       q    Type
REMARK                         _______ _______ _______ _____ _____    ______ ____
ROOT
ATOM      1  C   UNL     1      -0.368  11.037  19.397  0.00  0.00    +0.000 C 
ENDROOT
BRANCH   1   2
ATOM      2  C   UNL     1       0.744   9.939  19.242  0.00  0.00    +0.000 A 
ATOM      3  C   UNL     1       1.446   9.802  18.029  0.00  0.00    +0.000 A 
ATOM      4  C   UNL     1       2.188   8.641  17.740  0.00  0.00    +0.000 A 
ATOM      5  C   UNL     1       2.281   7.593  18.661  0.00  0.00    +0.000 A 
ATOM      6  C   UNL     1       1.697   7.747  19.923  0.00  0.00    +0.000 A 
ATOM      7  C   UNL     1       1.800   6.702  21.008  0.00  0.00    +0.000 C 
ATOM      8  C   UNL     1       0.950   8.920  20.198  0.00  0.00    +0.000 A 
BRANCH   5   9
ATOM      9  C   UNL     1       2.915   6.366  18.257  0.00  0.00    +0.000 C 
ATOM     10  C   UNL     1       3.409   5.314  17.933  0.00  0.00    +0.000 C 
BRANCH  10  11
ATOM     11  C   UNL     1       4.043   4.028  17.573  0.00  0.00    +0.000 C 
BRANCH  11  12
ATOM     12  O   UNL     1       4.768   4.166  16.351  0.00  0.00    +0.000 OA
ATOM     13  H   UNL     1       4.122   4.309  15.640  0.00  0.00    +0.000 HD
ENDBRANCH  11  12
BRANCH  11  14
ATOM     14  C   UNL     1       5.018   3.565  18.680  0.00  0.00    +0.000 C 
ATOM     15  C   UNL     1       4.440   2.537  19.652  0.00  0.00    +0.000 C 
ENDBRANCH  11  14
BRANCH  11  16
ATOM     16  C   UNL     1       2.953   2.954  17.351  0.00  0.00    +0.000 C 
ATOM     17  C   UNL     1       1.580   3.346  17.899  0.00  0.00    +0.000 C 
ENDBRANCH  11  16
ENDBRANCH  10  11
ENDBRANCH   5   9
ENDBRANCH   1   2
BRANCH   1  22
ATOM     18  N   UNL     1      -1.862  12.062  21.387  0.00  0.00    +0.000 N 
ATOM     19  C   UNL     1      -2.003  11.909  22.781  0.00  0.00    +0.000 A 
ATOM     20  C   UNL     1      -1.051  10.983  23.162  0.00  0.00    +0.000 A 
ATOM     21  C   UNL     1      -0.357  10.567  22.012  0.00  0.00    +0.000 A 
ATOM     22  C   UNL     1      -0.868  11.213  20.887  0.00  0.00    +0.000 A 
BRANCH  19  23
ATOM     23  C   UNL     1      -2.965  12.623  23.623  0.00  0.00    +0.000 C 
ATOM     24  O   UNL     1      -2.757  13.736  24.116  0.00  0.00    +0.000 OA
ATOM     25  N   UNL     1      -4.170  11.991  23.868  0.00  0.00    +0.000 N 
ATOM     26  H   UNL     1      -4.363  11.096  23.446  0.00  0.00    +0.000 HD
BRANCH  25  27
ATOM     27  C   UNL     1      -5.156  12.574  24.765  0.00  0.00    +0.000 C 
BRANCH  27  28
ATOM     28  C   UNL     1      -6.528  12.711  24.120  0.00  0.00    +0.000 C 
BRANCH  28  29
ATOM     29  C   UNL     1      -6.821  14.165  23.853  0.00  0.00    +0.000 C 
ATOM     30  O   UNL     1      -7.915  14.692  24.004  0.00  0.00    +0.000 OA
BRANCH  29  31
ATOM     31  O   UNL     1      -5.711  14.794  23.376  0.00  0.00    +0.000 OA
ATOM     32  C   UNL     1      -5.525  16.113  23.893  0.00  0.00    +0.000 C 
ENDBRANCH  29  31
ENDBRANCH  28  29
ENDBRANCH  27  28
ENDBRANCH  25  27
ENDBRANCH  19  23
BRANCH  18  34
ATOM     33  C   UNL     1      -2.064  14.438  20.705  0.00  0.00    +0.000 C 
ATOM     34  C   UNL     1      -2.646  13.041  20.646  0.00  0.00    +0.000 C 
ENDBRANCH  18  34
ENDBRANCH   1  22
BRANCH   1  35
ATOM     35  C   UNL     1      -1.560  10.803  18.401  0.00  0.00    +0.000 C 
ATOM     36  C   UNL     1      -1.783  11.843  17.312  0.00  0.00    +0.000 C 
ENDBRANCH   1  35
BRANCH   1  37
ATOM     37  C   UNL     1       0.322  12.416  18.976  0.00  0.00    +0.000 C 
ATOM     38  C   UNL     1       1.393  12.993  19.898  0.00  0.00    +0.000 C 
ENDBRANCH   1  37
TORSDOF 15
ENDMDL
MODEL 7
REMARK VINA RESULT:      -6.8      1.417      2.035
REMARK  Name = 
REMARK  22 active torsions:
REMARK  status: ('A' for Active; 'I' for Inactive)
REMARK    1  A    between atoms: C_1  and  C_2
REMARK    2  A    between atoms: C_2  and  N_3
REMARK    3  A    between atoms: C_4  and  C_5
REMARK    4  A    between atoms: N_7  and  C_8
REMARK    5  A    between atoms: C_8  and  C_9
REMARK    6  A    between atoms: C_9  and  C_10
REMARK    7  A    between atoms: C_10  and  O_12
REMARK    8  A    between atoms: O_12  and  C_13
REMARK    9  A    between atoms: C_16  and  C_17
REMARK   10  A    between atoms: C_17  and  C_18
REMARK   11  A    between atoms: C_17  and  C_20
REMARK   12  A    between atoms: C_17  and  C_22
REMARK   13  A    between atoms: C_18  and  C_19
REMARK   14  A    between atoms: C_20  and  C_21
REMARK   15  A    between atoms: C_25  and  C_26
REMARK   16  A    between atoms: C_27  and  C_28
REMARK   17  A    between atoms: C_28  and  O_29
REMARK   18  A    between atoms: C_28  and  C_30
REMARK   19  A    between atoms: C_28  and  C_32
REMARK   20  A    between atoms: C_30  and  C_31
REMARK   21  A    between atoms: C_32  and  C_33
REMARK   22  A    between atoms: C_34  and  C_35
REMARK                            x       y       z     vdW  Elec       q    Type
REMARK                         _______ _______ _______ _____ _____    ______ ____
ROOT
ATOM      1  C   UNL     1       0.105  11.242  19.406  0.00  0.00    +0.000 C 
ENDROOT
BRANCH   1   2
ATOM      2  C   UNL     1       1.062  10.007  19.239  0.00  0.00    +0.000 A 
ATOM      3  C   UNL     1       1.739   9.789  18.024  0.00  0.00    +0.000 A 
ATOM      4  C   UNL     1       2.320   8.544  17.723  0.00  0.00    +0.000 A 
ATOM      5  C   UNL     1       2.273   7.483  18.634  0.00  0.00    +0.000 A 
ATOM      6  C   UNL     1       1.715   7.702  19.899  0.00  0.00    +0.000 A 
ATOM      7  C   UNL     1       1.678   6.642  20.973  0.00  0.00    +0.000 C 
ATOM      8  C   UNL     1       1.131   8.961  20.186  0.00  0.00    +0.000 A 
BRANCH   5   9
ATOM      9  C   UNL     1       2.739   6.187  18.218  0.00  0.00    +0.000 C 
ATOM     10  C   UNL     1       3.119   5.112  17.825  0.00  0.00    +0.000 C 
BRANCH  10  11
ATOM     11  C   UNL     1       3.547   3.774  17.361  0.00  0.00    +0.000 C 
BRANCH  11  12
ATOM     12  O   UNL     1       2.436   3.074  16.801  0.00  0.00    +0.000 OA
ATOM     13  H   UNL     1       1.627   3.511  17.111  0.00  0.00    +0.000 HD
ENDBRANCH  11  12
BRANCH  11  14
ATOM     14  C   UNL     1       4.653   3.892  16.287  0.00  0.00    +0.000 C 
ATOM     15  C   UNL     1       5.893   4.669  16.729  0.00  0.00    +0.000 C 
ENDBRANCH  11  14
BRANCH  11  16
ATOM     16  C   UNL     1       4.065   2.948  18.560  0.00  0.00    +0.000 C 
ATOM     17  C   UNL     1       3.176   3.038  19.802  0.00  0.00    +0.000 C 
ENDBRANCH  11  16
ENDBRANCH  10  11
ENDBRANCH   5   9
ENDBRANCH   1   2
BRANCH   1  22
ATOM     18  N   UNL     1      -1.600  12.163  21.274  0.00  0.00    +0.000 N 
ATOM     19  C   UNL     1      -1.928  11.897  22.619  0.00  0.00    +0.000 A 
ATOM     20  C   UNL     1      -1.069  10.896  23.032  0.00  0.00    +0.000 A 
ATOM     21  C   UNL     1      -0.246  10.548  21.947  0.00  0.00    +0.000 A 
ATOM     22  C   UNL     1      -0.580  11.313  20.830  0.00  0.00    +0.000 A 
BRANCH  19  23
ATOM     23  C   UNL     1      -2.966  12.581  23.393  0.00  0.00    +0.000 C 
ATOM     24  O   UNL     1      -3.995  12.033  23.801  0.00  0.00    +0.000 OA
ATOM     25  N   UNL     1      -2.759  13.919  23.670  0.00  0.00    +0.000 N 
ATOM     26  H   UNL     1      -1.908  14.369  23.368  0.00  0.00    +0.000 HD
BRANCH  25  27
ATOM     27  C   UNL     1      -3.770  14.712  24.352  0.00  0.00    +0.000 C 
BRANCH  27  28
ATOM     28  C   UNL     1      -4.553  15.609  23.404  0.00  0.00    +0.000 C 
BRANCH  28  29
ATOM     29  C   UNL     1      -6.024  15.520  23.719  0.00  0.00    +0.000 C 
ATOM     30  O   UNL     1      -6.703  16.448  24.137  0.00  0.00    +0.000 OA
BRANCH  29  31
ATOM     31  O   UNL     1      -6.477  14.250  23.520  0.00  0.00    +0.000 OA
ATOM     32  C   UNL     1      -6.621  13.896  22.143  0.00  0.00    +0.000 C 
ENDBRANCH  29  31
ENDBRANCH  28  29
ENDBRANCH  27  28
ENDBRANCH  25  27
ENDBRANCH  19  23
BRANCH  18  34
ATOM     33  C   UNL     1      -3.653  12.903  20.096  0.00  0.00    +0.000 C 
ATOM     34  C   UNL     1      -2.242  13.239  20.532  0.00  0.00    +0.000 C 
ENDBRANCH  18  34
ENDBRANCH   1  22
BRANCH   1  35
ATOM     35  C   UNL     1      -0.948  11.324  18.243  0.00  0.00    +0.000 C 
ATOM     36  C   UNL     1      -1.918  10.160  18.087  0.00  0.00    +0.000 C 
ENDBRANCH   1  35
BRANCH   1  37
ATOM     37  C   UNL     1       1.037  12.534  19.278  0.00  0.00    +0.000 C 
ATOM     38  C   UNL     1       1.778  13.010  20.524  0.00  0.00    +0.000 C 
ENDBRANCH   1  37
TORSDOF 15
ENDMDL
MODEL 8
REMARK VINA RESULT:      -6.6      4.070     12.058
REMARK  Name = 
REMARK  22 active torsions:
REMARK  status: ('A' for Active; 'I' for Inactive)
REMARK    1  A    between atoms: C_1  and  C_2
REMARK    2  A    between atoms: C_2  and  N_3
REMARK    3  A    between atoms: C_4  and  C_5
REMARK    4  A    between atoms: N_7  and  C_8
REMARK    5  A    between atoms: C_8  and  C_9
REMARK    6  A    between atoms: C_9  and  C_10
REMARK    7  A    between atoms: C_10  and  O_12
REMARK    8  A    between atoms: O_12  and  C_13
REMARK    9  A    between atoms: C_16  and  C_17
REMARK   10  A    between atoms: C_17  and  C_18
REMARK   11  A    between atoms: C_17  and  C_20
REMARK   12  A    between atoms: C_17  and  C_22
REMARK   13  A    between atoms: C_18  and  C_19
REMARK   14  A    between atoms: C_20  and  C_21
REMARK   15  A    between atoms: C_25  and  C_26
REMARK   16  A    between atoms: C_27  and  C_28
REMARK   17  A    between atoms: C_28  and  O_29
REMARK   18  A    between atoms: C_28  and  C_30
REMARK   19  A    between atoms: C_28  and  C_32
REMARK   20  A    between atoms: C_30  and  C_31
REMARK   21  A    between atoms: C_32  and  C_33
REMARK   22  A    between atoms: C_34  and  C_35
REMARK                            x       y       z     vdW  Elec       q    Type
REMARK                         _______ _______ _______ _____ _____    ______ ____
ROOT
ATOM      1  C   UNL     1       2.638   4.431  19.375  0.00  0.00    +0.000 C 
ENDROOT
BRANCH   1   2
ATOM      2  C   UNL     1       2.392   5.956  19.663  0.00  0.00    +0.000 A 
ATOM      3  C   UNL     1       1.888   6.374  20.909  0.00  0.00    +0.000 A 
ATOM      4  C   UNL     1       1.345   7.660  21.085  0.00  0.00    +0.000 A 
ATOM      5  C   UNL     1       1.311   8.582  20.034  0.00  0.00    +0.000 A 
ATOM      6  C   UNL     1       1.913   8.243  18.817  0.00  0.00    +0.000 A 
ATOM      7  C   UNL     1       1.989   9.193  17.646  0.00  0.00    +0.000 C 
ATOM      8  C   UNL     1       2.454   6.943  18.654  0.00  0.00    +0.000 A 
BRANCH   5   9
ATOM      9  C   UNL     1       0.603   9.821  20.217  0.00  0.00    +0.000 C 
ATOM     10  C   UNL     1       0.029  10.863  20.413  0.00  0.00    +0.000 C 
BRANCH  10  11
ATOM     11  C   UNL     1      -0.716  12.117  20.659  0.00  0.00    +0.000 C 
BRANCH  11  12
ATOM     12  O   UNL     1       0.189  13.220  20.712  0.00  0.00    +0.000 OA
ATOM     13  H   UNL     1       1.069  12.868  20.926  0.00  0.00    +0.000 HD
ENDBRANCH  11  12
BRANCH  11  14
ATOM     14  C   UNL     1      -1.746  12.375  19.534  0.00  0.00    +0.000 C 
ATOM     15  C   UNL     1      -1.177  12.304  18.118  0.00  0.00    +0.000 C 
ENDBRANCH  11  14
BRANCH  11  16
ATOM     16  C   UNL     1      -1.437  12.037  22.023  0.00  0.00    +0.000 C 
ATOM     17  C   UNL     1      -1.066  13.168  22.985  0.00  0.00    +0.000 C 
ENDBRANCH  11  16
ENDBRANCH  10  11
ENDBRANCH   5   9
ENDBRANCH   1   2
BRANCH   1  22
ATOM     18  N   UNL     1       4.727   4.591  17.686  0.00  0.00    +0.000 N 
ATOM     19  C   UNL     1       5.071   4.139  16.396  0.00  0.00    +0.000 A 
ATOM     20  C   UNL     1       3.964   3.464  15.919  0.00  0.00    +0.000 A 
ATOM     21  C   UNL     1       2.972   3.489  16.913  0.00  0.00    +0.000 A 
ATOM     22  C   UNL     1       3.439   4.170  18.037  0.00  0.00    +0.000 A 
BRANCH  19  23
ATOM     23  C   UNL     1       6.351   4.377  15.724  0.00  0.00    +0.000 C 
ATOM     24  O   UNL     1       7.436   4.436  16.311  0.00  0.00    +0.000 OA
ATOM     25  N   UNL     1       6.315   4.543  14.353  0.00  0.00    +0.000 N 
ATOM     26  H   UNL     1       5.439   4.466  13.860  0.00  0.00    +0.000 HD
BRANCH  25  27
ATOM     27  C   UNL     1       7.517   4.874  13.603  0.00  0.00    +0.000 C 
BRANCH  27  28
ATOM     28  C   UNL     1       7.358   4.647  12.107  0.00  0.00    +0.000 C 
BRANCH  28  29
ATOM     29  C   UNL     1       6.516   3.421  11.865  0.00  0.00    +0.000 C 
ATOM     30  O   UNL     1       5.306   3.364  12.037  0.00  0.00    +0.000 OA
BRANCH  29  31
ATOM     31  O   UNL     1       7.298   2.375  11.479  0.00  0.00    +0.000 OA
ATOM     32  C   UNL     1       6.561   1.230  11.044  0.00  0.00    +0.000 C 
ENDBRANCH  29  31
ENDBRANCH  28  29
ENDBRANCH  27  28
ENDBRANCH  25  27
ENDBRANCH  19  23
BRANCH  18  34
ATOM     33  C   UNL     1       5.766   6.833  17.902  0.00  0.00    +0.000 C 
ATOM     34  C   UNL     1       5.626   5.433  18.463  0.00  0.00    +0.000 C 
ENDBRANCH  18  34
ENDBRANCH   1  22
BRANCH   1  35
ATOM     35  C   UNL     1       1.302   3.607  19.431  0.00  0.00    +0.000 C 
ATOM     36  C   UNL     1       0.898   3.009  20.771  0.00  0.00    +0.000 C 
ENDBRANCH   1  35
BRANCH   1  37
ATOM     37  C   UNL     1       3.556   3.905  20.573  0.00  0.00    +0.000 C 
ATOM     38  C   UNL     1       4.234   2.547  20.413  0.00  0.00    +0.000 C 
ENDBRANCH   1  37
TORSDOF 15
ENDMDL
MODEL 9
REMARK VINA RESULT:      -6.6      1.048      1.601
REMARK  Name = 
REMARK  22 active torsions:
REMARK  status: ('A' for Active; 'I' for Inactive)
REMARK    1  A    between atoms: C_1  and  C_2
REMARK    2  A    between atoms: C_2  and  N_3
REMARK    3  A    between atoms: C_4  and  C_5
REMARK    4  A    between atoms: N_7  and  C_8
REMARK    5  A    between atoms: C_8  and  C_9
REMARK    6  A    between atoms: C_9  and  C_10
REMARK    7  A    between atoms: C_10  and  O_12
REMARK    8  A    between atoms: O_12  and  C_13
REMARK    9  A    between atoms: C_16  and  C_17
REMARK   10  A    between atoms: C_17  and  C_18
REMARK   11  A    between atoms: C_17  and  C_20
REMARK   12  A    between atoms: C_17  and  C_22
REMARK   13  A    between atoms: C_18  and  C_19
REMARK   14  A    between atoms: C_20  and  C_21
REMARK   15  A    between atoms: C_25  and  C_26
REMARK   16  A    between atoms: C_27  and  C_28
REMARK   17  A    between atoms: C_28  and  O_29
REMARK   18  A    between atoms: C_28  and  C_30
REMARK   19  A    between atoms: C_28  and  C_32
REMARK   20  A    between atoms: C_30  and  C_31
REMARK   21  A    between atoms: C_32  and  C_33
REMARK   22  A    between atoms: C_34  and  C_35
REMARK                            x       y       z     vdW  Elec       q    Type
REMARK                         _______ _______ _______ _____ _____    ______ ____
ROOT
ATOM      1  C   UNL     1      -0.440  10.888  19.263  0.00  0.00    +0.000 C 
ENDROOT
BRANCH   1   2
ATOM      2  C   UNL     1       0.766   9.888  19.156  0.00  0.00    +0.000 A 
ATOM      3  C   UNL     1       1.620   9.919  18.038  0.00  0.00    +0.000 A 
ATOM      4  C   UNL     1       2.482   8.845  17.746  0.00  0.00    +0.000 A 
ATOM      5  C   UNL     1       2.545   7.720  18.574  0.00  0.00    +0.000 A 
ATOM      6  C   UNL     1       1.800   7.709  19.758  0.00  0.00    +0.000 A 
ATOM      7  C   UNL     1       1.851   6.573  20.750  0.00  0.00    +0.000 C 
ATOM      8  C   UNL     1       0.934   8.796  20.037  0.00  0.00    +0.000 A 
BRANCH   5   9
ATOM      9  C   UNL     1       3.320   6.584  18.148  0.00  0.00    +0.000 C 
ATOM     10  C   UNL     1       4.006   5.661  17.788  0.00  0.00    +0.000 C 
BRANCH  10  11
ATOM     11  C   UNL     1       4.826   4.529  17.304  0.00  0.00    +0.000 C 
BRANCH  11  12
ATOM     12  O   UNL     1       4.031   3.345  17.237  0.00  0.00    +0.000 OA
ATOM     13  H   UNL     1       4.362   2.811  16.496  0.00  0.00    +0.000 HD
ENDBRANCH  11  12
BRANCH  11  14
ATOM     14  C   UNL     1       5.397   4.824  15.898  0.00  0.00    +0.000 C 
ATOM     15  C   UNL     1       5.254   6.275  15.442  0.00  0.00    +0.000 C 
ENDBRANCH  11  14
BRANCH  11  16
ATOM     16  C   UNL     1       5.981   4.261  18.295  0.00  0.00    +0.000 C 
ATOM     17  C   UNL     1       6.972   5.420  18.415  0.00  0.00    +0.000 C 
ENDBRANCH  11  16
ENDBRANCH  10  11
ENDBRANCH   5   9
ENDBRANCH   1   2
BRANCH   1  22
ATOM     18  N   UNL     1      -1.867  12.044  21.231  0.00  0.00    +0.000 N 
ATOM     19  C   UNL     1      -2.002  11.940  22.630  0.00  0.00    +0.000 A 
ATOM     20  C   UNL     1      -1.092  10.982  23.033  0.00  0.00    +0.000 A 
ATOM     21  C   UNL     1      -0.430  10.498  21.891  0.00  0.00    +0.000 A 
ATOM     22  C   UNL     1      -0.918  11.133  20.751  0.00  0.00    +0.000 A 
BRANCH  19  23
ATOM     23  C   UNL     1      -2.922  12.725  23.457  0.00  0.00    +0.000 C 
ATOM     24  O   UNL     1      -2.582  13.711  24.118  0.00  0.00    +0.000 OA
ATOM     25  N   UNL     1      -4.241  12.317  23.483  0.00  0.00    +0.000 N 
ATOM     26  H   UNL     1      -4.536  11.531  22.923  0.00  0.00    +0.000 HD
BRANCH  25  27
ATOM     27  C   UNL     1      -5.215  12.972  24.343  0.00  0.00    +0.000 C 
BRANCH  27  28
ATOM     28  C   UNL     1      -6.643  12.527  24.060  0.00  0.00    +0.000 C 
BRANCH  28  29
ATOM     29  C   UNL     1      -7.367  13.602  23.291  0.00  0.00    +0.000 C 
ATOM     30  O   UNL     1      -7.804  13.471  22.156  0.00  0.00    +0.000 OA
BRANCH  29  31
ATOM     31  O   UNL     1      -7.422  14.753  24.019  0.00  0.00    +0.000 OA
ATOM     32  C   UNL     1      -7.471  15.939  23.224  0.00  0.00    +0.000 C 
ENDBRANCH  29  31
ENDBRANCH  28  29
ENDBRANCH  27  28
ENDBRANCH  25  27
ENDBRANCH  19  23
BRANCH  18  34
ATOM     33  C   UNL     1      -2.062  14.440  20.620  0.00  0.00    +0.000 C 
ATOM     34  C   UNL     1      -2.609  13.036  20.466  0.00  0.00    +0.000 C 
ENDBRANCH  18  34
ENDBRANCH   1  22
BRANCH   1  35
ATOM     35  C   UNL     1      -1.629  10.466  18.326  0.00  0.00    +0.000 C 
ATOM     36  C   UNL     1      -2.150  11.502  17.339  0.00  0.00    +0.000 C 
ENDBRANCH   1  35
BRANCH   1  37
ATOM     37  C   UNL     1       0.105  12.287  18.717  0.00  0.00    +0.000 C 
ATOM     38  C   UNL     1       1.156  13.020  19.546  0.00  0.00    +0.000 C 
ENDBRANCH   1  37
TORSDOF 15
ENDMDL
