MODEL 1
REMARK VINA RESULT:      -7.6      0.000      0.000
REMARK  Name = 
REMARK  4 active torsions:
REMARK  status: ('A' for Active; 'I' for Inactive)
REMARK    1  A    between atoms: C_1  and  C_2
REMARK    2  A    between atoms: C_2  and  C_3
REMARK    3  A    between atoms: C_14  and  S_15
REMARK    4  A    between atoms: S_15  and  C_16
REMARK                            x       y       z     vdW  Elec       q    Type
REMARK                         _______ _______ _______ _____ _____    ______ ____
ROOT
ATOM      1  C   UNL     1       6.996   6.507  17.091  0.00  0.00    +0.000 C 
ATOM      2  N   UNL     1       7.557   5.760  16.202  0.00  0.00    +0.000 NA
ATOM      3  C   UNL     1       6.832   5.130  15.178  0.00  0.00    +0.000 A 
ATOM      4  C   UNL     1       7.496   5.024  13.945  0.00  0.00    +0.000 A 
ATOM      5  C   UNL     1       6.933   4.331  12.876  0.00  0.00    +0.000 A 
ATOM      6  C   UNL     1       5.694   3.725  13.033  0.00  0.00    +0.000 A 
ATOM      7  C   UNL     1       5.022   3.818  14.255  0.00  0.00    +0.000 A 
ATOM      8  C   UNL     1       5.572   4.522  15.348  0.00  0.00    +0.000 A 
ATOM      9  C   UNL     1       4.848   4.608  16.619  0.00  0.00    +0.000 A 
ATOM     10  N   UNL     1       4.019   3.593  16.948  0.00  0.00    +0.000 NA
ATOM     11  N   UNL     1       3.283   3.668  18.108  0.00  0.00    +0.000 NA
ATOM     12  C   UNL     1       3.388   4.757  18.898  0.00  0.00    +0.000 A 
ATOM     13  N   UNL     1       4.198   5.792  18.625  0.00  0.00    +0.000 NA
ATOM     14  C   UNL     1       4.925   5.683  17.490  0.00  0.00    +0.000 A 
ATOM     15  O   UNL     1       5.665   6.825  17.180  0.00  0.00    +0.000 OA
ENDROOT
BRANCH   1  17
ATOM     16  C   UNL     1       7.963   8.699  17.728  0.00  0.00    +0.000 C 
ATOM     17  C   UNL     1       7.828   7.238  18.110  0.00  0.00    +0.000 C 
ENDBRANCH   1  17
BRANCH  12  18
ATOM     18  S   UNL     1       2.403   4.905  20.370  0.00  0.00    +0.000 S 
ATOM     19  C   UNL     1       1.027   3.787  20.002  0.00  0.00    +0.000 C 
ENDBRANCH  12  18
TORSDOF 2
ENDMDL
MODEL 2
REMARK VINA RESULT:      -7.6      3.072      5.221
REMARK  Name = 
REMARK  4 active torsions:
REMARK  status: ('A' for Active; 'I' for Inactive)
REMARK    1  A    between atoms: C_1  and  C_2
REMARK    2  A    between atoms: C_2  and  C_3
REMARK    3  A    between atoms: C_14  and  S_15
REMARK    4  A    between atoms: S_15  and  C_16
REMARK                            x       y       z     vdW  Elec       q    Type
REMARK                         _______ _______ _______ _____ _____    ______ ____
ROOT
ATOM      1  C   UNL     1       2.097   4.570  19.674  0.00  0.00    +0.000 C 
ATOM      2  N   UNL     1       2.441   4.145  18.506  0.00  0.00    +0.000 NA
ATOM      3  C   UNL     1       3.430   4.773  17.734  0.00  0.00    +0.000 A 
ATOM      4  C   UNL     1       4.223   3.915  16.955  0.00  0.00    +0.000 A 
ATOM      5  C   UNL     1       5.171   4.414  16.065  0.00  0.00    +0.000 A 
ATOM      6  C   UNL     1       5.332   5.787  15.939  0.00  0.00    +0.000 A 
ATOM      7  C   UNL     1       4.548   6.654  16.704  0.00  0.00    +0.000 A 
ATOM      8  C   UNL     1       3.586   6.168  17.617  0.00  0.00    +0.000 A 
ATOM      9  C   UNL     1       2.777   7.097  18.411  0.00  0.00    +0.000 A 
ATOM     10  N   UNL     1       2.509   8.313  17.888  0.00  0.00    +0.000 NA
ATOM     11  N   UNL     1       1.799   9.229  18.630  0.00  0.00    +0.000 NA
ATOM     12  C   UNL     1       1.387   8.906  19.874  0.00  0.00    +0.000 A 
ATOM     13  N   UNL     1       1.618   7.712  20.442  0.00  0.00    +0.000 NA
ATOM     14  C   UNL     1       2.301   6.825  19.683  0.00  0.00    +0.000 A 
ATOM     15  O   UNL     1       2.623   5.642  20.349  0.00  0.00    +0.000 OA
ENDROOT
BRANCH   1  17
ATOM     16  C   UNL     1       1.817   2.925  21.507  0.00  0.00    +0.000 C 
ATOM     17  C   UNL     1       1.100   3.805  20.503  0.00  0.00    +0.000 C 
ENDBRANCH   1  17
BRANCH  12  18
ATOM     18  S   UNL     1       0.520  10.092  20.875  0.00  0.00    +0.000 S 
ATOM     19  C   UNL     1       0.620   9.328  22.514  0.00  0.00    +0.000 C 
ENDBRANCH  12  18
TORSDOF 2
ENDMDL
MODEL 3
REMARK VINA RESULT:      -7.3      3.153      5.183
REMARK  Name = 
REMARK  4 active torsions:
REMARK  status: ('A' for Active; 'I' for Inactive)
REMARK    1  A    between atoms: C_1  and  C_2
REMARK    2  A    between atoms: C_2  and  C_3
REMARK    3  A    between atoms: C_14  and  S_15
REMARK    4  A    between atoms: S_15  and  C_16
REMARK                            x       y       z     vdW  Elec       q    Type
REMARK                         _______ _______ _______ _____ _____    ______ ____
ROOT
ATOM      1  C   UNL     1       2.238   4.713  19.407  0.00  0.00    +0.000 C 
ATOM      2  N   UNL     1       2.641   4.234  18.278  0.00  0.00    +0.000 NA
ATOM      3  C   UNL     1       3.664   4.830  17.526  0.00  0.00    +0.000 A 
ATOM      4  C   UNL     1       4.499   3.942  16.830  0.00  0.00    +0.000 A 
ATOM      5  C   UNL     1       5.487   4.403  15.964  0.00  0.00    +0.000 A 
ATOM      6  C   UNL     1       5.648   5.769  15.779  0.00  0.00    +0.000 A 
ATOM      7  C   UNL     1       4.823   6.667  16.461  0.00  0.00    +0.000 A 
ATOM      8  C   UNL     1       3.820   6.220  17.348  0.00  0.00    +0.000 A 
ATOM      9  C   UNL     1       2.968   7.180  18.056  0.00  0.00    +0.000 A 
ATOM     10  N   UNL     1       2.721   8.368  17.461  0.00  0.00    +0.000 NA
ATOM     11  N   UNL     1       1.971   9.314  18.122  0.00  0.00    +0.000 NA
ATOM     12  C   UNL     1       1.499   9.050  19.359  0.00  0.00    +0.000 A 
ATOM     13  N   UNL     1       1.708   7.886  19.995  0.00  0.00    +0.000 NA
ATOM     14  C   UNL     1       2.431   6.968  19.315  0.00  0.00    +0.000 A 
ATOM     15  O   UNL     1       2.726   5.820  20.052  0.00  0.00    +0.000 OA
ENDROOT
BRANCH   1  17
ATOM     16  C   UNL     1       0.775   2.715  19.511  0.00  0.00    +0.000 C 
ATOM     17  C   UNL     1       1.205   3.983  20.221  0.00  0.00    +0.000 C 
ENDBRANCH   1  17
BRANCH  12  18
ATOM     18  S   UNL     1       0.579  10.276  20.257  0.00  0.00    +0.000 S 
ATOM     19  C   UNL     1      -0.715  10.706  19.066  0.00  0.00    +0.000 C 
ENDBRANCH  12  18
TORSDOF 2
ENDMDL
MODEL 4
REMARK VINA RESULT:      -7.2      2.965      6.065
REMARK  Name = 
REMARK  4 active torsions:
REMARK  status: ('A' for Active; 'I' for Inactive)
REMARK    1  A    between atoms: C_1  and  C_2
REMARK    2  A    between atoms: C_2  and  C_3
REMARK    3  A    between atoms: C_14  and  S_15
REMARK    4  A    between atoms: S_15  and  C_16
REMARK                            x       y       z     vdW  Elec       q    Type
REMARK                         _______ _______ _______ _____ _____    ______ ____
ROOT
ATOM      1  C   UNL     1       3.613   3.901  18.959  0.00  0.00    +0.000 C 
ATOM      2  N   UNL     1       3.415   4.889  19.766  0.00  0.00    +0.000 NA
ATOM      3  C   UNL     1       2.905   6.124  19.337  0.00  0.00    +0.000 A 
ATOM      4  C   UNL     1       2.060   6.778  20.248  0.00  0.00    +0.000 A 
ATOM      5  C   UNL     1       1.570   8.056  19.994  0.00  0.00    +0.000 A 
ATOM      6  C   UNL     1       1.927   8.701  18.818  0.00  0.00    +0.000 A 
ATOM      7  C   UNL     1       2.769   8.066  17.902  0.00  0.00    +0.000 A 
ATOM      8  C   UNL     1       3.272   6.768  18.139  0.00  0.00    +0.000 A 
ATOM      9  C   UNL     1       4.152   6.121  17.162  0.00  0.00    +0.000 A 
ATOM     10  N   UNL     1       4.935   6.908  16.392  0.00  0.00    +0.000 NA
ATOM     11  N   UNL     1       5.733   6.335  15.428  0.00  0.00    +0.000 NA
ATOM     12  C   UNL     1       5.717   4.997  15.255  0.00  0.00    +0.000 A 
ATOM     13  N   UNL     1       4.964   4.166  15.994  0.00  0.00    +0.000 NA
ATOM     14  C   UNL     1       4.206   4.753  16.947  0.00  0.00    +0.000 A 
ATOM     15  O   UNL     1       3.353   3.872  17.613  0.00  0.00    +0.000 OA
ENDROOT
BRANCH   1  17
ATOM     16  C   UNL     1       3.599   1.454  18.569  0.00  0.00    +0.000 C 
ATOM     17  C   UNL     1       4.070   2.567  19.483  0.00  0.00    +0.000 C 
ENDBRANCH   1  17
BRANCH  12  18
ATOM     18  S   UNL     1       6.692   4.239  13.977  0.00  0.00    +0.000 S 
ATOM     19  C   UNL     1       5.409   3.594  12.873  0.00  0.00    +0.000 C 
ENDBRANCH  12  18
TORSDOF 2
ENDMDL
MODEL 5
REMARK VINA RESULT:      -7.1      2.545      4.613
REMARK  Name = 
REMARK  4 active torsions:
REMARK  status: ('A' for Active; 'I' for Inactive)
REMARK    1  A    between atoms: C_1  and  C_2
REMARK    2  A    between atoms: C_2  and  C_3
REMARK    3  A    between atoms: C_14  and  S_15
REMARK    4  A    between atoms: S_15  and  C_16
REMARK                            x       y       z     vdW  Elec       q    Type
REMARK                         _______ _______ _______ _____ _____    ______ ____
ROOT
ATOM      1  C   UNL     1       3.041   3.536  18.933  0.00  0.00    +0.000 C 
ATOM      2  N   UNL     1       3.361   3.383  17.692  0.00  0.00    +0.000 NA
ATOM      3  C   UNL     1       4.227   4.260  17.021  0.00  0.00    +0.000 A 
ATOM      4  C   UNL     1       5.063   3.667  16.062  0.00  0.00    +0.000 A 
ATOM      5  C   UNL     1       5.895   4.435  15.251  0.00  0.00    +0.000 A 
ATOM      6  C   UNL     1       5.894   5.816  15.388  0.00  0.00    +0.000 A 
ATOM      7  C   UNL     1       5.064   6.423  16.335  0.00  0.00    +0.000 A 
ATOM      8  C   UNL     1       4.218   5.661  17.171  0.00  0.00    +0.000 A 
ATOM      9  C   UNL     1       3.359   6.319  18.159  0.00  0.00    +0.000 A 
ATOM     10  N   UNL     1       2.926   7.571  17.891  0.00  0.00    +0.000 NA
ATOM     11  N   UNL     1       2.163   8.237  18.822  0.00  0.00    +0.000 NA
ATOM     12  C   UNL     1       1.864   7.639  19.995  0.00  0.00    +0.000 A 
ATOM     13  N   UNL     1       2.261   6.397  20.311  0.00  0.00    +0.000 NA
ATOM     14  C   UNL     1       2.992   5.757  19.371  0.00  0.00    +0.000 A 
ATOM     15  O   UNL     1       3.483   4.518  19.782  0.00  0.00    +0.000 OA
ENDROOT
BRANCH   1  17
ATOM     16  C   UNL     1       0.781   2.529  19.067  0.00  0.00    +0.000 C 
ATOM     17  C   UNL     1       2.187   2.515  19.633  0.00  0.00    +0.000 C 
ENDBRANCH   1  17
BRANCH  12  18
ATOM     18  S   UNL     1       0.930   8.502  21.237  0.00  0.00    +0.000 S 
ATOM     19  C   UNL     1       0.382   9.969  20.329  0.00  0.00    +0.000 C 
ENDBRANCH  12  18
TORSDOF 2
ENDMDL
MODEL 6
REMARK VINA RESULT:      -7.1      3.126      6.442
REMARK  Name = 
REMARK  4 active torsions:
REMARK  status: ('A' for Active; 'I' for Inactive)
REMARK    1  A    between atoms: C_1  and  C_2
REMARK    2  A    between atoms: C_2  and  C_3
REMARK    3  A    between atoms: C_14  and  S_15
REMARK    4  A    between atoms: S_15  and  C_16
REMARK                            x       y       z     vdW  Elec       q    Type
REMARK                         _______ _______ _______ _____ _____    ______ ____
ROOT
ATOM      1  C   UNL     1       2.600   4.518  19.833  0.00  0.00    +0.000 C 
ATOM      2  N   UNL     1       2.474   5.630  20.476  0.00  0.00    +0.000 NA
ATOM      3  C   UNL     1       2.141   6.837  19.841  0.00  0.00    +0.000 A 
ATOM      4  C   UNL     1       1.329   7.706  20.585  0.00  0.00    +0.000 A 
ATOM      5  C   UNL     1       1.010   8.979  20.117  0.00  0.00    +0.000 A 
ATOM      6  C   UNL     1       1.511   9.400  18.893  0.00  0.00    +0.000 A 
ATOM      7  C   UNL     1       2.324   8.548  18.142  0.00  0.00    +0.000 A 
ATOM      8  C   UNL     1       2.653   7.252  18.596  0.00  0.00    +0.000 A 
ATOM      9  C   UNL     1       3.506   6.374  17.789  0.00  0.00    +0.000 A 
ATOM     10  N   UNL     1       4.422   6.948  16.978  0.00  0.00    +0.000 NA
ATOM     11  N   UNL     1       5.200   6.155  16.167  0.00  0.00    +0.000 NA
ATOM     12  C   UNL     1       5.035   4.816  16.182  0.00  0.00    +0.000 A 
ATOM     13  N   UNL     1       4.146   4.191  16.971  0.00  0.00    +0.000 NA
ATOM     14  C   UNL     1       3.408   4.992  17.772  0.00  0.00    +0.000 A 
ATOM     15  O   UNL     1       2.418   4.319  18.489  0.00  0.00    +0.000 OA
ENDROOT
BRANCH   1  17
ATOM     16  C   UNL     1       1.786   2.999  21.614  0.00  0.00    +0.000 C 
ATOM     17  C   UNL     1       2.862   3.234  20.572  0.00  0.00    +0.000 C 
ENDBRANCH   1  17
BRANCH  12  18
ATOM     18  S   UNL     1       5.986   3.775  15.101  0.00  0.00    +0.000 S 
ATOM     19  C   UNL     1       7.035   4.986  14.258  0.00  0.00    +0.000 C 
ENDBRANCH  12  18
TORSDOF 2
ENDMDL
MODEL 7
REMARK VINA RESULT:      -7.0      2.601      5.776
REMARK  Name = 
REMARK  4 active torsions:
REMARK  status: ('A' for Active; 'I' for Inactive)
REMARK    1  A    between atoms: C_1  and  C_2
REMARK    2  A    between atoms: C_2  and  C_3
REMARK    3  A    between atoms: C_14  and  S_15
REMARK    4  A    between atoms: S_15  and  C_16
REMARK                            x       y       z     vdW  Elec       q    Type
REMARK                         _______ _______ _______ _____ _____    ______ ____
ROOT
ATOM      1  C   UNL     1       3.026   6.959  18.276  0.00  0.00    +0.000 C 
ATOM      2  N   UNL     1       2.146   6.245  18.892  0.00  0.00    +0.000 NA
ATOM      3  C   UNL     1       2.477   5.073  19.590  0.00  0.00    +0.000 A 
ATOM      4  C   UNL     1       1.730   4.832  20.754  0.00  0.00    +0.000 A 
ATOM      5  C   UNL     1       1.884   3.655  21.483  0.00  0.00    +0.000 A 
ATOM      6  C   UNL     1       2.790   2.697  21.048  0.00  0.00    +0.000 A 
ATOM      7  C   UNL     1       3.538   2.921  19.889  0.00  0.00    +0.000 A 
ATOM      8  C   UNL     1       3.401   4.109  19.140  0.00  0.00    +0.000 A 
ATOM      9  C   UNL     1       4.199   4.323  17.929  0.00  0.00    +0.000 A 
ATOM     10  N   UNL     1       4.581   3.238  17.220  0.00  0.00    +0.000 NA
ATOM     11  N   UNL     1       5.377   3.401  16.109  0.00  0.00    +0.000 NA
ATOM     12  C   UNL     1       5.776   4.638  15.746  0.00  0.00    +0.000 A 
ATOM     13  N   UNL     1       5.423   5.751  16.409  0.00  0.00    +0.000 NA
ATOM     14  C   UNL     1       4.624   5.564  17.484  0.00  0.00    +0.000 A 
ATOM     15  O   UNL     1       4.376   6.728  18.212  0.00  0.00    +0.000 OA
ENDROOT
BRANCH   1  17
ATOM     16  C   UNL     1       1.661   9.015  18.505  0.00  0.00    +0.000 C 
ATOM     17  C   UNL     1       2.635   8.258  17.625  0.00  0.00    +0.000 C 
ENDBRANCH   1  17
BRANCH  12  18
ATOM     18  S   UNL     1       6.852   4.868  14.351  0.00  0.00    +0.000 S 
ATOM     19  C   UNL     1       6.136   3.722  13.145  0.00  0.00    +0.000 C 
ENDBRANCH  12  18
TORSDOF 2
ENDMDL
MODEL 8
REMARK VINA RESULT:      -7.0      2.780      5.167
REMARK  Name = 
REMARK  4 active torsions:
REMARK  status: ('A' for Active; 'I' for Inactive)
REMARK    1  A    between atoms: C_1  and  C_2
REMARK    2  A    between atoms: C_2  and  C_3
REMARK    3  A    between atoms: C_14  and  S_15
REMARK    4  A    between atoms: S_15  and  C_16
REMARK                            x       y       z     vdW  Elec       q    Type
REMARK                         _______ _______ _______ _____ _____    ______ ____
ROOT
ATOM      1  C   UNL     1       6.918   5.229  18.733  0.00  0.00    +0.000 C 
ATOM      2  N   UNL     1       5.755   5.207  19.292  0.00  0.00    +0.000 NA
ATOM      3  C   UNL     1       4.794   4.227  18.999  0.00  0.00    +0.000 A 
ATOM      4  C   UNL     1       3.989   3.828  20.078  0.00  0.00    +0.000 A 
ATOM      5  C   UNL     1       2.929   2.942  19.903  0.00  0.00    +0.000 A 
ATOM      6  C   UNL     1       2.657   2.446  18.636  0.00  0.00    +0.000 A 
ATOM      7  C   UNL     1       3.446   2.836  17.551  0.00  0.00    +0.000 A 
ATOM      8  C   UNL     1       4.529   3.729  17.708  0.00  0.00    +0.000 A 
ATOM      9  C   UNL     1       5.344   4.121  16.556  0.00  0.00    +0.000 A 
ATOM     10  N   UNL     1       4.757   4.140  15.339  0.00  0.00    +0.000 NA
ATOM     11  N   UNL     1       5.509   4.451  14.229  0.00  0.00    +0.000 NA
ATOM     12  C   UNL     1       6.824   4.723  14.365  0.00  0.00    +0.000 A 
ATOM     13  N   UNL     1       7.458   4.726  15.548  0.00  0.00    +0.000 NA
ATOM     14  C   UNL     1       6.692   4.437  16.624  0.00  0.00    +0.000 A 
ATOM     15  O   UNL     1       7.408   4.334  17.817  0.00  0.00    +0.000 OA
ENDROOT
BRANCH   1  17
ATOM     16  C   UNL     1       7.966   7.406  18.182  0.00  0.00    +0.000 C 
ATOM     17  C   UNL     1       7.947   6.242  19.153  0.00  0.00    +0.000 C 
ENDBRANCH   1  17
BRANCH  12  18
ATOM     18  S   UNL     1       7.828   5.069  12.940  0.00  0.00    +0.000 S 
ATOM     19  C   UNL     1       7.119   3.943  11.712  0.00  0.00    +0.000 C 
ENDBRANCH  12  18
TORSDOF 2
ENDMDL
MODEL 9
REMARK VINA RESULT:      -7.0      3.526      6.647
REMARK  Name = 
REMARK  4 active torsions:
REMARK  status: ('A' for Active; 'I' for Inactive)
REMARK    1  A    between atoms: C_1  and  C_2
REMARK    2  A    between atoms: C_2  and  C_3
REMARK    3  A    between atoms: C_14  and  S_15
REMARK    4  A    between atoms: S_15  and  C_16
REMARK                            x       y       z     vdW  Elec       q    Type
REMARK                         _______ _______ _______ _____ _____    ______ ____
ROOT
ATOM      1  C   UNL     1       2.011   5.541  20.289  0.00  0.00    +0.000 C 
ATOM      2  N   UNL     1       1.896   6.743  20.744  0.00  0.00    +0.000 NA
ATOM      3  C   UNL     1       1.645   7.846  19.914  0.00  0.00    +0.000 A 
ATOM      4  C   UNL     1       0.830   8.846  20.466  0.00  0.00    +0.000 A 
ATOM      5  C   UNL     1       0.587  10.040  19.791  0.00  0.00    +0.000 A 
ATOM      6  C   UNL     1       1.168  10.249  18.548  0.00  0.00    +0.000 A 
ATOM      7  C   UNL     1       1.985   9.265  17.985  0.00  0.00    +0.000 A 
ATOM      8  C   UNL     1       2.238   8.046  18.651  0.00  0.00    +0.000 A 
ATOM      9  C   UNL     1       3.096   7.028  18.040  0.00  0.00    +0.000 A 
ATOM     10  N   UNL     1       4.076   7.440  17.205  0.00  0.00    +0.000 NA
ATOM     11  N   UNL     1       4.864   6.506  16.572  0.00  0.00    +0.000 NA
ATOM     12  C   UNL     1       4.645   5.191  16.783  0.00  0.00    +0.000 A 
ATOM     13  N   UNL     1       3.692   4.725  17.606  0.00  0.00    +0.000 NA
ATOM     14  C   UNL     1       2.945   5.664  18.230  0.00  0.00    +0.000 A 
ATOM     15  O   UNL     1       1.893   5.141  18.982  0.00  0.00    +0.000 OA
ENDROOT
BRANCH   1  17
ATOM     16  C   UNL     1       1.245   3.252  20.849  0.00  0.00    +0.000 C 
ATOM     17  C   UNL     1       2.182   4.380  21.230  0.00  0.00    +0.000 C 
ENDBRANCH   1  17
BRANCH  12  18
ATOM     18  S   UNL     1       5.610   3.965  15.932  0.00  0.00    +0.000 S 
ATOM     19  C   UNL     1       7.295   4.446  16.388  0.00  0.00    +0.000 C 
ENDBRANCH  12  18
TORSDOF 2
ENDMDL
