MODEL 1
REMARK VINA RESULT:      -7.0      0.000      0.000
REMARK  Name = 
REMARK  12 active torsions:
REMARK  status: ('A' for Active; 'I' for Inactive)
REMARK    1  A    between atoms: C_1  and  C_2
REMARK    2  A    between atoms: C_4  and  N_5
REMARK    3  A    between atoms: N_6  and  C_7
REMARK    4  A    between atoms: C_10  and  C_11
REMARK    5  A    between atoms: C_11  and  O_13
REMARK    6  A    between atoms: C_16  and  C_17
REMARK    7  A    between atoms: C_17  and  O_18
REMARK    8  A    between atoms: O_18  and  P_19
REMARK    9  A    between atoms: P_19  and  O_21
REMARK   10  A    between atoms: P_19  and  O_22
REMARK   11  A    between atoms: C_23  and  C_24
REMARK   12  A    between atoms: C_26  and  O_27
REMARK                            x       y       z     vdW  Elec       q    Type
REMARK                         _______ _______ _______ _____ _____    ______ ____
ROOT
ATOM      1  C   UNL     1       7.616   7.781  17.524  0.00  0.00    +0.000 C 
ATOM      2  C   UNL     1       6.634   6.675  17.292  0.00  0.00    +0.000 A 
ATOM      3  N   UNL     1       5.621   6.585  18.173  0.00  0.00    +0.000 NA
ATOM      4  C   UNL     1       4.687   5.614  18.011  0.00  0.00    +0.000 A 
ATOM      5  C   UNL     1       4.687   4.718  16.935  0.00  0.00    +0.000 A 
ATOM      6  C   UNL     1       5.782   4.800  16.053  0.00  0.00    +0.000 A 
ATOM      7  C   UNL     1       6.762   5.792  16.230  0.00  0.00    +0.000 A 
ENDROOT
BRANCH   4   8
ATOM      8  N   UNL     1       3.721   5.492  19.040  0.00  0.00    +0.000 NA
ATOM      9  N   UNL     1       2.565   5.779  18.668  0.00  0.00    +0.000 NA
BRANCH   9  10
ATOM     10  C   UNL     1       2.227   7.137  18.855  0.00  0.00    +0.000 A 
ATOM     11  C   UNL     1       2.263   7.967  17.728  0.00  0.00    +0.000 A 
ATOM     12  C   UNL     1       1.859   9.302  17.803  0.00  0.00    +0.000 A 
ATOM     13  C   UNL     1       1.400   9.815  19.018  0.00  0.00    +0.000 A 
ATOM     14  C   UNL     1       1.428   9.023  20.169  0.00  0.00    +0.000 A 
ATOM     15  C   UNL     1       1.839   7.692  20.086  0.00  0.00    +0.000 A 
BRANCH  13  16
ATOM     16  C   UNL     1       0.778  11.152  19.117  0.00  0.00    +0.000 C 
ATOM     17  O   UNL     1       0.971  11.953  20.009  0.00  0.00    +0.000 OA
BRANCH  16  18
ATOM     18  O   UNL     1      -0.074  11.408  18.109  0.00  0.00    +0.000 OA
ATOM     19  H   UNL     1       0.037  12.371  17.955  0.00  0.00    +0.000 HD
ENDBRANCH  16  18
ENDBRANCH  13  16
ENDBRANCH   9  10
ENDBRANCH   4   8
BRANCH   6  20
ATOM     20  C   UNL     1       5.952   3.836  14.939  0.00  0.00    +0.000 C 
ATOM     21  O   UNL     1       6.030   4.225  13.777  0.00  0.00    +0.000 OA
ENDBRANCH   6  20
BRANCH   7  22
ATOM     22  O   UNL     1       7.846   5.933  15.405  0.00  0.00    +0.000 OA
ATOM     23  H   UNL     1       7.970   6.890  15.208  0.00  0.00    +0.000 HD
ENDBRANCH   7  22
BRANCH   5  24
ATOM     24  C   UNL     1       3.590   3.687  16.786  0.00  0.00    +0.000 C 
BRANCH  24  25
ATOM     25  O   UNL     1       3.749   2.654  17.745  0.00  0.00    +0.000 OA
BRANCH  25  26
ATOM     26  P   UNL     1       2.346   1.998  18.516  0.00  0.00    +0.000 P 
ATOM     27  O   UNL     1       2.829   2.361  19.918  0.00  0.00    +0.000 OA
BRANCH  26  28
ATOM     28  O   UNL     1       1.422   3.225  17.977  0.00  0.00    +0.000 OA
ATOM     29  H   UNL     1       1.023   3.717  18.720  0.00  0.00    +0.000 HD
ENDBRANCH  26  28
BRANCH  26  30
ATOM     30  O   UNL     1       0.943   1.341  19.287  0.00  0.00    +0.000 OA
ATOM     31  H   UNL     1       0.809   1.968  20.030  0.00  0.00    +0.000 HD
ENDBRANCH  26  30
ENDBRANCH  25  26
ENDBRANCH  24  25
ENDBRANCH   5  24
TORSDOF 11
ENDMDL
MODEL 2
REMARK VINA RESULT:      -6.9      0.848      1.566
REMARK  Name = 
REMARK  12 active torsions:
REMARK  status: ('A' for Active; 'I' for Inactive)
REMARK    1  A    between atoms: C_1  and  C_2
REMARK    2  A    between atoms: C_4  and  N_5
REMARK    3  A    between atoms: N_6  and  C_7
REMARK    4  A    between atoms: C_10  and  C_11
REMARK    5  A    between atoms: C_11  and  O_13
REMARK    6  A    between atoms: C_16  and  C_17
REMARK    7  A    between atoms: C_17  and  O_18
REMARK    8  A    between atoms: O_18  and  P_19
REMARK    9  A    between atoms: P_19  and  O_21
REMARK   10  A    between atoms: P_19  and  O_22
REMARK   11  A    between atoms: C_23  and  C_24
REMARK   12  A    between atoms: C_26  and  O_27
REMARK                            x       y       z     vdW  Elec       q    Type
REMARK                         _______ _______ _______ _____ _____    ______ ____
ROOT
ATOM      1  C   UNL     1       7.630   7.925  17.338  0.00  0.00    +0.000 C 
ATOM      2  C   UNL     1       6.638   6.803  17.295  0.00  0.00    +0.000 A 
ATOM      3  N   UNL     1       5.683   6.817  18.244  0.00  0.00    +0.000 NA
ATOM      4  C   UNL     1       4.745   5.838  18.251  0.00  0.00    +0.000 A 
ATOM      5  C   UNL     1       4.679   4.827  17.284  0.00  0.00    +0.000 A 
ATOM      6  C   UNL     1       5.715   4.805  16.331  0.00  0.00    +0.000 A 
ATOM      7  C   UNL     1       6.701   5.807  16.333  0.00  0.00    +0.000 A 
ENDROOT
BRANCH   4   8
ATOM      8  N   UNL     1       3.847   5.836  19.347  0.00  0.00    +0.000 NA
ATOM      9  N   UNL     1       2.650   5.932  19.005  0.00  0.00    +0.000 NA
BRANCH   9  10
ATOM     10  C   UNL     1       2.180   7.262  18.945  0.00  0.00    +0.000 A 
ATOM     11  C   UNL     1       1.732   7.836  20.140  0.00  0.00    +0.000 A 
ATOM     12  C   UNL     1       1.334   9.174  20.192  0.00  0.00    +0.000 A 
ATOM     13  C   UNL     1       1.395   9.956  19.036  0.00  0.00    +0.000 A 
ATOM     14  C   UNL     1       1.768   9.379  17.818  0.00  0.00    +0.000 A 
ATOM     15  C   UNL     1       2.158   8.041  17.776  0.00  0.00    +0.000 A 
BRANCH  13  16
ATOM     16  C   UNL     1       1.177  11.417  19.067  0.00  0.00    +0.000 C 
ATOM     17  O   UNL     1       0.437  12.002  19.833  0.00  0.00    +0.000 OA
BRANCH  16  18
ATOM     18  O   UNL     1       1.875  12.070  18.121  0.00  0.00    +0.000 OA
ATOM     19  H   UNL     1       2.402  11.359  17.695  0.00  0.00    +0.000 HD
ENDBRANCH  16  18
ENDBRANCH  13  16
ENDBRANCH   9  10
ENDBRANCH   4   8
BRANCH   6  20
ATOM     20  C   UNL     1       5.817   3.721  15.324  0.00  0.00    +0.000 C 
ATOM     21  O   UNL     1       6.120   3.971  14.160  0.00  0.00    +0.000 OA
ENDBRANCH   6  20
BRANCH   7  22
ATOM     22  O   UNL     1       7.729   5.850  15.429  0.00  0.00    +0.000 OA
ATOM     23  H   UNL     1       8.361   6.554  15.703  0.00  0.00    +0.000 HD
ENDBRANCH   7  22
BRANCH   5  24
ATOM     24  C   UNL     1       3.578   3.790  17.323  0.00  0.00    +0.000 C 
BRANCH  24  25
ATOM     25  O   UNL     1       4.026   2.617  17.983  0.00  0.00    +0.000 OA
BRANCH  25  26
ATOM     26  P   UNL     1       3.789   2.470  19.690  0.00  0.00    +0.000 P 
ATOM     27  O   UNL     1       2.489   1.684  19.539  0.00  0.00    +0.000 OA
BRANCH  26  28
ATOM     28  O   UNL     1       5.007   1.396  19.812  0.00  0.00    +0.000 OA
ATOM     29  H   UNL     1       4.735   0.612  20.325  0.00  0.00    +0.000 HD
ENDBRANCH  26  28
BRANCH  26  30
ATOM     30  O   UNL     1       3.552   2.325  21.398  0.00  0.00    +0.000 OA
ATOM     31  H   UNL     1       3.359   1.367  21.494  0.00  0.00    +0.000 HD
ENDBRANCH  26  30
ENDBRANCH  25  26
ENDBRANCH  24  25
ENDBRANCH   5  24
TORSDOF 11
ENDMDL
MODEL 3
REMARK VINA RESULT:      -6.9      0.887      1.278
REMARK  Name = 
REMARK  12 active torsions:
REMARK  status: ('A' for Active; 'I' for Inactive)
REMARK    1  A    between atoms: C_1  and  C_2
REMARK    2  A    between atoms: C_4  and  N_5
REMARK    3  A    between atoms: N_6  and  C_7
REMARK    4  A    between atoms: C_10  and  C_11
REMARK    5  A    between atoms: C_11  and  O_13
REMARK    6  A    between atoms: C_16  and  C_17
REMARK    7  A    between atoms: C_17  and  O_18
REMARK    8  A    between atoms: O_18  and  P_19
REMARK    9  A    between atoms: P_19  and  O_21
REMARK   10  A    between atoms: P_19  and  O_22
REMARK   11  A    between atoms: C_23  and  C_24
REMARK   12  A    between atoms: C_26  and  O_27
REMARK                            x       y       z     vdW  Elec       q    Type
REMARK                         _______ _______ _______ _____ _____    ______ ____
ROOT
ATOM      1  C   UNL     1       7.746   7.576  17.672  0.00  0.00    +0.000 C 
ATOM      2  C   UNL     1       6.618   6.603  17.511  0.00  0.00    +0.000 A 
ATOM      3  N   UNL     1       5.709   6.577  18.503  0.00  0.00    +0.000 NA
ATOM      4  C   UNL     1       4.654   5.730  18.411  0.00  0.00    +0.000 A 
ATOM      5  C   UNL     1       4.424   4.904  17.304  0.00  0.00    +0.000 A 
ATOM      6  C   UNL     1       5.412   4.913  16.301  0.00  0.00    +0.000 A 
ATOM      7  C   UNL     1       6.517   5.776  16.403  0.00  0.00    +0.000 A 
ENDROOT
BRANCH   4   8
ATOM      8  N   UNL     1       3.805   5.658  19.543  0.00  0.00    +0.000 NA
ATOM      9  N   UNL     1       2.598   5.818  19.265  0.00  0.00    +0.000 NA
BRANCH   9  10
ATOM     10  C   UNL     1       2.170   7.161  19.341  0.00  0.00    +0.000 A 
ATOM     11  C   UNL     1       2.250   7.925  18.171  0.00  0.00    +0.000 A 
ATOM     12  C   UNL     1       1.765   9.234  18.131  0.00  0.00    +0.000 A 
ATOM     13  C   UNL     1       1.181   9.788  19.272  0.00  0.00    +0.000 A 
ATOM     14  C   UNL     1       1.160   9.066  20.469  0.00  0.00    +0.000 A 
ATOM     15  C   UNL     1       1.652   7.761  20.501  0.00  0.00    +0.000 A 
BRANCH  13  16
ATOM     16  C   UNL     1       0.478  11.087  19.240  0.00  0.00    +0.000 C 
ATOM     17  O   UNL     1      -0.188  11.550  20.145  0.00  0.00    +0.000 OA
BRANCH  16  18
ATOM     18  O   UNL     1       0.622  11.729  18.067  0.00  0.00    +0.000 OA
ATOM     19  H   UNL     1       1.307  12.405  18.260  0.00  0.00    +0.000 HD
ENDBRANCH  16  18
ENDBRANCH  13  16
ENDBRANCH   9  10
ENDBRANCH   4   8
BRANCH   6  20
ATOM     20  C   UNL     1       5.337   4.002  15.133  0.00  0.00    +0.000 C 
ATOM     21  O   UNL     1       6.355   3.517  14.648  0.00  0.00    +0.000 OA
ENDBRANCH   6  20
BRANCH   7  22
ATOM     22  O   UNL     1       7.508   5.841  15.460  0.00  0.00    +0.000 OA
ATOM     23  H   UNL     1       8.301   5.369  15.802  0.00  0.00    +0.000 HD
ENDBRANCH   7  22
BRANCH   5  24
ATOM     24  C   UNL     1       3.202   4.015  17.243  0.00  0.00    +0.000 C 
BRANCH  24  25
ATOM     25  O   UNL     1       3.560   2.664  17.491  0.00  0.00    +0.000 OA
BRANCH  25  26
ATOM     26  P   UNL     1       4.207   2.236  19.037  0.00  0.00    +0.000 P 
ATOM     27  O   UNL     1       2.858   2.349  19.741  0.00  0.00    +0.000 OA
BRANCH  26  28
ATOM     28  O   UNL     1       4.399   0.686  18.577  0.00  0.00    +0.000 OA
ATOM     29  H   UNL     1       5.081   0.606  17.885  0.00  0.00    +0.000 HD
ENDBRANCH  26  28
BRANCH  26  30
ATOM     30  O   UNL     1       4.857   1.809  20.583  0.00  0.00    +0.000 OA
ATOM     31  H   UNL     1       4.232   2.257  21.195  0.00  0.00    +0.000 HD
ENDBRANCH  26  30
ENDBRANCH  25  26
ENDBRANCH  24  25
ENDBRANCH   5  24
TORSDOF 11
ENDMDL
MODEL 4
REMARK VINA RESULT:      -6.8      0.618      1.114
REMARK  Name = 
REMARK  12 active torsions:
REMARK  status: ('A' for Active; 'I' for Inactive)
REMARK    1  A    between atoms: C_1  and  C_2
REMARK    2  A    between atoms: C_4  and  N_5
REMARK    3  A    between atoms: N_6  and  C_7
REMARK    4  A    between atoms: C_10  and  C_11
REMARK    5  A    between atoms: C_11  and  O_13
REMARK    6  A    between atoms: C_16  and  C_17
REMARK    7  A    between atoms: C_17  and  O_18
REMARK    8  A    between atoms: O_18  and  P_19
REMARK    9  A    between atoms: P_19  and  O_21
REMARK   10  A    between atoms: P_19  and  O_22
REMARK   11  A    between atoms: C_23  and  C_24
REMARK   12  A    between atoms: C_26  and  O_27
REMARK                            x       y       z     vdW  Elec       q    Type
REMARK                         _______ _______ _______ _____ _____    ______ ____
ROOT
ATOM      1  C   UNL     1       7.631   7.804  17.423  0.00  0.00    +0.000 C 
ATOM      2  C   UNL     1       6.579   6.742  17.331  0.00  0.00    +0.000 A 
ATOM      3  N   UNL     1       5.591   6.803  18.244  0.00  0.00    +0.000 NA
ATOM      4  C   UNL     1       4.598   5.881  18.206  0.00  0.00    +0.000 A 
ATOM      5  C   UNL     1       4.510   4.883  17.226  0.00  0.00    +0.000 A 
ATOM      6  C   UNL     1       5.579   4.809  16.313  0.00  0.00    +0.000 A 
ATOM      7  C   UNL     1       6.620   5.752  16.362  0.00  0.00    +0.000 A 
ENDROOT
BRANCH   4   8
ATOM      8  N   UNL     1       3.660   5.921  19.267  0.00  0.00    +0.000 NA
ATOM      9  N   UNL     1       2.487   6.107  18.882  0.00  0.00    +0.000 NA
BRANCH   9  10
ATOM     10  C   UNL     1       2.112   7.467  18.832  0.00  0.00    +0.000 A 
ATOM     11  C   UNL     1       1.573   8.025  19.997  0.00  0.00    +0.000 A 
ATOM     12  C   UNL     1       1.258   9.384  20.066  0.00  0.00    +0.000 A 
ATOM     13  C   UNL     1       1.495  10.203  18.960  0.00  0.00    +0.000 A 
ATOM     14  C   UNL     1       1.963   9.649  17.765  0.00  0.00    +0.000 A 
ATOM     15  C   UNL     1       2.269   8.289  17.704  0.00  0.00    +0.000 A 
BRANCH  13  16
ATOM     16  C   UNL     1       1.369  11.673  19.033  0.00  0.00    +0.000 C 
ATOM     17  O   UNL     1       1.897  12.384  19.864  0.00  0.00    +0.000 OA
BRANCH  16  18
ATOM     18  O   UNL     1       0.566  12.177  18.079  0.00  0.00    +0.000 OA
ATOM     19  H   UNL     1       0.152  11.379  17.685  0.00  0.00    +0.000 HD
ENDBRANCH  16  18
ENDBRANCH  13  16
ENDBRANCH   9  10
ENDBRANCH   4   8
BRANCH   6  20
ATOM     20  C   UNL     1       5.656   3.730  15.298  0.00  0.00    +0.000 C 
ATOM     21  O   UNL     1       6.094   3.955  14.173  0.00  0.00    +0.000 OA
ENDBRANCH   6  20
BRANCH   7  22
ATOM     22  O   UNL     1       7.683   5.743  15.498  0.00  0.00    +0.000 OA
ATOM     23  H   UNL     1       8.118   6.626  15.523  0.00  0.00    +0.000 HD
ENDBRANCH   7  22
BRANCH   5  24
ATOM     24  C   UNL     1       3.351   3.912  17.212  0.00  0.00    +0.000 C 
BRANCH  24  25
ATOM     25  O   UNL     1       3.656   2.766  17.991  0.00  0.00    +0.000 OA
BRANCH  25  26
ATOM     26  P   UNL     1       2.600   2.322  19.287  0.00  0.00    +0.000 P 
ATOM     27  O   UNL     1       3.525   2.886  20.362  0.00  0.00    +0.000 OA
BRANCH  26  28
ATOM     28  O   UNL     1       1.540   3.491  18.882  0.00  0.00    +0.000 OA
ATOM     29  H   UNL     1       0.638   3.131  18.791  0.00  0.00    +0.000 HD
ENDBRANCH  26  28
BRANCH  26  30
ATOM     30  O   UNL     1       1.542   1.878  20.582  0.00  0.00    +0.000 OA
ATOM     31  H   UNL     1       1.800   0.944  20.741  0.00  0.00    +0.000 HD
ENDBRANCH  26  30
ENDBRANCH  25  26
ENDBRANCH  24  25
ENDBRANCH   5  24
TORSDOF 11
ENDMDL
MODEL 5
REMARK VINA RESULT:      -6.6      2.075      3.145
REMARK  Name = 
REMARK  12 active torsions:
REMARK  status: ('A' for Active; 'I' for Inactive)
REMARK    1  A    between atoms: C_1  and  C_2
REMARK    2  A    between atoms: C_4  and  N_5
REMARK    3  A    between atoms: N_6  and  C_7
REMARK    4  A    between atoms: C_10  and  C_11
REMARK    5  A    between atoms: C_11  and  O_13
REMARK    6  A    between atoms: C_16  and  C_17
REMARK    7  A    between atoms: C_17  and  O_18
REMARK    8  A    between atoms: O_18  and  P_19
REMARK    9  A    between atoms: P_19  and  O_21
REMARK   10  A    between atoms: P_19  and  O_22
REMARK   11  A    between atoms: C_23  and  C_24
REMARK   12  A    between atoms: C_26  and  O_27
REMARK                            x       y       z     vdW  Elec       q    Type
REMARK                         _______ _______ _______ _____ _____    ______ ____
ROOT
ATOM      1  C   UNL     1       5.775   4.192  13.466  0.00  0.00    +0.000 C 
ATOM      2  C   UNL     1       5.710   4.328  14.957  0.00  0.00    +0.000 A 
ATOM      3  N   UNL     1       4.597   3.854  15.548  0.00  0.00    +0.000 NA
ATOM      4  C   UNL     1       4.482   3.932  16.897  0.00  0.00    +0.000 A 
ATOM      5  C   UNL     1       5.489   4.437  17.729  0.00  0.00    +0.000 A 
ATOM      6  C   UNL     1       6.622   4.970  17.084  0.00  0.00    +0.000 A 
ATOM      7  C   UNL     1       6.736   4.909  15.685  0.00  0.00    +0.000 A 
ENDROOT
BRANCH   4   8
ATOM      8  N   UNL     1       3.237   3.535  17.446  0.00  0.00    +0.000 NA
ATOM      9  N   UNL     1       2.317   4.349  17.222  0.00  0.00    +0.000 NA
BRANCH   9  10
ATOM     10  C   UNL     1       2.165   5.327  18.229  0.00  0.00    +0.000 A 
ATOM     11  C   UNL     1       2.445   6.654  17.878  0.00  0.00    +0.000 A 
ATOM     12  C   UNL     1       2.236   7.697  18.783  0.00  0.00    +0.000 A 
ATOM     13  C   UNL     1       1.729   7.415  20.054  0.00  0.00    +0.000 A 
ATOM     14  C   UNL     1       1.515   6.091  20.445  0.00  0.00    +0.000 A 
ATOM     15  C   UNL     1       1.731   5.055  19.537  0.00  0.00    +0.000 A 
BRANCH  13  16
ATOM     16  C   UNL     1       1.304   8.484  20.981  0.00  0.00    +0.000 C 
ATOM     17  O   UNL     1       0.516   9.371  20.719  0.00  0.00    +0.000 OA
BRANCH  16  18
ATOM     18  O   UNL     1       1.906   8.405  22.181  0.00  0.00    +0.000 OA
ATOM     19  H   UNL     1       2.859   8.494  21.965  0.00  0.00    +0.000 HD
ENDBRANCH  16  18
ENDBRANCH  13  16
ENDBRANCH   9  10
ENDBRANCH   4   8
BRANCH   6  20
ATOM     20  C   UNL     1       7.707   5.632  17.850  0.00  0.00    +0.000 C 
ATOM     21  O   UNL     1       7.878   6.846  17.775  0.00  0.00    +0.000 OA
ENDBRANCH   6  20
BRANCH   7  22
ATOM     22  O   UNL     1       7.814   5.399  14.997  0.00  0.00    +0.000 OA
ATOM     23  H   UNL     1       7.716   6.375  14.910  0.00  0.00    +0.000 HD
ENDBRANCH   7  22
BRANCH   5  24
ATOM     24  C   UNL     1       5.317   4.453  19.231  0.00  0.00    +0.000 C 
BRANCH  24  25
ATOM     25  O   UNL     1       5.334   3.131  19.745  0.00  0.00    +0.000 OA
BRANCH  25  26
ATOM     26  P   UNL     1       4.108   2.648  20.866  0.00  0.00    +0.000 P 
ATOM     27  O   UNL     1       3.296   1.906  19.807  0.00  0.00    +0.000 OA
BRANCH  26  28
ATOM     28  O   UNL     1       5.109   1.573  21.567  0.00  0.00    +0.000 OA
ATOM     29  H   UNL     1       5.829   1.316  20.961  0.00  0.00    +0.000 HD
ENDBRANCH  26  28
BRANCH  26  30
ATOM     30  O   UNL     1       2.881   2.167  21.988  0.00  0.00    +0.000 OA
ATOM     31  H   UNL     1       2.105   2.046  21.399  0.00  0.00    +0.000 HD
ENDBRANCH  26  30
ENDBRANCH  25  26
ENDBRANCH  24  25
ENDBRANCH   5  24
TORSDOF 11
ENDMDL
MODEL 6
REMARK VINA RESULT:      -6.5      2.310      3.038
REMARK  Name = 
REMARK  12 active torsions:
REMARK  status: ('A' for Active; 'I' for Inactive)
REMARK    1  A    between atoms: C_1  and  C_2
REMARK    2  A    between atoms: C_4  and  N_5
REMARK    3  A    between atoms: N_6  and  C_7
REMARK    4  A    between atoms: C_10  and  C_11
REMARK    5  A    between atoms: C_11  and  O_13
REMARK    6  A    between atoms: C_16  and  C_17
REMARK    7  A    between atoms: C_17  and  O_18
REMARK    8  A    between atoms: O_18  and  P_19
REMARK    9  A    between atoms: P_19  and  O_21
REMARK   10  A    between atoms: P_19  and  O_22
REMARK   11  A    between atoms: C_23  and  C_24
REMARK   12  A    between atoms: C_26  and  O_27
REMARK                            x       y       z     vdW  Elec       q    Type
REMARK                         _______ _______ _______ _____ _____    ______ ____
ROOT
ATOM      1  C   UNL     1       6.737   7.297  17.691  0.00  0.00    +0.000 C 
ATOM      2  C   UNL     1       5.553   6.405  17.902  0.00  0.00    +0.000 A 
ATOM      3  N   UNL     1       4.353   6.925  17.587  0.00  0.00    +0.000 NA
ATOM      4  C   UNL     1       3.241   6.163  17.739  0.00  0.00    +0.000 A 
ATOM      5  C   UNL     1       3.274   4.829  18.163  0.00  0.00    +0.000 A 
ATOM      6  C   UNL     1       4.535   4.322  18.533  0.00  0.00    +0.000 A 
ATOM      7  C   UNL     1       5.687   5.116  18.395  0.00  0.00    +0.000 A 
ENDROOT
BRANCH   4   8
ATOM      8  N   UNL     1       2.000   6.809  17.513  0.00  0.00    +0.000 NA
ATOM      9  N   UNL     1       2.060   8.049  17.637  0.00  0.00    +0.000 NA
BRANCH   9  10
ATOM     10  C   UNL     1       1.774   8.505  18.943  0.00  0.00    +0.000 A 
ATOM     11  C   UNL     1       1.305   9.817  19.074  0.00  0.00    +0.000 A 
ATOM     12  C   UNL     1       0.912  10.322  20.316  0.00  0.00    +0.000 A 
ATOM     13  C   UNL     1       0.978   9.501  21.444  0.00  0.00    +0.000 A 
ATOM     14  C   UNL     1       1.513   8.214  21.345  0.00  0.00    +0.000 A 
ATOM     15  C   UNL     1       1.908   7.721  20.101  0.00  0.00    +0.000 A 
BRANCH  13  16
ATOM     16  C   UNL     1       0.398   9.907  22.741  0.00  0.00    +0.000 C 
ATOM     17  O   UNL     1       0.408   9.239  23.756  0.00  0.00    +0.000 OA
BRANCH  16  18
ATOM     18  O   UNL     1      -0.189  11.117  22.696  0.00  0.00    +0.000 OA
ATOM     19  H   UNL     1      -0.678  11.165  23.545  0.00  0.00    +0.000 HD
ENDBRANCH  16  18
ENDBRANCH  13  16
ENDBRANCH   9  10
ENDBRANCH   4   8
BRANCH   6  20
ATOM     20  C   UNL     1       4.684   2.960  19.100  0.00  0.00    +0.000 C 
ATOM     21  O   UNL     1       4.997   2.800  20.277  0.00  0.00    +0.000 OA
ENDBRANCH   6  20
BRANCH   7  22
ATOM     22  O   UNL     1       6.942   4.681  18.726  0.00  0.00    +0.000 OA
ATOM     23  H   UNL     1       7.521   5.465  18.867  0.00  0.00    +0.000 HD
ENDBRANCH   7  22
BRANCH   5  24
ATOM     24  C   UNL     1       2.001   4.019  18.268  0.00  0.00    +0.000 C 
BRANCH  24  25
ATOM     25  O   UNL     1       1.260   4.408  19.414  0.00  0.00    +0.000 OA
BRANCH  25  26
ATOM     26  P   UNL     1       1.252   3.375  20.801  0.00  0.00    +0.000 P 
ATOM     27  O   UNL     1       1.754   2.163  20.021  0.00  0.00    +0.000 OA
BRANCH  26  28
ATOM     28  O   UNL     1       2.549   4.133  21.429  0.00  0.00    +0.000 OA
ATOM     29  H   UNL     1       2.586   5.064  21.139  0.00  0.00    +0.000 HD
ENDBRANCH  26  28
BRANCH  26  30
ATOM     30  O   UNL     1       1.241   2.342  22.190  0.00  0.00    +0.000 OA
ATOM     31  H   UNL     1       1.641   2.921  22.874  0.00  0.00    +0.000 HD
ENDBRANCH  26  30
ENDBRANCH  25  26
ENDBRANCH  24  25
ENDBRANCH   5  24
TORSDOF 11
ENDMDL
MODEL 7
REMARK VINA RESULT:      -6.5      0.859      1.221
REMARK  Name = 
REMARK  12 active torsions:
REMARK  status: ('A' for Active; 'I' for Inactive)
REMARK    1  A    between atoms: C_1  and  C_2
REMARK    2  A    between atoms: C_4  and  N_5
REMARK    3  A    between atoms: N_6  and  C_7
REMARK    4  A    between atoms: C_10  and  C_11
REMARK    5  A    between atoms: C_11  and  O_13
REMARK    6  A    between atoms: C_16  and  C_17
REMARK    7  A    between atoms: C_17  and  O_18
REMARK    8  A    between atoms: O_18  and  P_19
REMARK    9  A    between atoms: P_19  and  O_21
REMARK   10  A    between atoms: P_19  and  O_22
REMARK   11  A    between atoms: C_23  and  C_24
REMARK   12  A    between atoms: C_26  and  O_27
REMARK                            x       y       z     vdW  Elec       q    Type
REMARK                         _______ _______ _______ _____ _____    ______ ____
ROOT
ATOM      1  C   UNL     1       7.416   7.972  17.414  0.00  0.00    +0.000 C 
ATOM      2  C   UNL     1       6.466   6.815  17.372  0.00  0.00    +0.000 A 
ATOM      3  N   UNL     1       5.521   6.787  18.330  0.00  0.00    +0.000 NA
ATOM      4  C   UNL     1       4.619   5.774  18.340  0.00  0.00    +0.000 A 
ATOM      5  C   UNL     1       4.582   4.766  17.367  0.00  0.00    +0.000 A 
ATOM      6  C   UNL     1       5.609   4.789  16.404  0.00  0.00    +0.000 A 
ATOM      7  C   UNL     1       6.557   5.827  16.403  0.00  0.00    +0.000 A 
ENDROOT
BRANCH   4   8
ATOM      8  N   UNL     1       3.732   5.732  19.444  0.00  0.00    +0.000 NA
ATOM      9  N   UNL     1       2.543   5.942  19.129  0.00  0.00    +0.000 NA
BRANCH   9  10
ATOM     10  C   UNL     1       2.166   7.301  19.199  0.00  0.00    +0.000 A 
ATOM     11  C   UNL     1       2.185   8.031  18.005  0.00  0.00    +0.000 A 
ATOM     12  C   UNL     1       1.743   9.356  17.965  0.00  0.00    +0.000 A 
ATOM     13  C   UNL     1       1.265   9.959  19.131  0.00  0.00    +0.000 A 
ATOM     14  C   UNL     1       1.310   9.269  20.345  0.00  0.00    +0.000 A 
ATOM     15  C   UNL     1       1.757   7.948  20.377  0.00  0.00    +0.000 A 
BRANCH  13  16
ATOM     16  C   UNL     1       0.606  11.281  19.114  0.00  0.00    +0.000 C 
ATOM     17  O   UNL     1       0.311  11.908  18.116  0.00  0.00    +0.000 OA
BRANCH  16  18
ATOM     18  O   UNL     1       0.373  11.764  20.347  0.00  0.00    +0.000 OA
ATOM     19  H   UNL     1       1.256  12.074  20.642  0.00  0.00    +0.000 HD
ENDBRANCH  16  18
ENDBRANCH  13  16
ENDBRANCH   9  10
ENDBRANCH   4   8
BRANCH   6  20
ATOM     20  C   UNL     1       5.741   3.716  15.389  0.00  0.00    +0.000 C 
ATOM     21  O   UNL     1       5.947   3.989  14.210  0.00  0.00    +0.000 OA
ENDBRANCH   6  20
BRANCH   7  22
ATOM     22  O   UNL     1       7.574   5.914  15.491  0.00  0.00    +0.000 OA
ATOM     23  H   UNL     1       7.185   6.033  14.594  0.00  0.00    +0.000 HD
ENDBRANCH   7  22
BRANCH   5  24
ATOM     24  C   UNL     1       3.520   3.690  17.409  0.00  0.00    +0.000 C 
BRANCH  24  25
ATOM     25  O   UNL     1       4.064   2.478  17.908  0.00  0.00    +0.000 OA
BRANCH  25  26
ATOM     26  P   UNL     1       3.977   2.152  19.604  0.00  0.00    +0.000 P 
ATOM     27  O   UNL     1       5.238   2.951  19.921  0.00  0.00    +0.000 OA
BRANCH  26  28
ATOM     28  O   UNL     1       2.701   3.149  19.776  0.00  0.00    +0.000 OA
ATOM     29  H   UNL     1       2.390   3.474  18.909  0.00  0.00    +0.000 HD
ENDBRANCH  26  28
BRANCH  26  30
ATOM     30  O   UNL     1       3.889   1.824  21.301  0.00  0.00    +0.000 OA
ATOM     31  H   UNL     1       4.027   0.852  21.325  0.00  0.00    +0.000 HD
ENDBRANCH  26  30
ENDBRANCH  25  26
ENDBRANCH  24  25
ENDBRANCH   5  24
TORSDOF 11
ENDMDL
MODEL 8
REMARK VINA RESULT:      -6.4      2.405      4.747
REMARK  Name = 
REMARK  12 active torsions:
REMARK  status: ('A' for Active; 'I' for Inactive)
REMARK    1  A    between atoms: C_1  and  C_2
REMARK    2  A    between atoms: C_4  and  N_5
REMARK    3  A    between atoms: N_6  and  C_7
REMARK    4  A    between atoms: C_10  and  C_11
REMARK    5  A    between atoms: C_11  and  O_13
REMARK    6  A    between atoms: C_16  and  C_17
REMARK    7  A    between atoms: C_17  and  O_18
REMARK    8  A    between atoms: O_18  and  P_19
REMARK    9  A    between atoms: P_19  and  O_21
REMARK   10  A    between atoms: P_19  and  O_22
REMARK   11  A    between atoms: C_23  and  C_24
REMARK   12  A    between atoms: C_26  and  O_27
REMARK                            x       y       z     vdW  Elec       q    Type
REMARK                         _______ _______ _______ _____ _____    ______ ____
ROOT
ATOM      1  C   UNL     1       0.216   2.754  18.701  0.00  0.00    +0.000 C 
ATOM      2  C   UNL     1       1.606   3.293  18.838  0.00  0.00    +0.000 A 
ATOM      3  N   UNL     1       1.859   4.455  18.206  0.00  0.00    +0.000 NA
ATOM      4  C   UNL     1       3.094   5.006  18.304  0.00  0.00    +0.000 A 
ATOM      5  C   UNL     1       4.124   4.455  19.078  0.00  0.00    +0.000 A 
ATOM      6  C   UNL     1       3.852   3.216  19.689  0.00  0.00    +0.000 A 
ATOM      7  C   UNL     1       2.579   2.633  19.574  0.00  0.00    +0.000 A 
ENDROOT
BRANCH   4   8
ATOM      8  N   UNL     1       3.334   6.158  17.515  0.00  0.00    +0.000 NA
ATOM      9  N   UNL     1       3.647   7.161  18.188  0.00  0.00    +0.000 NA
BRANCH   9  10
ATOM     10  C   UNL     1       2.545   7.958  18.569  0.00  0.00    +0.000 A 
ATOM     11  C   UNL     1       2.109   7.854  19.896  0.00  0.00    +0.000 A 
ATOM     12  C   UNL     1       1.085   8.669  20.383  0.00  0.00    +0.000 A 
ATOM     13  C   UNL     1       0.493   9.611  19.538  0.00  0.00    +0.000 A 
ATOM     14  C   UNL     1       0.864   9.676  18.192  0.00  0.00    +0.000 A 
ATOM     15  C   UNL     1       1.884   8.854  17.713  0.00  0.00    +0.000 A 
BRANCH  13  16
ATOM     16  C   UNL     1      -0.452  10.629  20.041  0.00  0.00    +0.000 C 
ATOM     17  O   UNL     1      -0.997  11.479  19.365  0.00  0.00    +0.000 OA
BRANCH  16  18
ATOM     18  O   UNL     1      -0.647  10.549  21.370  0.00  0.00    +0.000 OA
ATOM     19  H   UNL     1      -0.722  11.488  21.646  0.00  0.00    +0.000 HD
ENDBRANCH  16  18
ENDBRANCH  13  16
ENDBRANCH   9  10
ENDBRANCH   4   8
BRANCH   6  20
ATOM     20  C   UNL     1       4.896   2.481  20.443  0.00  0.00    +0.000 C 
ATOM     21  O   UNL     1       5.138   1.302  20.196  0.00  0.00    +0.000 OA
ENDBRANCH   6  20
BRANCH   7  22
ATOM     22  O   UNL     1       2.246   1.437  20.151  0.00  0.00    +0.000 OA
ATOM     23  H   UNL     1       1.933   1.606  21.070  0.00  0.00    +0.000 HD
ENDBRANCH   7  22
BRANCH   5  24
ATOM     24  C   UNL     1       5.466   5.145  19.182  0.00  0.00    +0.000 C 
BRANCH  24  25
ATOM     25  O   UNL     1       6.451   4.421  18.460  0.00  0.00    +0.000 OA
BRANCH  25  26
ATOM     26  P   UNL     1       6.968   5.012  16.919  0.00  0.00    +0.000 P 
ATOM     27  O   UNL     1       5.914   4.216  16.153  0.00  0.00    +0.000 OA
BRANCH  26  28
ATOM     28  O   UNL     1       6.348   6.486  17.226  0.00  0.00    +0.000 OA
ATOM     29  H   UNL     1       5.668   6.443  17.924  0.00  0.00    +0.000 HD
ENDBRANCH  26  28
BRANCH  26  30
ATOM     30  O   UNL     1       7.486   5.602  15.377  0.00  0.00    +0.000 OA
ATOM     31  H   UNL     1       7.715   6.534  15.585  0.00  0.00    +0.000 HD
ENDBRANCH  26  30
ENDBRANCH  25  26
ENDBRANCH  24  25
ENDBRANCH   5  24
TORSDOF 11
ENDMDL
MODEL 9
REMARK VINA RESULT:      -6.4      2.458      4.848
REMARK  Name = 
REMARK  12 active torsions:
REMARK  status: ('A' for Active; 'I' for Inactive)
REMARK    1  A    between atoms: C_1  and  C_2
REMARK    2  A    between atoms: C_4  and  N_5
REMARK    3  A    between atoms: N_6  and  C_7
REMARK    4  A    between atoms: C_10  and  C_11
REMARK    5  A    between atoms: C_11  and  O_13
REMARK    6  A    between atoms: C_16  and  C_17
REMARK    7  A    between atoms: C_17  and  O_18
REMARK    8  A    between atoms: O_18  and  P_19
REMARK    9  A    between atoms: P_19  and  O_21
REMARK   10  A    between atoms: P_19  and  O_22
REMARK   11  A    between atoms: C_23  and  C_24
REMARK   12  A    between atoms: C_26  and  O_27
REMARK                            x       y       z     vdW  Elec       q    Type
REMARK                         _______ _______ _______ _____ _____    ______ ____
ROOT
ATOM      1  C   UNL     1       0.214   2.642  18.634  0.00  0.00    +0.000 C 
ATOM      2  C   UNL     1       1.580   3.226  18.828  0.00  0.00    +0.000 A 
ATOM      3  N   UNL     1       1.830   4.382  18.186  0.00  0.00    +0.000 NA
ATOM      4  C   UNL     1       3.042   4.971  18.332  0.00  0.00    +0.000 A 
ATOM      5  C   UNL     1       4.049   4.466  19.165  0.00  0.00    +0.000 A 
ATOM      6  C   UNL     1       3.783   3.231  19.788  0.00  0.00    +0.000 A 
ATOM      7  C   UNL     1       2.534   2.608  19.623  0.00  0.00    +0.000 A 
ENDROOT
BRANCH   4   8
ATOM      8  N   UNL     1       3.287   6.115  17.532  0.00  0.00    +0.000 NA
ATOM      9  N   UNL     1       3.615   7.120  18.196  0.00  0.00    +0.000 NA
BRANCH   9  10
ATOM     10  C   UNL     1       2.524   7.930  18.579  0.00  0.00    +0.000 A 
ATOM     11  C   UNL     1       2.085   7.826  19.905  0.00  0.00    +0.000 A 
ATOM     12  C   UNL     1       1.071   8.653  20.395  0.00  0.00    +0.000 A 
ATOM     13  C   UNL     1       0.494   9.608  19.554  0.00  0.00    +0.000 A 
ATOM     14  C   UNL     1       0.868   9.674  18.208  0.00  0.00    +0.000 A 
ATOM     15  C   UNL     1       1.877   8.840  17.726  0.00  0.00    +0.000 A 
BRANCH  13  16
ATOM     16  C   UNL     1      -0.437  10.637  20.061  0.00  0.00    +0.000 C 
ATOM     17  O   UNL     1      -0.449  11.078  21.193  0.00  0.00    +0.000 OA
BRANCH  16  18
ATOM     18  O   UNL     1      -1.322  11.044  19.133  0.00  0.00    +0.000 OA
ATOM     19  H   UNL     1      -0.965  11.911  18.843  0.00  0.00    +0.000 HD
ENDBRANCH  16  18
ENDBRANCH  13  16
ENDBRANCH   9  10
ENDBRANCH   4   8
BRANCH   6  20
ATOM     20  C   UNL     1       4.809   2.541  20.606  0.00  0.00    +0.000 C 
ATOM     21  O   UNL     1       5.165   1.398  20.335  0.00  0.00    +0.000 OA
ENDBRANCH   6  20
BRANCH   7  22
ATOM     22  O   UNL     1       2.207   1.414  20.207  0.00  0.00    +0.000 OA
ATOM     23  H   UNL     1       3.015   0.853  20.252  0.00  0.00    +0.000 HD
ENDBRANCH   7  22
BRANCH   5  24
ATOM     24  C   UNL     1       5.364   5.197  19.321  0.00  0.00    +0.000 C 
BRANCH  24  25
ATOM     25  O   UNL     1       6.396   4.509  18.632  0.00  0.00    +0.000 OA
BRANCH  25  26
ATOM     26  P   UNL     1       6.923   5.104  17.095  0.00  0.00    +0.000 P 
ATOM     27  O   UNL     1       7.399   6.437  17.666  0.00  0.00    +0.000 OA
BRANCH  26  28
ATOM     28  O   UNL     1       8.193   4.086  17.086  0.00  0.00    +0.000 OA
ATOM     29  H   UNL     1       7.905   3.163  17.221  0.00  0.00    +0.000 HD
ENDBRANCH  26  28
BRANCH  26  30
ATOM     30  O   UNL     1       7.448   5.699  15.557  0.00  0.00    +0.000 OA
ATOM     31  H   UNL     1       7.747   6.606  15.784  0.00  0.00    +0.000 HD
ENDBRANCH  26  30
ENDBRANCH  25  26
ENDBRANCH  24  25
ENDBRANCH   5  24
TORSDOF 11
ENDMDL
