MODEL 1
REMARK VINA RESULT:      -8.4      0.000      0.000
REMARK  Name = 
REMARK  7 active torsions:
REMARK  status: ('A' for Active; 'I' for Inactive)
REMARK    1  A    between atoms: C_1  and  C_2
REMARK    2  A    between atoms: C_4  and  N_5
REMARK    3  A    between atoms: C_7  and  C_8
REMARK    4  A    between atoms: C_13  and  N_14
REMARK    5  A    between atoms: C_15  and  C_17
REMARK    6  A    between atoms: C_19  and  C_20
REMARK    7  A    between atoms: C_23  and  O_24
REMARK                            x       y       z     vdW  Elec       q    Type
REMARK                         _______ _______ _______ _____ _____    ______ ____
ROOT
ATOM      1  N   UNL     1       3.439   6.566  19.565  0.00  0.00    +0.000 N 
ATOM      2  C   UNL     1       2.700   7.544  18.890  0.00  0.00    +0.000 C 
ATOM      3  O   UNL     1       2.796   7.787  17.694  0.00  0.00    +0.000 OA
ATOM      4  H   UNL     1       3.322   6.545  20.570  0.00  0.00    +0.000 HD
ENDROOT
BRANCH   2   5
ATOM      5  C   UNL     1       1.755   8.375  19.727  0.00  0.00    +0.000 A 
ATOM      6  N   UNL     1       1.497   9.671  19.346  0.00  0.00    +0.000 NA
ATOM      7  C   UNL     1       0.638  10.389  20.143  0.00  0.00    +0.000 A 
ATOM      8  C   UNL     1       0.062   9.846  21.299  0.00  0.00    +0.000 A 
ATOM      9  C   UNL     1       0.344   8.533  21.658  0.00  0.00    +0.000 A 
ATOM     10  C   UNL     1       1.188   7.785  20.854  0.00  0.00    +0.000 A 
ATOM     11  F   UNL     1       1.451   6.524  21.222  0.00  0.00    +0.000 F 
BRANCH   7  12
ATOM     12  C   UNL     1       0.345  11.784  19.745  0.00  0.00    +0.000 A 
ATOM     13  C   UNL     1       0.912  12.882  20.421  0.00  0.00    +0.000 A 
ATOM     14  C   UNL     1       0.615  14.202  20.045  0.00  0.00    +0.000 A 
ATOM     15  C   UNL     1      -0.253  14.441  18.982  0.00  0.00    +0.000 A 
ATOM     16  C   UNL     1      -0.800  13.385  18.276  0.00  0.00    +0.000 A 
ATOM     17  C   UNL     1      -0.496  12.079  18.654  0.00  0.00    +0.000 A 
ATOM     18  F   UNL     1      -1.044  11.086  17.935  0.00  0.00    +0.000 F 
BRANCH  15  19
ATOM     19  O   UNL     1      -0.594  15.703  18.602  0.00  0.00    +0.000 OA
ATOM     20  H   UNL     1       0.011  16.338  19.019  0.00  0.00    +0.000 HD
ENDBRANCH  15  19
ENDBRANCH   7  12
ENDBRANCH   2   5
BRANCH   1  26
ATOM     21  C   UNL     1       4.004   4.693  17.984  0.00  0.00    +0.000 A 
ATOM     22  C   UNL     1       5.060   4.033  17.313  0.00  0.00    +0.000 A 
ATOM     23  C   UNL     1       6.370   4.183  17.736  0.00  0.00    +0.000 A 
ATOM     24  N   UNL     1       6.723   4.981  18.748  0.00  0.00    +0.000 NA
ATOM     25  C   UNL     1       5.729   5.707  19.317  0.00  0.00    +0.000 A 
ATOM     26  C   UNL     1       4.371   5.662  18.962  0.00  0.00    +0.000 A 
BRANCH  21  32
ATOM     27  C   UNL     1       3.063   3.366  20.757  0.00  0.00    +0.000 C 
ATOM     28  C   UNL     1       1.779   3.266  19.929  0.00  0.00    +0.000 C 
ATOM     29  C   UNL     1       1.615   1.870  19.327  0.00  0.00    +0.000 C 
ATOM     30  C   UNL     1       2.422   1.612  18.042  0.00  0.00    +0.000 C 
ATOM     31  C   UNL     1       2.381   2.799  17.050  0.00  0.00    +0.000 C 
ATOM     32  C   UNL     1       2.569   4.240  17.657  0.00  0.00    +0.000 C 
ATOM     33  C   UNL     1       1.553   4.302  18.814  0.00  0.00    +0.000 C 
BRANCH  30  34
ATOM     34  N   UNL     1       3.783   1.177  18.341  0.00  0.00    +0.000 NA
ATOM     35  H   UNL     1       3.970   1.209  19.340  0.00  0.00    +0.000 HD
ATOM     36  H   UNL     1       4.455   1.807  17.908  0.00  0.00    +0.000 HD
ENDBRANCH  30  34
ENDBRANCH  21  32
ENDBRANCH   1  26
TORSDOF 6
ENDMDL
MODEL 2
REMARK VINA RESULT:      -8.4      1.565      1.959
REMARK  Name = 
REMARK  7 active torsions:
REMARK  status: ('A' for Active; 'I' for Inactive)
REMARK    1  A    between atoms: C_1  and  C_2
REMARK    2  A    between atoms: C_4  and  N_5
REMARK    3  A    between atoms: C_7  and  C_8
REMARK    4  A    between atoms: C_13  and  N_14
REMARK    5  A    between atoms: C_15  and  C_17
REMARK    6  A    between atoms: C_19  and  C_20
REMARK    7  A    between atoms: C_23  and  O_24
REMARK                            x       y       z     vdW  Elec       q    Type
REMARK                         _______ _______ _______ _____ _____    ______ ____
ROOT
ATOM      1  N   UNL     1       2.630   7.350  18.989  0.00  0.00    +0.000 N 
ATOM      2  C   UNL     1       2.019   8.473  18.420  0.00  0.00    +0.000 C 
ATOM      3  O   UNL     1       1.977   8.708  17.219  0.00  0.00    +0.000 OA
ATOM      4  H   UNL     1       2.669   7.338  20.000  0.00  0.00    +0.000 HD
ENDROOT
BRANCH   2   5
ATOM      5  C   UNL     1       1.415   9.472  19.378  0.00  0.00    +0.000 A 
ATOM      6  N   UNL     1       1.400  10.802  19.027  0.00  0.00    +0.000 NA
ATOM      7  C   UNL     1       0.847  11.674  19.935  0.00  0.00    +0.000 A 
ATOM      8  C   UNL     1       0.338  11.244  21.167  0.00  0.00    +0.000 A 
ATOM      9  C   UNL     1       0.368   9.894  21.492  0.00  0.00    +0.000 A 
ATOM     10  C   UNL     1       0.898   8.996  20.581  0.00  0.00    +0.000 A 
ATOM     11  F   UNL     1       0.922   7.700  20.917  0.00  0.00    +0.000 F 
BRANCH   7  12
ATOM     12  C   UNL     1       0.820  13.109  19.572  0.00  0.00    +0.000 A 
ATOM     13  C   UNL     1      -0.356  13.734  19.116  0.00  0.00    +0.000 A 
ATOM     14  C   UNL     1      -0.368  15.093  18.759  0.00  0.00    +0.000 A 
ATOM     15  C   UNL     1       0.801  15.845  18.858  0.00  0.00    +0.000 A 
ATOM     16  C   UNL     1       1.964  15.269  19.336  0.00  0.00    +0.000 A 
ATOM     17  C   UNL     1       1.964  13.922  19.691  0.00  0.00    +0.000 A 
ATOM     18  F   UNL     1       3.114  13.408  20.156  0.00  0.00    +0.000 F 
BRANCH  15  19
ATOM     19  O   UNL     1       0.845  17.156  18.495  0.00  0.00    +0.000 OA
ATOM     20  H   UNL     1       0.280  17.293  17.717  0.00  0.00    +0.000 HD
ENDBRANCH  15  19
ENDBRANCH   7  12
ENDBRANCH   2   5
BRANCH   1  26
ATOM     21  C   UNL     1       2.601   5.031  18.016  0.00  0.00    +0.000 A 
ATOM     22  C   UNL     1       3.233   4.161  17.096  0.00  0.00    +0.000 A 
ATOM     23  C   UNL     1       4.506   4.433  16.626  0.00  0.00    +0.000 A 
ATOM     24  N   UNL     1       5.188   5.533  16.960  0.00  0.00    +0.000 NA
ATOM     25  C   UNL     1       4.540   6.427  17.747  0.00  0.00    +0.000 A 
ATOM     26  C   UNL     1       3.243   6.278  18.264  0.00  0.00    +0.000 A 
BRANCH  21  32
ATOM     27  C   UNL     1       3.793   3.826  20.748  0.00  0.00    +0.000 C 
ATOM     28  C   UNL     1       2.291   3.635  20.970  0.00  0.00    +0.000 C 
ATOM     29  C   UNL     1       1.860   2.204  20.650  0.00  0.00    +0.000 C 
ATOM     30  C   UNL     1       1.641   1.904  19.157  0.00  0.00    +0.000 C 
ATOM     31  C   UNL     1       0.885   3.033  18.415  0.00  0.00    +0.000 C 
ATOM     32  C   UNL     1       1.335   4.510  18.721  0.00  0.00    +0.000 C 
ATOM     33  C   UNL     1       1.326   4.600  20.260  0.00  0.00    +0.000 C 
BRANCH  30  34
ATOM     34  N   UNL     1       2.887   1.533  18.495  0.00  0.00    +0.000 NA
ATOM     35  H   UNL     1       3.664   1.519  19.152  0.00  0.00    +0.000 HD
ATOM     36  H   UNL     1       3.129   2.226  17.789  0.00  0.00    +0.000 HD
ENDBRANCH  30  34
ENDBRANCH  21  32
ENDBRANCH   1  26
TORSDOF 6
ENDMDL
MODEL 3
REMARK VINA RESULT:      -8.3      1.276      1.495
REMARK  Name = 
REMARK  7 active torsions:
REMARK  status: ('A' for Active; 'I' for Inactive)
REMARK    1  A    between atoms: C_1  and  C_2
REMARK    2  A    between atoms: C_4  and  N_5
REMARK    3  A    between atoms: C_7  and  C_8
REMARK    4  A    between atoms: C_13  and  N_14
REMARK    5  A    between atoms: C_15  and  C_17
REMARK    6  A    between atoms: C_19  and  C_20
REMARK    7  A    between atoms: C_23  and  O_24
REMARK                            x       y       z     vdW  Elec       q    Type
REMARK                         _______ _______ _______ _____ _____    ______ ____
ROOT
ATOM      1  N   UNL     1       2.706   7.214  18.967  0.00  0.00    +0.000 N 
ATOM      2  C   UNL     1       2.116   8.355  18.412  0.00  0.00    +0.000 C 
ATOM      3  O   UNL     1       2.088   8.611  17.215  0.00  0.00    +0.000 OA
ATOM      4  H   UNL     1       2.737   7.185  19.978  0.00  0.00    +0.000 HD
ENDROOT
BRANCH   2   5
ATOM      5  C   UNL     1       1.518   9.347  19.382  0.00  0.00    +0.000 A 
ATOM      6  N   UNL     1       1.491  10.678  19.037  0.00  0.00    +0.000 NA
ATOM      7  C   UNL     1       0.945  11.543  19.956  0.00  0.00    +0.000 A 
ATOM      8  C   UNL     1       0.453  11.104  21.193  0.00  0.00    +0.000 A 
ATOM      9  C   UNL     1       0.496   9.753  21.512  0.00  0.00    +0.000 A 
ATOM     10  C   UNL     1       1.020   8.863  20.590  0.00  0.00    +0.000 A 
ATOM     11  F   UNL     1       1.056   7.565  20.919  0.00  0.00    +0.000 F 
BRANCH   7  12
ATOM     12  C   UNL     1       0.904  12.979  19.600  0.00  0.00    +0.000 A 
ATOM     13  C   UNL     1       1.993  13.835  19.851  0.00  0.00    +0.000 A 
ATOM     14  C   UNL     1       1.937  15.200  19.523  0.00  0.00    +0.000 A 
ATOM     15  C   UNL     1       0.789  15.725  18.934  0.00  0.00    +0.000 A 
ATOM     16  C   UNL     1      -0.284  14.903  18.643  0.00  0.00    +0.000 A 
ATOM     17  C   UNL     1      -0.218  13.550  18.968  0.00  0.00    +0.000 A 
ATOM     18  F   UNL     1      -1.281  12.790  18.660  0.00  0.00    +0.000 F 
BRANCH  15  19
ATOM     19  O   UNL     1       0.679  17.046  18.627  0.00  0.00    +0.000 OA
ATOM     20  H   UNL     1       0.906  17.578  19.407  0.00  0.00    +0.000 HD
ENDBRANCH  15  19
ENDBRANCH   7  12
ENDBRANCH   2   5
BRANCH   1  26
ATOM     21  C   UNL     1       2.642   4.923  17.930  0.00  0.00    +0.000 A 
ATOM     22  C   UNL     1       3.275   4.062  17.003  0.00  0.00    +0.000 A 
ATOM     23  C   UNL     1       4.567   4.312  16.573  0.00  0.00    +0.000 A 
ATOM     24  N   UNL     1       5.269   5.384  16.955  0.00  0.00    +0.000 NA
ATOM     25  C   UNL     1       4.624   6.274  17.749  0.00  0.00    +0.000 A 
ATOM     26  C   UNL     1       3.310   6.146  18.229  0.00  0.00    +0.000 A 
BRANCH  21  32
ATOM     27  C   UNL     1       3.686   3.911  20.797  0.00  0.00    +0.000 C 
ATOM     28  C   UNL     1       2.176   3.701  20.940  0.00  0.00    +0.000 C 
ATOM     29  C   UNL     1       1.792   2.243  20.683  0.00  0.00    +0.000 C 
ATOM     30  C   UNL     1       1.671   1.851  19.200  0.00  0.00    +0.000 C 
ATOM     31  C   UNL     1       0.942   2.916  18.346  0.00  0.00    +0.000 C 
ATOM     32  C   UNL     1       1.345   4.418  18.588  0.00  0.00    +0.000 C 
ATOM     33  C   UNL     1       1.239   4.600  20.115  0.00  0.00    +0.000 C 
BRANCH  30  34
ATOM     34  N   UNL     1       2.962   1.468  18.638  0.00  0.00    +0.000 NA
ATOM     35  H   UNL     1       2.855   0.770  17.906  0.00  0.00    +0.000 HD
ATOM     36  H   UNL     1       3.542   1.036  19.356  0.00  0.00    +0.000 HD
ENDBRANCH  30  34
ENDBRANCH  21  32
ENDBRANCH   1  26
TORSDOF 6
ENDMDL
MODEL 4
REMARK VINA RESULT:      -8.0      3.130      8.374
REMARK  Name = 
REMARK  7 active torsions:
REMARK  status: ('A' for Active; 'I' for Inactive)
REMARK    1  A    between atoms: C_1  and  C_2
REMARK    2  A    between atoms: C_4  and  N_5
REMARK    3  A    between atoms: C_7  and  C_8
REMARK    4  A    between atoms: C_13  and  N_14
REMARK    5  A    between atoms: C_15  and  C_17
REMARK    6  A    between atoms: C_19  and  C_20
REMARK    7  A    between atoms: C_23  and  O_24
REMARK                            x       y       z     vdW  Elec       q    Type
REMARK                         _______ _______ _______ _____ _____    ______ ____
ROOT
ATOM      1  N   UNL     1       1.953   7.498  21.046  0.00  0.00    +0.000 N 
ATOM      2  C   UNL     1       1.426   6.266  20.645  0.00  0.00    +0.000 C 
ATOM      3  O   UNL     1       0.236   5.977  20.668  0.00  0.00    +0.000 OA
ATOM      4  H   UNL     1       2.963   7.558  21.062  0.00  0.00    +0.000 HD
ENDROOT
BRANCH   2   5
ATOM      5  C   UNL     1       2.420   5.220  20.196  0.00  0.00    +0.000 A 
ATOM      6  N   UNL     1       3.255   5.508  19.141  0.00  0.00    +0.000 NA
ATOM      7  C   UNL     1       4.136   4.522  18.765  0.00  0.00    +0.000 A 
ATOM      8  C   UNL     1       4.179   3.276  19.404  0.00  0.00    +0.000 A 
ATOM      9  C   UNL     1       3.323   3.016  20.466  0.00  0.00    +0.000 A 
ATOM     10  C   UNL     1       2.444   4.005  20.877  0.00  0.00    +0.000 A 
ATOM     11  F   UNL     1       1.624   3.731  21.899  0.00  0.00    +0.000 F 
BRANCH   7  12
ATOM     12  C   UNL     1       5.045   4.816  17.634  0.00  0.00    +0.000 A 
ATOM     13  C   UNL     1       4.728   4.442  16.314  0.00  0.00    +0.000 A 
ATOM     14  C   UNL     1       5.605   4.712  15.250  0.00  0.00    +0.000 A 
ATOM     15  C   UNL     1       6.811   5.365  15.495  0.00  0.00    +0.000 A 
ATOM     16  C   UNL     1       7.136   5.776  16.775  0.00  0.00    +0.000 A 
ATOM     17  C   UNL     1       6.258   5.507  17.823  0.00  0.00    +0.000 A 
ATOM     18  F   UNL     1       6.612   5.931  19.047  0.00  0.00    +0.000 F 
BRANCH  15  19
ATOM     19  O   UNL     1       7.705   5.621  14.501  0.00  0.00    +0.000 OA
ATOM     20  H   UNL     1       8.604   5.618  14.868  0.00  0.00    +0.000 HD
ENDBRANCH  15  19
ENDBRANCH   7  12
ENDBRANCH   2   5
BRANCH   1  26
ATOM     21  C   UNL     1       0.459   9.472  20.603  0.00  0.00    +0.000 A 
ATOM     22  C   UNL     1      -0.428  10.401  21.197  0.00  0.00    +0.000 A 
ATOM     23  C   UNL     1      -0.425  10.604  22.567  0.00  0.00    +0.000 A 
ATOM     24  N   UNL     1       0.359   9.919  23.405  0.00  0.00    +0.000 NA
ATOM     25  C   UNL     1       1.125   8.946  22.853  0.00  0.00    +0.000 A 
ATOM     26  C   UNL     1       1.190   8.627  21.486  0.00  0.00    +0.000 A 
BRANCH  21  32
ATOM     27  C   UNL     1       1.708  12.399  20.149  0.00  0.00    +0.000 C 
ATOM     28  C   UNL     1       1.719  11.847  18.721  0.00  0.00    +0.000 C 
ATOM     29  C   UNL     1       0.516  12.352  17.923  0.00  0.00    +0.000 C 
ATOM     30  C   UNL     1      -0.799  11.592  18.170  0.00  0.00    +0.000 C 
ATOM     31  C   UNL     1      -0.611  10.057  18.235  0.00  0.00    +0.000 C 
ATOM     32  C   UNL     1       0.612   9.526  19.072  0.00  0.00    +0.000 C 
ATOM     33  C   UNL     1       1.817  10.324  18.534  0.00  0.00    +0.000 C 
BRANCH  30  34
ATOM     34  N   UNL     1      -1.516  12.120  19.326  0.00  0.00    +0.000 NA
ATOM     35  H   UNL     1      -1.931  13.026  19.121  0.00  0.00    +0.000 HD
ATOM     36  H   UNL     1      -0.870  12.276  20.097  0.00  0.00    +0.000 HD
ENDBRANCH  30  34
ENDBRANCH  21  32
ENDBRANCH   1  26
TORSDOF 6
ENDMDL
MODEL 5
REMARK VINA RESULT:      -8.0      2.436      4.150
REMARK  Name = 
REMARK  7 active torsions:
REMARK  status: ('A' for Active; 'I' for Inactive)
REMARK    1  A    between atoms: C_1  and  C_2
REMARK    2  A    between atoms: C_4  and  N_5
REMARK    3  A    between atoms: C_7  and  C_8
REMARK    4  A    between atoms: C_13  and  N_14
REMARK    5  A    between atoms: C_15  and  C_17
REMARK    6  A    between atoms: C_19  and  C_20
REMARK    7  A    between atoms: C_23  and  O_24
REMARK                            x       y       z     vdW  Elec       q    Type
REMARK                         _______ _______ _______ _____ _____    ______ ____
ROOT
ATOM      1  N   UNL     1       2.422   6.447  18.198  0.00  0.00    +0.000 N 
ATOM      2  C   UNL     1       1.986   7.076  19.369  0.00  0.00    +0.000 C 
ATOM      3  O   UNL     1       1.869   6.521  20.455  0.00  0.00    +0.000 OA
ATOM      4  H   UNL     1       2.376   7.008  17.357  0.00  0.00    +0.000 HD
ENDROOT
BRANCH   2   5
ATOM      5  C   UNL     1       1.597   8.531  19.250  0.00  0.00    +0.000 A 
ATOM      6  N   UNL     1       0.713   9.057  20.164  0.00  0.00    +0.000 NA
ATOM      7  C   UNL     1       0.383  10.383  20.010  0.00  0.00    +0.000 A 
ATOM      8  C   UNL     1       0.900  11.164  18.968  0.00  0.00    +0.000 A 
ATOM      9  C   UNL     1       1.790  10.602  18.061  0.00  0.00    +0.000 A 
ATOM     10  C   UNL     1       2.154   9.275  18.213  0.00  0.00    +0.000 A 
ATOM     11  F   UNL     1       3.009   8.752  17.325  0.00  0.00    +0.000 F 
BRANCH   7  12
ATOM     12  C   UNL     1      -0.563  10.967  20.986  0.00  0.00    +0.000 A 
ATOM     13  C   UNL     1      -1.542  11.903  20.600  0.00  0.00    +0.000 A 
ATOM     14  C   UNL     1      -2.425  12.463  21.538  0.00  0.00    +0.000 A 
ATOM     15  C   UNL     1      -2.341  12.089  22.877  0.00  0.00    +0.000 A 
ATOM     16  C   UNL     1      -1.414  11.147  23.283  0.00  0.00    +0.000 A 
ATOM     17  C   UNL     1      -0.545  10.594  22.344  0.00  0.00    +0.000 A 
ATOM     18  F   UNL     1       0.333   9.678  22.783  0.00  0.00    +0.000 F 
BRANCH  15  19
ATOM     19  O   UNL     1      -3.155  12.628  23.826  0.00  0.00    +0.000 OA
ATOM     20  H   UNL     1      -2.668  12.703  24.663  0.00  0.00    +0.000 HD
ENDBRANCH  15  19
ENDBRANCH   7  12
ENDBRANCH   2   5
BRANCH   1  26
ATOM     21  C   UNL     1       4.117   4.625  18.565  0.00  0.00    +0.000 A 
ATOM     22  C   UNL     1       4.311   3.224  18.606  0.00  0.00    +0.000 A 
ATOM     23  C   UNL     1       3.391   2.367  18.027  0.00  0.00    +0.000 A 
ATOM     24  N   UNL     1       2.262   2.789  17.450  0.00  0.00    +0.000 NA
ATOM     25  C   UNL     1       2.015   4.120  17.513  0.00  0.00    +0.000 A 
ATOM     26  C   UNL     1       2.854   5.086  18.094  0.00  0.00    +0.000 A 
BRANCH  21  32
ATOM     27  C   UNL     1       4.833   6.043  15.771  0.00  0.00    +0.000 C 
ATOM     28  C   UNL     1       5.821   6.733  16.715  0.00  0.00    +0.000 C 
ATOM     29  C   UNL     1       7.209   6.097  16.627  0.00  0.00    +0.000 C 
ATOM     30  C   UNL     1       7.388   4.803  17.441  0.00  0.00    +0.000 C 
ATOM     31  C   UNL     1       6.753   4.878  18.850  0.00  0.00    +0.000 C 
ATOM     32  C   UNL     1       5.316   5.513  18.949  0.00  0.00    +0.000 C 
ATOM     33  C   UNL     1       5.439   6.854  18.200  0.00  0.00    +0.000 C 
BRANCH  30  34
ATOM     34  N   UNL     1       6.952   3.631  16.689  0.00  0.00    +0.000 NA
ATOM     35  H   UNL     1       7.300   3.654  15.734  0.00  0.00    +0.000 HD
ATOM     36  H   UNL     1       5.936   3.619  16.619  0.00  0.00    +0.000 HD
ENDBRANCH  30  34
ENDBRANCH  21  32
ENDBRANCH   1  26
TORSDOF 6
ENDMDL
MODEL 6
REMARK VINA RESULT:      -8.0      2.435      3.971
REMARK  Name = 
REMARK  7 active torsions:
REMARK  status: ('A' for Active; 'I' for Inactive)
REMARK    1  A    between atoms: C_1  and  C_2
REMARK    2  A    between atoms: C_4  and  N_5
REMARK    3  A    between atoms: C_7  and  C_8
REMARK    4  A    between atoms: C_13  and  N_14
REMARK    5  A    between atoms: C_15  and  C_17
REMARK    6  A    between atoms: C_19  and  C_20
REMARK    7  A    between atoms: C_23  and  O_24
REMARK                            x       y       z     vdW  Elec       q    Type
REMARK                         _______ _______ _______ _____ _____    ______ ____
ROOT
ATOM      1  N   UNL     1       2.477   7.041  18.987  0.00  0.00    +0.000 N 
ATOM      2  C   UNL     1       1.871   7.750  20.030  0.00  0.00    +0.000 C 
ATOM      3  O   UNL     1       1.811   7.364  21.191  0.00  0.00    +0.000 OA
ATOM      4  H   UNL     1       2.365   7.439  18.064  0.00  0.00    +0.000 HD
ENDROOT
BRANCH   2   5
ATOM      5  C   UNL     1       1.213   9.060  19.664  0.00  0.00    +0.000 A 
ATOM      6  N   UNL     1       0.750   9.873  20.671  0.00  0.00    +0.000 NA
ATOM      7  C   UNL     1       0.152  11.051  20.288  0.00  0.00    +0.000 A 
ATOM      8  C   UNL     1       0.000  11.406  18.942  0.00  0.00    +0.000 A 
ATOM      9  C   UNL     1       0.479  10.562  17.947  0.00  0.00    +0.000 A 
ATOM     10  C   UNL     1       1.106   9.383  18.313  0.00  0.00    +0.000 A 
ATOM     11  F   UNL     1       1.555   8.582  17.339  0.00  0.00    +0.000 F 
BRANCH   7  12
ATOM     12  C   UNL     1      -0.349  11.940  21.360  0.00  0.00    +0.000 A 
ATOM     13  C   UNL     1      -1.336  11.518  22.271  0.00  0.00    +0.000 A 
ATOM     14  C   UNL     1      -1.816  12.377  23.275  0.00  0.00    +0.000 A 
ATOM     15  C   UNL     1      -1.310  13.670  23.380  0.00  0.00    +0.000 A 
ATOM     16  C   UNL     1      -0.315  14.103  22.523  0.00  0.00    +0.000 A 
ATOM     17  C   UNL     1       0.157  13.243  21.533  0.00  0.00    +0.000 A 
ATOM     18  F   UNL     1       1.127  13.705  20.728  0.00  0.00    +0.000 F 
BRANCH  15  19
ATOM     19  O   UNL     1      -1.766  14.546  24.317  0.00  0.00    +0.000 OA
ATOM     20  H   UNL     1      -1.042  15.137  24.584  0.00  0.00    +0.000 HD
ENDBRANCH  15  19
ENDBRANCH   7  12
ENDBRANCH   2   5
BRANCH   1  26
ATOM     21  C   UNL     1       4.531   5.609  18.743  0.00  0.00    +0.000 A 
ATOM     22  C   UNL     1       5.143   4.397  19.143  0.00  0.00    +0.000 A 
ATOM     23  C   UNL     1       4.391   3.373  19.693  0.00  0.00    +0.000 A 
ATOM     24  N   UNL     1       3.079   3.473  19.924  0.00  0.00    +0.000 NA
ATOM     25  C   UNL     1       2.510   4.673  19.652  0.00  0.00    +0.000 A 
ATOM     26  C   UNL     1       3.169   5.794  19.120  0.00  0.00    +0.000 A 
BRANCH  21  32
ATOM     27  C   UNL     1       4.697   4.010  15.959  0.00  0.00    +0.000 C 
ATOM     28  C   UNL     1       5.405   5.318  15.593  0.00  0.00    +0.000 C 
ATOM     29  C   UNL     1       6.925   5.161  15.653  0.00  0.00    +0.000 C 
ATOM     30  C   UNL     1       7.538   5.263  17.061  0.00  0.00    +0.000 C 
ATOM     31  C   UNL     1       6.930   6.407  17.908  0.00  0.00    +0.000 C 
ATOM     32  C   UNL     1       5.364   6.564  17.870  0.00  0.00    +0.000 C 
ATOM     33  C   UNL     1       5.020   6.590  16.368  0.00  0.00    +0.000 C 
BRANCH  30  34
ATOM     34  N   UNL     1       7.514   3.978  17.752  0.00  0.00    +0.000 NA
ATOM     35  H   UNL     1       6.571   3.597  17.792  0.00  0.00    +0.000 HD
ATOM     36  H   UNL     1       7.811   4.095  18.719  0.00  0.00    +0.000 HD
ENDBRANCH  30  34
ENDBRANCH  21  32
ENDBRANCH   1  26
TORSDOF 6
ENDMDL
MODEL 7
REMARK VINA RESULT:      -8.0      1.218      1.387
REMARK  Name = 
REMARK  7 active torsions:
REMARK  status: ('A' for Active; 'I' for Inactive)
REMARK    1  A    between atoms: C_1  and  C_2
REMARK    2  A    between atoms: C_4  and  N_5
REMARK    3  A    between atoms: C_7  and  C_8
REMARK    4  A    between atoms: C_13  and  N_14
REMARK    5  A    between atoms: C_15  and  C_17
REMARK    6  A    between atoms: C_19  and  C_20
REMARK    7  A    between atoms: C_23  and  O_24
REMARK                            x       y       z     vdW  Elec       q    Type
REMARK                         _______ _______ _______ _____ _____    ______ ____
ROOT
ATOM      1  N   UNL     1       3.077   6.992  19.004  0.00  0.00    +0.000 N 
ATOM      2  C   UNL     1       2.298   8.072  18.574  0.00  0.00    +0.000 C 
ATOM      3  O   UNL     1       2.223   8.457  17.414  0.00  0.00    +0.000 OA
ATOM      4  H   UNL     1       3.115   6.850  20.005  0.00  0.00    +0.000 HD
ENDROOT
BRANCH   2   5
ATOM      5  C   UNL     1       1.540   8.825  19.642  0.00  0.00    +0.000 A 
ATOM      6  N   UNL     1       1.145  10.118  19.388  0.00  0.00    +0.000 NA
ATOM      7  C   UNL     1       0.465  10.765  20.392  0.00  0.00    +0.000 A 
ATOM      8  C   UNL     1       0.197  10.155  21.625  0.00  0.00    +0.000 A 
ATOM      9  C   UNL     1       0.609   8.847  21.851  0.00  0.00    +0.000 A 
ATOM     10  C   UNL     1       1.274   8.170  20.842  0.00  0.00    +0.000 A 
ATOM     11  F   UNL     1       1.667   6.913  21.083  0.00  0.00    +0.000 F 
BRANCH   7  12
ATOM     12  C   UNL     1       0.030  12.156  20.134  0.00  0.00    +0.000 A 
ATOM     13  C   UNL     1      -1.328  12.524  20.167  0.00  0.00    +0.000 A 
ATOM     14  C   UNL     1      -1.732  13.845  19.905  0.00  0.00    +0.000 A 
ATOM     15  C   UNL     1      -0.777  14.815  19.610  0.00  0.00    +0.000 A 
ATOM     16  C   UNL     1       0.567  14.493  19.604  0.00  0.00    +0.000 A 
ATOM     17  C   UNL     1       0.958  13.182  19.869  0.00  0.00    +0.000 A 
ATOM     18  F   UNL     1       2.275  12.918  19.859  0.00  0.00    +0.000 F 
BRANCH  15  19
ATOM     19  O   UNL     1      -1.123  16.099  19.320  0.00  0.00    +0.000 OA
ATOM     20  H   UNL     1      -0.800  16.326  18.432  0.00  0.00    +0.000 HD
ENDBRANCH  15  19
ENDBRANCH   7  12
ENDBRANCH   2   5
BRANCH   1  26
ATOM     21  C   UNL     1       3.331   4.976  17.521  0.00  0.00    +0.000 A 
ATOM     22  C   UNL     1       4.147   4.365  16.540  0.00  0.00    +0.000 A 
ATOM     23  C   UNL     1       5.461   4.765  16.363  0.00  0.00    +0.000 A 
ATOM     24  N   UNL     1       6.019   5.763  17.055  0.00  0.00    +0.000 NA
ATOM     25  C   UNL     1       5.207   6.429  17.912  0.00  0.00    +0.000 A 
ATOM     26  C   UNL     1       3.855   6.137  18.159  0.00  0.00    +0.000 A 
BRANCH  21  32
ATOM     27  C   UNL     1       3.881   3.899  20.500  0.00  0.00    +0.000 C 
ATOM     28  C   UNL     1       2.414   3.505  20.308  0.00  0.00    +0.000 C 
ATOM     29  C   UNL     1       2.283   2.034  19.913  0.00  0.00    +0.000 C 
ATOM     30  C   UNL     1       2.522   1.732  18.423  0.00  0.00    +0.000 C 
ATOM     31  C   UNL     1       1.855   2.760  17.479  0.00  0.00    +0.000 C 
ATOM     32  C   UNL     1       2.002   4.279  17.865  0.00  0.00    +0.000 C 
ATOM     33  C   UNL     1       1.561   4.343  19.341  0.00  0.00    +0.000 C 
BRANCH  30  34
ATOM     34  N   UNL     1       3.940   1.542  18.135  0.00  0.00    +0.000 NA
ATOM     35  H   UNL     1       4.360   2.394  17.771  0.00  0.00    +0.000 HD
ATOM     36  H   UNL     1       4.058   0.838  17.409  0.00  0.00    +0.000 HD
ENDBRANCH  30  34
ENDBRANCH  21  32
ENDBRANCH   1  26
TORSDOF 6
ENDMDL
MODEL 8
REMARK VINA RESULT:      -7.9      2.632      4.136
REMARK  Name = 
REMARK  7 active torsions:
REMARK  status: ('A' for Active; 'I' for Inactive)
REMARK    1  A    between atoms: C_1  and  C_2
REMARK    2  A    between atoms: C_4  and  N_5
REMARK    3  A    between atoms: C_7  and  C_8
REMARK    4  A    between atoms: C_13  and  N_14
REMARK    5  A    between atoms: C_15  and  C_17
REMARK    6  A    between atoms: C_19  and  C_20
REMARK    7  A    between atoms: C_23  and  O_24
REMARK                            x       y       z     vdW  Elec       q    Type
REMARK                         _______ _______ _______ _____ _____    ______ ____
ROOT
ATOM      1  N   UNL     1       2.408   7.049  18.947  0.00  0.00    +0.000 N 
ATOM      2  C   UNL     1       1.851   7.777  20.004  0.00  0.00    +0.000 C 
ATOM      3  O   UNL     1       1.817   7.399  21.168  0.00  0.00    +0.000 OA
ATOM      4  H   UNL     1       2.277   7.444  18.025  0.00  0.00    +0.000 HD
ENDROOT
BRANCH   2   5
ATOM      5  C   UNL     1       1.212   9.099  19.649  0.00  0.00    +0.000 A 
ATOM      6  N   UNL     1       0.302   9.651  20.521  0.00  0.00    +0.000 NA
ATOM      7  C   UNL     1      -0.259  10.851  20.151  0.00  0.00    +0.000 A 
ATOM      8  C   UNL     1       0.059  11.481  18.941  0.00  0.00    +0.000 A 
ATOM      9  C   UNL     1       0.982  10.898  18.081  0.00  0.00    +0.000 A 
ATOM     10  C   UNL     1       1.576   9.702  18.447  0.00  0.00    +0.000 A 
ATOM     11  F   UNL     1       2.458   9.154  17.602  0.00  0.00    +0.000 F 
BRANCH   7  12
ATOM     12  C   UNL     1      -1.237  11.461  21.079  0.00  0.00    +0.000 A 
ATOM     13  C   UNL     1      -2.274  12.294  20.619  0.00  0.00    +0.000 A 
ATOM     14  C   UNL     1      -3.188  12.881  21.510  0.00  0.00    +0.000 A 
ATOM     15  C   UNL     1      -3.076  12.636  22.877  0.00  0.00    +0.000 A 
ATOM     16  C   UNL     1      -2.090  11.795  23.358  0.00  0.00    +0.000 A 
ATOM     17  C   UNL     1      -1.190  11.215  22.465  0.00  0.00    +0.000 A 
ATOM     18  F   UNL     1      -0.254  10.399  22.977  0.00  0.00    +0.000 F 
BRANCH  15  19
ATOM     19  O   UNL     1      -3.919  13.207  23.781  0.00  0.00    +0.000 OA
ATOM     20  H   UNL     1      -4.309  14.009  23.395  0.00  0.00    +0.000 HD
ENDBRANCH  15  19
ENDBRANCH   7  12
ENDBRANCH   2   5
BRANCH   1  26
ATOM     21  C   UNL     1       4.445   5.588  18.724  0.00  0.00    +0.000 A 
ATOM     22  C   UNL     1       5.026   4.357  19.110  0.00  0.00    +0.000 A 
ATOM     23  C   UNL     1       4.242   3.332  19.611  0.00  0.00    +0.000 A 
ATOM     24  N   UNL     1       2.925   3.448  19.807  0.00  0.00    +0.000 NA
ATOM     25  C   UNL     1       2.384   4.665  19.551  0.00  0.00    +0.000 A 
ATOM     26  C   UNL     1       3.076   5.787  19.066  0.00  0.00    +0.000 A 
BRANCH  21  32
ATOM     27  C   UNL     1       4.680   4.051  15.911  0.00  0.00    +0.000 C 
ATOM     28  C   UNL     1       5.416   5.357  15.598  0.00  0.00    +0.000 C 
ATOM     29  C   UNL     1       6.931   5.177  15.703  0.00  0.00    +0.000 C 
ATOM     30  C   UNL     1       7.500   5.239  17.132  0.00  0.00    +0.000 C 
ATOM     31  C   UNL     1       6.880   6.372  17.985  0.00  0.00    +0.000 C 
ATOM     32  C   UNL     1       5.318   6.552  17.900  0.00  0.00    +0.000 C 
ATOM     33  C   UNL     1       5.023   6.616  16.389  0.00  0.00    +0.000 C 
BRANCH  30  34
ATOM     34  N   UNL     1       7.437   3.940  17.792  0.00  0.00    +0.000 NA
ATOM     35  H   UNL     1       6.475   3.665  17.976  0.00  0.00    +0.000 HD
ATOM     36  H   UNL     1       7.895   3.986  18.700  0.00  0.00    +0.000 HD
ENDBRANCH  30  34
ENDBRANCH  21  32
ENDBRANCH   1  26
TORSDOF 6
ENDMDL
MODEL 9
REMARK VINA RESULT:      -7.9      2.229      2.668
REMARK  Name = 
REMARK  7 active torsions:
REMARK  status: ('A' for Active; 'I' for Inactive)
REMARK    1  A    between atoms: C_1  and  C_2
REMARK    2  A    between atoms: C_4  and  N_5
REMARK    3  A    between atoms: C_7  and  C_8
REMARK    4  A    between atoms: C_13  and  N_14
REMARK    5  A    between atoms: C_15  and  C_17
REMARK    6  A    between atoms: C_19  and  C_20
REMARK    7  A    between atoms: C_23  and  O_24
REMARK                            x       y       z     vdW  Elec       q    Type
REMARK                         _______ _______ _______ _____ _____    ______ ____
ROOT
ATOM      1  N   UNL     1       2.589   7.002  18.619  0.00  0.00    +0.000 N 
ATOM      2  C   UNL     1       2.204   8.267  18.158  0.00  0.00    +0.000 C 
ATOM      3  O   UNL     1       2.716   8.847  17.209  0.00  0.00    +0.000 OA
ATOM      4  H   UNL     1       2.141   6.692  19.471  0.00  0.00    +0.000 HD
ENDROOT
BRANCH   2   5
ATOM      5  C   UNL     1       1.107   8.962  18.931  0.00  0.00    +0.000 A 
ATOM      6  N   UNL     1       0.008   9.428  18.247  0.00  0.00    +0.000 NA
ATOM      7  C   UNL     1      -0.959  10.061  18.992  0.00  0.00    +0.000 A 
ATOM      8  C   UNL     1      -0.835  10.243  20.375  0.00  0.00    +0.000 A 
ATOM      9  C   UNL     1       0.288   9.760  21.036  0.00  0.00    +0.000 A 
ATOM     10  C   UNL     1       1.262   9.099  20.308  0.00  0.00    +0.000 A 
ATOM     11  F   UNL     1       2.338   8.647  20.964  0.00  0.00    +0.000 F 
BRANCH   7  12
ATOM     12  C   UNL     1      -2.151  10.565  18.273  0.00  0.00    +0.000 A 
ATOM     13  C   UNL     1      -2.513  10.074  17.004  0.00  0.00    +0.000 A 
ATOM     14  C   UNL     1      -3.637  10.572  16.324  0.00  0.00    +0.000 A 
ATOM     15  C   UNL     1      -4.416  11.567  16.909  0.00  0.00    +0.000 A 
ATOM     16  C   UNL     1      -4.107  12.046  18.169  0.00  0.00    +0.000 A 
ATOM     17  C   UNL     1      -2.993  11.543  18.837  0.00  0.00    +0.000 A 
ATOM     18  F   UNL     1      -2.736  12.033  20.061  0.00  0.00    +0.000 F 
BRANCH  15  19
ATOM     19  O   UNL     1      -5.496  12.100  16.274  0.00  0.00    +0.000 OA
ATOM     20  H   UNL     1      -5.421  11.936  15.320  0.00  0.00    +0.000 HD
ENDBRANCH  15  19
ENDBRANCH   7  12
ENDBRANCH   2   5
BRANCH   1  26
ATOM     21  C   UNL     1       3.315   4.884  17.473  0.00  0.00    +0.000 A 
ATOM     22  C   UNL     1       4.348   4.279  16.718  0.00  0.00    +0.000 A 
ATOM     23  C   UNL     1       5.619   4.827  16.695  0.00  0.00    +0.000 A 
ATOM     24  N   UNL     1       5.937   5.962  17.325  0.00  0.00    +0.000 NA
ATOM     25  C   UNL     1       4.922   6.607  17.951  0.00  0.00    +0.000 A 
ATOM     26  C   UNL     1       3.590   6.169  18.024  0.00  0.00    +0.000 A 
BRANCH  21  32
ATOM     27  C   UNL     1       3.385   4.373  20.646  0.00  0.00    +0.000 C 
ATOM     28  C   UNL     1       2.041   3.742  20.274  0.00  0.00    +0.000 C 
ATOM     29  C   UNL     1       2.161   2.224  20.133  0.00  0.00    +0.000 C 
ATOM     30  C   UNL     1       2.724   1.734  18.788  0.00  0.00    +0.000 C 
ATOM     31  C   UNL     1       2.142   2.495  17.572  0.00  0.00    +0.000 C 
ATOM     32  C   UNL     1       2.033   4.060  17.698  0.00  0.00    +0.000 C 
ATOM     33  C   UNL     1       1.305   4.285  19.037  0.00  0.00    +0.000 C 
BRANCH  30  34
ATOM     34  N   UNL     1       4.183   1.713  18.791  0.00  0.00    +0.000 NA
ATOM     35  H   UNL     1       4.545   1.323  19.658  0.00  0.00    +0.000 HD
ATOM     36  H   UNL     1       4.547   2.663  18.737  0.00  0.00    +0.000 HD
ENDBRANCH  30  34
ENDBRANCH  21  32
ENDBRANCH   1  26
TORSDOF 6
ENDMDL
