MODEL 1
REMARK VINA RESULT:      -7.6      0.000      0.000
REMARK  Name = 
REMARK  6 active torsions:
REMARK  status: ('A' for Active; 'I' for Inactive)
REMARK    1  A    between atoms: C_2  and  C_14
REMARK    2  A    between atoms: N_3  and  C_4
REMARK    3  A    between atoms: C_10  and  C_11
REMARK    4  A    between atoms: C_11  and  O_13
REMARK    5  A    between atoms: C_17  and  O_18
REMARK    6  A    between atoms: O_18  and  C_19
REMARK                            x       y       z     vdW  Elec       q    Type
REMARK                         _______ _______ _______ _____ _____    ______ ____
ROOT
ATOM      1  O   UNL     1       1.735   5.703  20.647  0.00  0.00    +0.000 OA
ATOM      2  C   UNL     1       2.267   6.309  19.723  0.00  0.00    +0.000 C 
ATOM      3  N   UNL     1       2.114   7.650  19.421  0.00  0.00    +0.000 N 
ATOM      4  H   UNL     1       2.385   7.937  18.477  0.00  0.00    +0.000 HD
ENDROOT
BRANCH   3   5
ATOM      5  C   UNL     1       1.364   8.602  20.164  0.00  0.00    +0.000 A 
ATOM      6  C   UNL     1       1.258   8.522  21.561  0.00  0.00    +0.000 A 
ATOM      7  C   UNL     1       0.483   9.439  22.274  0.00  0.00    +0.000 A 
ATOM      8 CL   UNL     1       0.356   9.302  23.984  0.00  0.00    +0.000 Cl
ATOM      9  C   UNL     1      -0.198  10.454  21.612  0.00  0.00    +0.000 A 
ATOM     10  C   UNL     1      -0.088  10.569  20.227  0.00  0.00    +0.000 A 
ATOM     11  C   UNL     1       0.715   9.669  19.500  0.00  0.00    +0.000 A 
BRANCH  11  12
ATOM     12  C   UNL     1       0.826   9.814  18.026  0.00  0.00    +0.000 C 
ATOM     13  O   UNL     1       1.887   9.715  17.431  0.00  0.00    +0.000 OA
BRANCH  12  14
ATOM     14  O   UNL     1      -0.326  10.149  17.409  0.00  0.00    +0.000 OA
ATOM     15  H   UNL     1      -0.666   9.505  16.760  0.00  0.00    +0.000 HD
ENDBRANCH  12  14
ENDBRANCH  11  12
ENDBRANCH   3   5
BRANCH   2  16
ATOM     16  C   UNL     1       3.124   5.535  18.790  0.00  0.00    +0.000 A 
ATOM     17  C   UNL     1       4.475   5.879  18.682  0.00  0.00    +0.000 A 
ATOM     18  C   UNL     1       5.302   5.183  17.800  0.00  0.00    +0.000 A 
ATOM     19  C   UNL     1       4.790   4.146  17.014  0.00  0.00    +0.000 A 
ATOM     20  C   UNL     1       3.427   3.853  17.071  0.00  0.00    +0.000 A 
ATOM     21  C   UNL     1       2.596   4.531  17.972  0.00  0.00    +0.000 A 
BRANCH  19  22
ATOM     22  O   UNL     1       5.698   3.556  16.190  0.00  0.00    +0.000 OA
BRANCH  22  23
ATOM     23  C   UNL     1       6.131   4.240  15.022  0.00  0.00    +0.000 C 
ATOM     24  F   UNL     1       5.329   5.255  14.639  0.00  0.00    +0.000 F 
ATOM     25  F   UNL     1       7.374   4.726  15.231  0.00  0.00    +0.000 F 
ATOM     26  F   UNL     1       6.191   3.354  14.003  0.00  0.00    +0.000 F 
ENDBRANCH  22  23
ENDBRANCH  19  22
ENDBRANCH   2  16
TORSDOF 6
ENDMDL
MODEL 2
REMARK VINA RESULT:      -7.6      4.982      8.242
REMARK  Name = 
REMARK  6 active torsions:
REMARK  status: ('A' for Active; 'I' for Inactive)
REMARK    1  A    between atoms: C_2  and  C_14
REMARK    2  A    between atoms: N_3  and  C_4
REMARK    3  A    between atoms: C_10  and  C_11
REMARK    4  A    between atoms: C_11  and  O_13
REMARK    5  A    between atoms: C_17  and  O_18
REMARK    6  A    between atoms: O_18  and  C_19
REMARK                            x       y       z     vdW  Elec       q    Type
REMARK                         _______ _______ _______ _____ _____    ______ ____
ROOT
ATOM      1  O   UNL     1       2.721   5.235  17.933  0.00  0.00    +0.000 OA
ATOM      2  C   UNL     1       3.219   6.355  17.890  0.00  0.00    +0.000 C 
ATOM      3  N   UNL     1       4.449   6.690  17.354  0.00  0.00    +0.000 N 
ATOM      4  H   UNL     1       4.841   7.591  17.644  0.00  0.00    +0.000 HD
ENDROOT
BRANCH   3   5
ATOM      5  C   UNL     1       5.346   5.813  16.686  0.00  0.00    +0.000 A 
ATOM      6  C   UNL     1       5.097   5.366  15.380  0.00  0.00    +0.000 A 
ATOM      7  C   UNL     1       5.964   4.471  14.751  0.00  0.00    +0.000 A 
ATOM      8 CL   UNL     1       5.620   3.925  13.157  0.00  0.00    +0.000 Cl
ATOM      9  C   UNL     1       7.097   4.005  15.409  0.00  0.00    +0.000 A 
ATOM     10  C   UNL     1       7.379   4.454  16.699  0.00  0.00    +0.000 A 
ATOM     11  C   UNL     1       6.528   5.381  17.331  0.00  0.00    +0.000 A 
BRANCH  11  12
ATOM     12  C   UNL     1       6.852   5.854  18.702  0.00  0.00    +0.000 C 
ATOM     13  O   UNL     1       6.185   5.553  19.679  0.00  0.00    +0.000 OA
BRANCH  12  14
ATOM     14  O   UNL     1       7.892   6.711  18.765  0.00  0.00    +0.000 OA
ATOM     15  H   UNL     1       7.664   7.650  18.900  0.00  0.00    +0.000 HD
ENDBRANCH  12  14
ENDBRANCH  11  12
ENDBRANCH   3   5
BRANCH   2  16
ATOM     16  C   UNL     1       2.467   7.471  18.518  0.00  0.00    +0.000 A 
ATOM     17  C   UNL     1       2.233   8.626  17.766  0.00  0.00    +0.000 A 
ATOM     18  C   UNL     1       1.546   9.699  18.334  0.00  0.00    +0.000 A 
ATOM     19  C   UNL     1       1.093   9.634  19.655  0.00  0.00    +0.000 A 
ATOM     20  C   UNL     1       1.391   8.509  20.425  0.00  0.00    +0.000 A 
ATOM     21  C   UNL     1       2.059   7.418  19.854  0.00  0.00    +0.000 A 
BRANCH  19  22
ATOM     22  O   UNL     1       0.448  10.749  20.090  0.00  0.00    +0.000 OA
BRANCH  22  23
ATOM     23  C   UNL     1      -0.852  11.045  19.595  0.00  0.00    +0.000 C 
ATOM     24  F   UNL     1      -0.875  11.945  18.591  0.00  0.00    +0.000 F 
ATOM     25  F   UNL     1      -1.431   9.903  19.166  0.00  0.00    +0.000 F 
ATOM     26  F   UNL     1      -1.596  11.539  20.611  0.00  0.00    +0.000 F 
ENDBRANCH  22  23
ENDBRANCH  19  22
ENDBRANCH   2  16
TORSDOF 6
ENDMDL
MODEL 3
REMARK VINA RESULT:      -7.5      0.202      1.240
REMARK  Name = 
REMARK  6 active torsions:
REMARK  status: ('A' for Active; 'I' for Inactive)
REMARK    1  A    between atoms: C_2  and  C_14
REMARK    2  A    between atoms: N_3  and  C_4
REMARK    3  A    between atoms: C_10  and  C_11
REMARK    4  A    between atoms: C_11  and  O_13
REMARK    5  A    between atoms: C_17  and  O_18
REMARK    6  A    between atoms: O_18  and  C_19
REMARK                            x       y       z     vdW  Elec       q    Type
REMARK                         _______ _______ _______ _____ _____    ______ ____
ROOT
ATOM      1  O   UNL     1       1.727   5.755  20.591  0.00  0.00    +0.000 OA
ATOM      2  C   UNL     1       2.309   6.406  19.730  0.00  0.00    +0.000 C 
ATOM      3  N   UNL     1       2.158   7.756  19.474  0.00  0.00    +0.000 N 
ATOM      4  H   UNL     1       2.485   8.086  18.562  0.00  0.00    +0.000 HD
ENDROOT
BRANCH   3   5
ATOM      5  C   UNL     1       1.350   8.669  20.206  0.00  0.00    +0.000 A 
ATOM      6  C   UNL     1       1.241   8.594  21.603  0.00  0.00    +0.000 A 
ATOM      7  C   UNL     1       0.410   9.469  22.305  0.00  0.00    +0.000 A 
ATOM      8 CL   UNL     1       0.283   9.338  24.015  0.00  0.00    +0.000 Cl
ATOM      9  C   UNL     1      -0.327  10.436  21.631  0.00  0.00    +0.000 A 
ATOM     10  C   UNL     1      -0.217  10.547  20.246  0.00  0.00    +0.000 A 
ATOM     11  C   UNL     1       0.641   9.690  19.530  0.00  0.00    +0.000 A 
BRANCH  11  12
ATOM     12  C   UNL     1       0.751   9.830  18.055  0.00  0.00    +0.000 C 
ATOM     13  O   UNL     1       1.810   9.720  17.459  0.00  0.00    +0.000 OA
BRANCH  12  14
ATOM     14  O   UNL     1      -0.399  10.173  17.439  0.00  0.00    +0.000 OA
ATOM     15  H   UNL     1      -1.198   9.696  17.730  0.00  0.00    +0.000 HD
ENDBRANCH  12  14
ENDBRANCH  11  12
ENDBRANCH   3   5
BRANCH   2  16
ATOM     16  C   UNL     1       3.235   5.681  18.823  0.00  0.00    +0.000 A 
ATOM     17  C   UNL     1       2.692   4.848  17.841  0.00  0.00    +0.000 A 
ATOM     18  C   UNL     1       3.536   4.139  16.986  0.00  0.00    +0.000 A 
ATOM     19  C   UNL     1       4.925   4.248  17.106  0.00  0.00    +0.000 A 
ATOM     20  C   UNL     1       5.463   5.024  18.132  0.00  0.00    +0.000 A 
ATOM     21  C   UNL     1       4.622   5.758  18.979  0.00  0.00    +0.000 A 
BRANCH  19  22
ATOM     22  O   UNL     1       5.633   3.498  16.219  0.00  0.00    +0.000 OA
BRANCH  22  23
ATOM     23  C   UNL     1       6.242   4.127  15.099  0.00  0.00    +0.000 C 
ATOM     24  F   UNL     1       6.284   3.366  13.986  0.00  0.00    +0.000 F 
ATOM     25  F   UNL     1       5.576   5.268  14.818  0.00  0.00    +0.000 F 
ATOM     26  F   UNL     1       7.513   4.451  15.426  0.00  0.00    +0.000 F 
ENDBRANCH  22  23
ENDBRANCH  19  22
ENDBRANCH   2  16
TORSDOF 6
ENDMDL
MODEL 4
REMARK VINA RESULT:      -7.5      5.103      8.293
REMARK  Name = 
REMARK  6 active torsions:
REMARK  status: ('A' for Active; 'I' for Inactive)
REMARK    1  A    between atoms: C_2  and  C_14
REMARK    2  A    between atoms: N_3  and  C_4
REMARK    3  A    between atoms: C_10  and  C_11
REMARK    4  A    between atoms: C_11  and  O_13
REMARK    5  A    between atoms: C_17  and  O_18
REMARK    6  A    between atoms: O_18  and  C_19
REMARK                            x       y       z     vdW  Elec       q    Type
REMARK                         _______ _______ _______ _____ _____    ______ ____
ROOT
ATOM      1  O   UNL     1       2.648   5.130  17.895  0.00  0.00    +0.000 OA
ATOM      2  C   UNL     1       3.200   6.214  18.054  0.00  0.00    +0.000 C 
ATOM      3  N   UNL     1       4.468   6.563  17.626  0.00  0.00    +0.000 N 
ATOM      4  H   UNL     1       4.889   7.382  18.074  0.00  0.00    +0.000 HD
ENDROOT
BRANCH   3   5
ATOM      5  C   UNL     1       5.351   5.758  16.856  0.00  0.00    +0.000 A 
ATOM      6  C   UNL     1       5.024   5.351  15.554  0.00  0.00    +0.000 A 
ATOM      7  C   UNL     1       5.881   4.525  14.825  0.00  0.00    +0.000 A 
ATOM      8 CL   UNL     1       5.443   4.026  13.238  0.00  0.00    +0.000 Cl
ATOM      9  C   UNL     1       7.080   4.089  15.377  0.00  0.00    +0.000 A 
ATOM     10  C   UNL     1       7.439   4.500  16.660  0.00  0.00    +0.000 A 
ATOM     11  C   UNL     1       6.597   5.358  17.393  0.00  0.00    +0.000 A 
BRANCH  11  12
ATOM     12  C   UNL     1       7.001   5.792  18.755  0.00  0.00    +0.000 C 
ATOM     13  O   UNL     1       6.460   5.379  19.768  0.00  0.00    +0.000 OA
BRANCH  12  14
ATOM     14  O   UNL     1       7.958   6.744  18.777  0.00  0.00    +0.000 OA
ATOM     15  H   UNL     1       8.442   6.883  17.942  0.00  0.00    +0.000 HD
ENDBRANCH  12  14
ENDBRANCH  11  12
ENDBRANCH   3   5
BRANCH   2  16
ATOM     16  C   UNL     1       2.476   7.253  18.829  0.00  0.00    +0.000 A 
ATOM     17  C   UNL     1       2.190   7.006  20.174  0.00  0.00    +0.000 A 
ATOM     18  C   UNL     1       1.493   7.954  20.924  0.00  0.00    +0.000 A 
ATOM     19  C   UNL     1       1.070   9.152  20.338  0.00  0.00    +0.000 A 
ATOM     20  C   UNL     1       1.294   9.364  18.978  0.00  0.00    +0.000 A 
ATOM     21  C   UNL     1       2.014   8.427  18.225  0.00  0.00    +0.000 A 
BRANCH  19  22
ATOM     22  O   UNL     1       0.394   9.985  21.174  0.00  0.00    +0.000 OA
BRANCH  22  23
ATOM     23  C   UNL     1      -0.271   9.449  22.310  0.00  0.00    +0.000 C 
ATOM     24  F   UNL     1       0.539   9.178  23.355  0.00  0.00    +0.000 F 
ATOM     25  F   UNL     1      -1.222  10.318  22.715  0.00  0.00    +0.000 F 
ATOM     26  F   UNL     1      -0.879   8.297  21.948  0.00  0.00    +0.000 F 
ENDBRANCH  22  23
ENDBRANCH  19  22
ENDBRANCH   2  16
TORSDOF 6
ENDMDL
MODEL 5
REMARK VINA RESULT:      -7.5      5.049      8.275
REMARK  Name = 
REMARK  6 active torsions:
REMARK  status: ('A' for Active; 'I' for Inactive)
REMARK    1  A    between atoms: C_2  and  C_14
REMARK    2  A    between atoms: N_3  and  C_4
REMARK    3  A    between atoms: C_10  and  C_11
REMARK    4  A    between atoms: C_11  and  O_13
REMARK    5  A    between atoms: C_17  and  O_18
REMARK    6  A    between atoms: O_18  and  C_19
REMARK                            x       y       z     vdW  Elec       q    Type
REMARK                         _______ _______ _______ _____ _____    ______ ____
ROOT
ATOM      1  O   UNL     1       2.709   5.214  17.916  0.00  0.00    +0.000 OA
ATOM      2  C   UNL     1       3.221   6.329  17.891  0.00  0.00    +0.000 C 
ATOM      3  N   UNL     1       4.459   6.655  17.369  0.00  0.00    +0.000 N 
ATOM      4  H   UNL     1       4.861   7.546  17.674  0.00  0.00    +0.000 HD
ENDROOT
BRANCH   3   5
ATOM      5  C   UNL     1       5.350   5.775  16.696  0.00  0.00    +0.000 A 
ATOM      6  C   UNL     1       5.093   5.330  15.391  0.00  0.00    +0.000 A 
ATOM      7  C   UNL     1       5.954   4.431  14.757  0.00  0.00    +0.000 A 
ATOM      8 CL   UNL     1       5.600   3.888  13.164  0.00  0.00    +0.000 Cl
ATOM      9  C   UNL     1       7.088   3.962  15.409  0.00  0.00    +0.000 A 
ATOM     10  C   UNL     1       7.379   4.410  16.697  0.00  0.00    +0.000 A 
ATOM     11  C   UNL     1       6.534   5.338  17.335  0.00  0.00    +0.000 A 
BRANCH  11  12
ATOM     12  C   UNL     1       6.866   5.810  18.704  0.00  0.00    +0.000 C 
ATOM     13  O   UNL     1       6.180   5.547  19.678  0.00  0.00    +0.000 OA
BRANCH  12  14
ATOM     14  O   UNL     1       7.941   6.623  18.769  0.00  0.00    +0.000 OA
ATOM     15  H   UNL     1       8.811   6.187  18.713  0.00  0.00    +0.000 HD
ENDBRANCH  12  14
ENDBRANCH  11  12
ENDBRANCH   3   5
BRANCH   2  16
ATOM     16  C   UNL     1       2.479   7.446  18.528  0.00  0.00    +0.000 A 
ATOM     17  C   UNL     1       2.093   7.315  19.865  0.00  0.00    +0.000 A 
ATOM     18  C   UNL     1       1.377   8.339  20.486  0.00  0.00    +0.000 A 
ATOM     19  C   UNL     1       1.036   9.497  19.781  0.00  0.00    +0.000 A 
ATOM     20  C   UNL     1       1.360   9.594  18.427  0.00  0.00    +0.000 A 
ATOM     21  C   UNL     1       2.099   8.580  17.804  0.00  0.00    +0.000 A 
BRANCH  19  22
ATOM     22  O   UNL     1       0.331  10.413  20.498  0.00  0.00    +0.000 OA
BRANCH  22  23
ATOM     23  C   UNL     1      -0.839  10.992  19.936  0.00  0.00    +0.000 C 
ATOM     24  F   UNL     1      -1.563  10.154  19.166  0.00  0.00    +0.000 F 
ATOM     25  F   UNL     1      -1.627  11.452  20.933  0.00  0.00    +0.000 F 
ATOM     26  F   UNL     1      -0.472  12.045  19.171  0.00  0.00    +0.000 F 
ENDBRANCH  22  23
ENDBRANCH  19  22
ENDBRANCH   2  16
TORSDOF 6
ENDMDL
MODEL 6
REMARK VINA RESULT:      -7.5      5.024      8.238
REMARK  Name = 
REMARK  6 active torsions:
REMARK  status: ('A' for Active; 'I' for Inactive)
REMARK    1  A    between atoms: C_2  and  C_14
REMARK    2  A    between atoms: N_3  and  C_4
REMARK    3  A    between atoms: C_10  and  C_11
REMARK    4  A    between atoms: C_11  and  O_13
REMARK    5  A    between atoms: C_17  and  O_18
REMARK    6  A    between atoms: O_18  and  C_19
REMARK                            x       y       z     vdW  Elec       q    Type
REMARK                         _______ _______ _______ _____ _____    ______ ____
ROOT
ATOM      1  O   UNL     1       2.784   5.312  17.994  0.00  0.00    +0.000 OA
ATOM      2  C   UNL     1       3.276   6.432  17.896  0.00  0.00    +0.000 C 
ATOM      3  N   UNL     1       4.490   6.751  17.317  0.00  0.00    +0.000 N 
ATOM      4  H   UNL     1       4.885   7.663  17.563  0.00  0.00    +0.000 HD
ENDROOT
BRANCH   3   5
ATOM      5  C   UNL     1       5.374   5.853  16.660  0.00  0.00    +0.000 A 
ATOM      6  C   UNL     1       5.100   5.366  15.373  0.00  0.00    +0.000 A 
ATOM      7  C   UNL     1       5.955   4.450  14.756  0.00  0.00    +0.000 A 
ATOM      8 CL   UNL     1       5.581   3.856  13.186  0.00  0.00    +0.000 Cl
ATOM      9  C   UNL     1       7.100   4.004  15.407  0.00  0.00    +0.000 A 
ATOM     10  C   UNL     1       7.407   4.493  16.677  0.00  0.00    +0.000 A 
ATOM     11  C   UNL     1       6.568   5.439  17.296  0.00  0.00    +0.000 A 
BRANCH  11  12
ATOM     12  C   UNL     1       6.917   5.954  18.645  0.00  0.00    +0.000 C 
ATOM     13  O   UNL     1       7.886   6.668  18.849  0.00  0.00    +0.000 OA
BRANCH  12  14
ATOM     14  O   UNL     1       6.126   5.498  19.639  0.00  0.00    +0.000 OA
ATOM     15  H   UNL     1       6.252   5.917  20.510  0.00  0.00    +0.000 HD
ENDBRANCH  12  14
ENDBRANCH  11  12
ENDBRANCH   3   5
BRANCH   2  16
ATOM     16  C   UNL     1       2.535   7.568  18.501  0.00  0.00    +0.000 A 
ATOM     17  C   UNL     1       2.083   7.446  19.818  0.00  0.00    +0.000 A 
ATOM     18  C   UNL     1       1.367   8.488  20.407  0.00  0.00    +0.000 A 
ATOM     19  C   UNL     1       1.090   9.656  19.689  0.00  0.00    +0.000 A 
ATOM     20  C   UNL     1       1.480   9.745  18.352  0.00  0.00    +0.000 A 
ATOM     21  C   UNL     1       2.219   8.713  17.761  0.00  0.00    +0.000 A 
BRANCH  19  22
ATOM     22  O   UNL     1       0.377  10.590  20.375  0.00  0.00    +0.000 OA
BRANCH  22  23
ATOM     23  C   UNL     1      -0.841  11.079  19.831  0.00  0.00    +0.000 C 
ATOM     24  F   UNL     1      -1.701  11.575  20.744  0.00  0.00    +0.000 F 
ATOM     25  F   UNL     1      -0.565  12.045  18.928  0.00  0.00    +0.000 F 
ATOM     26  F   UNL     1      -1.462  10.065  19.186  0.00  0.00    +0.000 F 
ENDBRANCH  22  23
ENDBRANCH  19  22
ENDBRANCH   2  16
TORSDOF 6
ENDMDL
MODEL 7
REMARK VINA RESULT:      -7.4      3.163      4.103
REMARK  Name = 
REMARK  6 active torsions:
REMARK  status: ('A' for Active; 'I' for Inactive)
REMARK    1  A    between atoms: C_2  and  C_14
REMARK    2  A    between atoms: N_3  and  C_4
REMARK    3  A    between atoms: C_10  and  C_11
REMARK    4  A    between atoms: C_11  and  O_13
REMARK    5  A    between atoms: C_17  and  O_18
REMARK    6  A    between atoms: O_18  and  C_19
REMARK                            x       y       z     vdW  Elec       q    Type
REMARK                         _______ _______ _______ _____ _____    ______ ____
ROOT
ATOM      1  O   UNL     1       2.442   9.008  18.014  0.00  0.00    +0.000 OA
ATOM      2  C   UNL     1       2.042   8.281  18.917  0.00  0.00    +0.000 C 
ATOM      3  N   UNL     1       1.221   8.647  19.968  0.00  0.00    +0.000 N 
ATOM      4  H   UNL     1       1.211   8.020  20.777  0.00  0.00    +0.000 HD
ENDROOT
BRANCH   3   5
ATOM      5  C   UNL     1       0.624   9.922  20.168  0.00  0.00    +0.000 A 
ATOM      6  C   UNL     1       0.159  10.690  19.090  0.00  0.00    +0.000 A 
ATOM      7  C   UNL     1      -0.386  11.959  19.297  0.00  0.00    +0.000 A 
ATOM      8 CL   UNL     1      -0.928  12.885  17.953  0.00  0.00    +0.000 Cl
ATOM      9  C   UNL     1      -0.481  12.486  20.580  0.00  0.00    +0.000 A 
ATOM     10  C   UNL     1      -0.050  11.731  21.670  0.00  0.00    +0.000 A 
ATOM     11  C   UNL     1       0.474  10.438  21.476  0.00  0.00    +0.000 A 
BRANCH  11  12
ATOM     12  C   UNL     1       0.920   9.647  22.651  0.00  0.00    +0.000 C 
ATOM     13  O   UNL     1       0.244   9.523  23.660  0.00  0.00    +0.000 OA
BRANCH  12  14
ATOM     14  O   UNL     1       2.169   9.146  22.546  0.00  0.00    +0.000 OA
ATOM     15  H   UNL     1       2.756   9.593  21.908  0.00  0.00    +0.000 HD
ENDBRANCH  12  14
ENDBRANCH  11  12
ENDBRANCH   3   5
BRANCH   2  16
ATOM     16  C   UNL     1       2.517   6.874  18.935  0.00  0.00    +0.000 A 
ATOM     17  C   UNL     1       2.129   6.051  19.995  0.00  0.00    +0.000 A 
ATOM     18  C   UNL     1       2.575   4.730  20.051  0.00  0.00    +0.000 A 
ATOM     19  C   UNL     1       3.414   4.221  19.055  0.00  0.00    +0.000 A 
ATOM     20  C   UNL     1       3.857   5.066  18.036  0.00  0.00    +0.000 A 
ATOM     21  C   UNL     1       3.395   6.386  17.962  0.00  0.00    +0.000 A 
BRANCH  19  22
ATOM     22  O   UNL     1       3.784   2.924  19.231  0.00  0.00    +0.000 OA
BRANCH  22  23
ATOM     23  C   UNL     1       3.050   1.893  18.585  0.00  0.00    +0.000 C 
ATOM     24  F   UNL     1       2.563   2.229  17.373  0.00  0.00    +0.000 F 
ATOM     25  F   UNL     1       3.842   0.807  18.447  0.00  0.00    +0.000 F 
ATOM     26  F   UNL     1       2.004   1.553  19.371  0.00  0.00    +0.000 F 
ENDBRANCH  22  23
ENDBRANCH  19  22
ENDBRANCH   2  16
TORSDOF 6
ENDMDL
MODEL 8
REMARK VINA RESULT:      -7.4      5.529      8.539
REMARK  Name = 
REMARK  6 active torsions:
REMARK  status: ('A' for Active; 'I' for Inactive)
REMARK    1  A    between atoms: C_2  and  C_14
REMARK    2  A    between atoms: N_3  and  C_4
REMARK    3  A    between atoms: C_10  and  C_11
REMARK    4  A    between atoms: C_11  and  O_13
REMARK    5  A    between atoms: C_17  and  O_18
REMARK    6  A    between atoms: O_18  and  C_19
REMARK                            x       y       z     vdW  Elec       q    Type
REMARK                         _______ _______ _______ _____ _____    ______ ____
ROOT
ATOM      1  O   UNL     1       2.093   7.534  18.240  0.00  0.00    +0.000 OA
ATOM      2  C   UNL     1       2.157   7.457  19.463  0.00  0.00    +0.000 C 
ATOM      3  N   UNL     1       2.712   6.424  20.195  0.00  0.00    +0.000 N 
ATOM      4  H   UNL     1       2.439   6.368  21.181  0.00  0.00    +0.000 HD
ENDROOT
BRANCH   3   5
ATOM      5  C   UNL     1       3.378   5.282  19.674  0.00  0.00    +0.000 A 
ATOM      6  C   UNL     1       4.480   5.406  18.815  0.00  0.00    +0.000 A 
ATOM      7  C   UNL     1       5.099   4.277  18.275  0.00  0.00    +0.000 A 
ATOM      8 CL   UNL     1       6.435   4.463  17.208  0.00  0.00    +0.000 Cl
ATOM      9  C   UNL     1       4.634   3.003  18.581  0.00  0.00    +0.000 A 
ATOM     10  C   UNL     1       3.556   2.853  19.453  0.00  0.00    +0.000 A 
ATOM     11  C   UNL     1       2.943   3.984  20.027  0.00  0.00    +0.000 A 
BRANCH  11  12
ATOM     12  C   UNL     1       1.802   3.802  20.960  0.00  0.00    +0.000 C 
ATOM     13  O   UNL     1       1.927   3.305  22.067  0.00  0.00    +0.000 OA
BRANCH  12  14
ATOM     14  O   UNL     1       0.602   4.153  20.450  0.00  0.00    +0.000 OA
ATOM     15  H   UNL     1       0.366   3.747  19.596  0.00  0.00    +0.000 HD
ENDBRANCH  12  14
ENDBRANCH  11  12
ENDBRANCH   3   5
BRANCH   2  16
ATOM     16  C   UNL     1       1.536   8.546  20.258  0.00  0.00    +0.000 A 
ATOM     17  C   UNL     1       1.129   9.709  19.597  0.00  0.00    +0.000 A 
ATOM     18  C   UNL     1       0.560  10.758  20.319  0.00  0.00    +0.000 A 
ATOM     19  C   UNL     1       0.397  10.661  21.705  0.00  0.00    +0.000 A 
ATOM     20  C   UNL     1       0.868   9.529  22.371  0.00  0.00    +0.000 A 
ATOM     21  C   UNL     1       1.419   8.462  21.649  0.00  0.00    +0.000 A 
BRANCH  19  22
ATOM     22  O   UNL     1      -0.161  11.755  22.290  0.00  0.00    +0.000 OA
BRANCH  22  23
ATOM     23  C   UNL     1      -1.494  11.684  22.779  0.00  0.00    +0.000 C 
ATOM     24  F   UNL     1      -1.778  10.558  23.465  0.00  0.00    +0.000 F 
ATOM     25  F   UNL     1      -1.727  12.748  23.578  0.00  0.00    +0.000 F 
ATOM     26  F   UNL     1      -2.342  11.753  21.728  0.00  0.00    +0.000 F 
ENDBRANCH  22  23
ENDBRANCH  19  22
ENDBRANCH   2  16
TORSDOF 6
ENDMDL
MODEL 9
REMARK VINA RESULT:      -7.4      0.277      1.430
REMARK  Name = 
REMARK  6 active torsions:
REMARK  status: ('A' for Active; 'I' for Inactive)
REMARK    1  A    between atoms: C_2  and  C_14
REMARK    2  A    between atoms: N_3  and  C_4
REMARK    3  A    between atoms: C_10  and  C_11
REMARK    4  A    between atoms: C_11  and  O_13
REMARK    5  A    between atoms: C_17  and  O_18
REMARK    6  A    between atoms: O_18  and  C_19
REMARK                            x       y       z     vdW  Elec       q    Type
REMARK                         _______ _______ _______ _____ _____    ______ ____
ROOT
ATOM      1  O   UNL     1       1.619   5.712  20.274  0.00  0.00    +0.000 OA
ATOM      2  C   UNL     1       2.264   6.421  19.508  0.00  0.00    +0.000 C 
ATOM      3  N   UNL     1       2.163   7.793  19.372  0.00  0.00    +0.000 N 
ATOM      4  H   UNL     1       2.549   8.194  18.513  0.00  0.00    +0.000 HD
ENDROOT
BRANCH   3   5
ATOM      5  C   UNL     1       1.340   8.659  20.142  0.00  0.00    +0.000 A 
ATOM      6  C   UNL     1       1.317   8.594  21.543  0.00  0.00    +0.000 A 
ATOM      7  C   UNL     1       0.471   9.421  22.285  0.00  0.00    +0.000 A 
ATOM      8 CL   UNL     1       0.451   9.303  24.001  0.00  0.00    +0.000 Cl
ATOM      9  C   UNL     1      -0.365  10.330  21.647  0.00  0.00    +0.000 A 
ATOM     10  C   UNL     1      -0.341  10.432  20.257  0.00  0.00    +0.000 A 
ATOM     11  C   UNL     1       0.529   9.624  19.500  0.00  0.00    +0.000 A 
BRANCH  11  12
ATOM     12  C   UNL     1       0.545   9.753  18.020  0.00  0.00    +0.000 C 
ATOM     13  O   UNL     1      -0.457   9.627  17.335  0.00  0.00    +0.000 OA
BRANCH  12  14
ATOM     14  O   UNL     1       1.772   9.937  17.489  0.00  0.00    +0.000 OA
ATOM     15  H   UNL     1       2.436   9.255  17.702  0.00  0.00    +0.000 HD
ENDBRANCH  12  14
ENDBRANCH  11  12
ENDBRANCH   3   5
BRANCH   2  16
ATOM     16  C   UNL     1       3.220   5.753  18.588  0.00  0.00    +0.000 A 
ATOM     17  C   UNL     1       2.792   4.625  17.884  0.00  0.00    +0.000 A 
ATOM     18  C   UNL     1       3.671   3.964  17.026  0.00  0.00    +0.000 A 
ATOM     19  C   UNL     1       4.985   4.417  16.868  0.00  0.00    +0.000 A 
ATOM     20  C   UNL     1       5.430   5.501  17.626  0.00  0.00    +0.000 A 
ATOM     21  C   UNL     1       4.545   6.183  18.470  0.00  0.00    +0.000 A 
BRANCH  19  22
ATOM     22  O   UNL     1       5.741   3.680  16.011  0.00  0.00    +0.000 OA
BRANCH  22  23
ATOM     23  C   UNL     1       6.195   4.263  14.797  0.00  0.00    +0.000 C 
ATOM     24  F   UNL     1       7.437   4.786  14.858  0.00  0.00    +0.000 F 
ATOM     25  F   UNL     1       6.165   3.330  13.821  0.00  0.00    +0.000 F 
ATOM     26  F   UNL     1       5.345   5.258  14.455  0.00  0.00    +0.000 F 
ENDBRANCH  22  23
ENDBRANCH  19  22
ENDBRANCH   2  16
TORSDOF 6
ENDMDL
