MODEL 1
REMARK VINA RESULT:      -8.2      0.000      0.000
REMARK  Name = 
REMARK  6 active torsions:
REMARK  status: ('A' for Active; 'I' for Inactive)
REMARK    1  A    between atoms: C_1  and  C_2
REMARK    2  A    between atoms: C_9  and  O_10
REMARK    3  A    between atoms: C_13  and  O_14
REMARK    4  A    between atoms: C_15  and  S_16
REMARK    5  A    between atoms: S_16  and  C_17
REMARK    6  A    between atoms: C_28  and  O_29
REMARK                            x       y       z     vdW  Elec       q    Type
REMARK                         _______ _______ _______ _____ _____    ______ ____
ROOT
ATOM      1  C   UNL     1       3.244   2.137  19.467  0.00  0.00    +0.000 C 
ATOM      2  C   UNL     1       2.253   3.277  19.113  0.00  0.00    +0.000 C 
ATOM      3  C   UNL     1       1.786   3.104  17.670  0.00  0.00    +0.000 C 
ATOM      4  C   UNL     1       2.980   3.217  16.721  0.00  0.00    +0.000 C 
ATOM      5  C   UNL     1       3.734   4.556  16.872  0.00  0.00    +0.000 C 
ATOM      6  C   UNL     1       5.014   4.680  16.054  0.00  0.00    +0.000 A 
ATOM      7  C   UNL     1       5.272   3.841  14.955  0.00  0.00    +0.000 A 
ATOM      8  C   UNL     1       6.365   4.060  14.116  0.00  0.00    +0.000 A 
ATOM      9  C   UNL     1       7.223   5.115  14.380  0.00  0.00    +0.000 A 
ATOM     10  C   UNL     1       7.026   5.926  15.488  0.00  0.00    +0.000 A 
ATOM     11  C   UNL     1       5.911   5.734  16.329  0.00  0.00    +0.000 A 
ATOM     12  C   UNL     1       5.725   6.682  17.500  0.00  0.00    +0.000 C 
ATOM     13  C   UNL     1       4.384   6.579  18.275  0.00  0.00    +0.000 C 
ATOM     14  C   UNL     1       3.993   5.043  18.340  0.00  0.00    +0.000 C 
ATOM     15  C   UNL     1       2.813   4.712  19.270  0.00  0.00    +0.000 C 
ATOM     16  C   UNL     1       3.004   4.786  20.790  0.00  0.00    +0.000 C 
ATOM     17  C   UNL     1       1.715   4.124  21.332  0.00  0.00    +0.000 C 
ATOM     18  C   UNL     1       1.107   3.346  20.144  0.00  0.00    +0.000 C 
ENDROOT
BRANCH   9  19
ATOM     19  O   UNL     1       8.268   5.401  13.554  0.00  0.00    +0.000 OA
ATOM     20  H   UNL     1       8.917   5.925  14.054  0.00  0.00    +0.000 HD
ENDBRANCH   9  19
BRANCH  12  21
ATOM     21  O   UNL     1       6.776   6.455  18.458  0.00  0.00    +0.000 OA
ATOM     22  H   UNL     1       7.323   7.259  18.501  0.00  0.00    +0.000 HD
ENDBRANCH  12  21
BRANCH  18  23
ATOM     23  O   UNL     1       0.582   2.086  20.515  0.00  0.00    +0.000 OA
ATOM     24  H   UNL     1       0.009   1.758  19.803  0.00  0.00    +0.000 HD
ENDBRANCH  18  23
BRANCH  13  25
ATOM     25  S   UNL     1       2.989   7.632  17.549  0.00  0.00    +0.000 S 
BRANCH  25  26
ATOM     26  C   UNL     1       2.025   8.358  18.872  0.00  0.00    +0.000 A 
ATOM     27  C   UNL     1       1.902   7.853  20.166  0.00  0.00    +0.000 A 
ATOM     28  C   UNL     1       1.168   8.545  21.143  0.00  0.00    +0.000 A 
ATOM     29  C   UNL     1       0.519   9.737  20.821  0.00  0.00    +0.000 A 
ATOM     30 BR   UNL     1      -0.450  10.672  22.146  0.00  0.00    +0.000 Br
ATOM     31  C   UNL     1       0.582  10.237  19.530  0.00  0.00    +0.000 A 
ATOM     32  C   UNL     1       1.337   9.546  18.573  0.00  0.00    +0.000 A 
ENDBRANCH  25  26
ENDBRANCH  13  25
TORSDOF 5
ENDMDL
MODEL 2
REMARK VINA RESULT:      -7.0      5.492      9.839
REMARK  Name = 
REMARK  6 active torsions:
REMARK  status: ('A' for Active; 'I' for Inactive)
REMARK    1  A    between atoms: C_1  and  C_2
REMARK    2  A    between atoms: C_9  and  O_10
REMARK    3  A    between atoms: C_13  and  O_14
REMARK    4  A    between atoms: C_15  and  S_16
REMARK    5  A    between atoms: S_16  and  C_17
REMARK    6  A    between atoms: C_28  and  O_29
REMARK                            x       y       z     vdW  Elec       q    Type
REMARK                         _______ _______ _______ _____ _____    ______ ____
ROOT
ATOM      1  C   UNL     1      -2.921  15.367  22.180  0.00  0.00    +0.000 C 
ATOM      2  C   UNL     1      -2.490  14.003  22.782  0.00  0.00    +0.000 C 
ATOM      3  C   UNL     1      -1.156  14.174  23.504  0.00  0.00    +0.000 C 
ATOM      4  C   UNL     1      -0.078  14.602  22.508  0.00  0.00    +0.000 C 
ATOM      5  C   UNL     1       0.082  13.605  21.341  0.00  0.00    +0.000 C 
ATOM      6  C   UNL     1       1.043  14.038  20.240  0.00  0.00    +0.000 A 
ATOM      7  C   UNL     1       2.007  15.040  20.453  0.00  0.00    +0.000 A 
ATOM      8  C   UNL     1       2.984  15.321  19.497  0.00  0.00    +0.000 A 
ATOM      9  C   UNL     1       2.997  14.610  18.309  0.00  0.00    +0.000 A 
ATOM     10  C   UNL     1       2.027  13.654  18.047  0.00  0.00    +0.000 A 
ATOM     11  C   UNL     1       1.050  13.340  19.013  0.00  0.00    +0.000 A 
ATOM     12  C   UNL     1       0.042  12.253  18.685  0.00  0.00    +0.000 C 
ATOM     13  C   UNL     1      -0.880  11.785  19.843  0.00  0.00    +0.000 C 
ATOM     14  C   UNL     1      -1.245  13.066  20.703  0.00  0.00    +0.000 C 
ATOM     15  C   UNL     1      -2.341  12.847  21.762  0.00  0.00    +0.000 C 
ATOM     16  C   UNL     1      -3.797  12.662  21.316  0.00  0.00    +0.000 C 
ATOM     17  C   UNL     1      -4.579  12.760  22.647  0.00  0.00    +0.000 C 
ATOM     18  C   UNL     1      -3.613  13.413  23.660  0.00  0.00    +0.000 C 
ENDROOT
BRANCH   9  19
ATOM     19  O   UNL     1       3.968  14.811  17.374  0.00  0.00    +0.000 OA
ATOM     20  H   UNL     1       3.751  14.279  16.591  0.00  0.00    +0.000 HD
ENDBRANCH   9  19
BRANCH  12  21
ATOM     21  O   UNL     1      -0.821  12.716  17.630  0.00  0.00    +0.000 OA
ATOM     22  H   UNL     1      -0.928  13.678  17.728  0.00  0.00    +0.000 HD
ENDBRANCH  12  21
BRANCH  18  23
ATOM     23  O   UNL     1      -4.246  14.354  24.505  0.00  0.00    +0.000 OA
ATOM     24  H   UNL     1      -3.718  14.461  25.313  0.00  0.00    +0.000 HD
ENDBRANCH  18  23
BRANCH  13  25
ATOM     25  S   UNL     1      -0.144  10.406  20.909  0.00  0.00    +0.000 S 
BRANCH  25  26
ATOM     26  C   UNL     1       0.867   9.329  19.895  0.00  0.00    +0.000 A 
ATOM     27  C   UNL     1       1.176   9.527  18.549  0.00  0.00    +0.000 A 
ATOM     28  C   UNL     1       2.034   8.647  17.870  0.00  0.00    +0.000 A 
ATOM     29  C   UNL     1       2.565   7.536  18.527  0.00  0.00    +0.000 A 
ATOM     30 BR   UNL     1       3.735   6.368  17.613  0.00  0.00    +0.000 Br
ATOM     31  C   UNL     1       2.235   7.287  19.850  0.00  0.00    +0.000 A 
ATOM     32  C   UNL     1       1.396   8.188  20.520  0.00  0.00    +0.000 A 
ENDBRANCH  25  26
ENDBRANCH  13  25
TORSDOF 5
ENDMDL
MODEL 3
REMARK VINA RESULT:      -6.9      6.949     10.695
REMARK  Name = 
REMARK  6 active torsions:
REMARK  status: ('A' for Active; 'I' for Inactive)
REMARK    1  A    between atoms: C_1  and  C_2
REMARK    2  A    between atoms: C_9  and  O_10
REMARK    3  A    between atoms: C_13  and  O_14
REMARK    4  A    between atoms: C_15  and  S_16
REMARK    5  A    between atoms: S_16  and  C_17
REMARK    6  A    between atoms: C_28  and  O_29
REMARK                            x       y       z     vdW  Elec       q    Type
REMARK                         _______ _______ _______ _____ _____    ______ ____
ROOT
ATOM      1  C   UNL     1      -2.239  14.894  24.519  0.00  0.00    +0.000 C 
ATOM      2  C   UNL     1      -3.448  14.411  23.674  0.00  0.00    +0.000 C 
ATOM      3  C   UNL     1      -3.892  13.040  24.175  0.00  0.00    +0.000 C 
ATOM      4  C   UNL     1      -2.762  12.027  23.987  0.00  0.00    +0.000 C 
ATOM      5  C   UNL     1      -2.296  11.924  22.518  0.00  0.00    +0.000 C 
ATOM      6  C   UNL     1      -1.081  11.035  22.281  0.00  0.00    +0.000 A 
ATOM      7  C   UNL     1      -0.674  10.073  23.223  0.00  0.00    +0.000 A 
ATOM      8  C   UNL     1       0.338   9.156  22.934  0.00  0.00    +0.000 A 
ATOM      9  C   UNL     1       0.965   9.205  21.700  0.00  0.00    +0.000 A 
ATOM     10  C   UNL     1       0.624  10.177  20.771  0.00  0.00    +0.000 A 
ATOM     11  C   UNL     1      -0.414  11.092  21.038  0.00  0.00    +0.000 A 
ATOM     12  C   UNL     1      -0.771  12.103  19.964  0.00  0.00    +0.000 C 
ATOM     13  C   UNL     1      -2.051  12.950  20.201  0.00  0.00    +0.000 C 
ATOM     14  C   UNL     1      -2.118  13.279  21.751  0.00  0.00    +0.000 C 
ATOM     15  C   UNL     1      -3.191  14.309  22.150  0.00  0.00    +0.000 C 
ATOM     16  C   UNL     1      -2.995  15.785  21.787  0.00  0.00    +0.000 C 
ATOM     17  C   UNL     1      -4.112  16.490  22.592  0.00  0.00    +0.000 C 
ATOM     18  C   UNL     1      -4.567  15.473  23.663  0.00  0.00    +0.000 C 
ENDROOT
BRANCH   9  19
ATOM     19  O   UNL     1       1.917   8.293  21.354  0.00  0.00    +0.000 OA
ATOM     20  H   UNL     1       2.282   7.909  22.169  0.00  0.00    +0.000 HD
ENDBRANCH   9  19
BRANCH  12  21
ATOM     21  O   UNL     1       0.318  13.032  19.814  0.00  0.00    +0.000 OA
ATOM     22  H   UNL     1       1.141  12.520  19.723  0.00  0.00    +0.000 HD
ENDBRANCH  12  21
BRANCH  18  23
ATOM     23  O   UNL     1      -4.817  16.067  24.922  0.00  0.00    +0.000 OA
ATOM     24  H   UNL     1      -4.527  15.460  25.623  0.00  0.00    +0.000 HD
ENDBRANCH  18  23
BRANCH  13  25
ATOM     25  S   UNL     1      -3.642  12.135  19.583  0.00  0.00    +0.000 S 
BRANCH  25  26
ATOM     26  C   UNL     1      -3.373  11.431  17.958  0.00  0.00    +0.000 A 
ATOM     27  C   UNL     1      -2.308  10.610  17.590  0.00  0.00    +0.000 A 
ATOM     28  C   UNL     1      -2.234  10.062  16.299  0.00  0.00    +0.000 A 
ATOM     29  C   UNL     1      -3.213  10.361  15.351  0.00  0.00    +0.000 A 
ATOM     30 BR   UNL     1      -3.118   9.605  13.623  0.00  0.00    +0.000 Br
ATOM     31  C   UNL     1      -4.256  11.215  15.674  0.00  0.00    +0.000 A 
ATOM     32  C   UNL     1      -4.327  11.735  16.973  0.00  0.00    +0.000 A 
ENDBRANCH  25  26
ENDBRANCH  13  25
TORSDOF 5
ENDMDL
MODEL 4
REMARK VINA RESULT:      -6.9      9.275     12.016
REMARK  Name = 
REMARK  6 active torsions:
REMARK  status: ('A' for Active; 'I' for Inactive)
REMARK    1  A    between atoms: C_1  and  C_2
REMARK    2  A    between atoms: C_9  and  O_10
REMARK    3  A    between atoms: C_13  and  O_14
REMARK    4  A    between atoms: C_15  and  S_16
REMARK    5  A    between atoms: S_16  and  C_17
REMARK    6  A    between atoms: C_28  and  O_29
REMARK                            x       y       z     vdW  Elec       q    Type
REMARK                         _______ _______ _______ _____ _____    ______ ____
ROOT
ATOM      1  C   UNL     1       9.730  11.380  18.422  0.00  0.00    +0.000 C 
ATOM      2  C   UNL     1      10.643  12.516  18.957  0.00  0.00    +0.000 C 
ATOM      3  C   UNL     1      11.273  12.072  20.274  0.00  0.00    +0.000 C 
ATOM      4  C   UNL     1      10.181  11.826  21.315  0.00  0.00    +0.000 C 
ATOM      5  C   UNL     1       9.294  13.067  21.550  0.00  0.00    +0.000 C 
ATOM      6  C   UNL     1       8.102  12.852  22.475  0.00  0.00    +0.000 A 
ATOM      7  C   UNL     1       8.041  11.760  23.359  0.00  0.00    +0.000 A 
ATOM      8  C   UNL     1       7.026  11.653  24.311  0.00  0.00    +0.000 A 
ATOM      9  C   UNL     1       6.051  12.633  24.377  0.00  0.00    +0.000 A 
ATOM     10  C   UNL     1       6.053  13.694  23.483  0.00  0.00    +0.000 A 
ATOM     11  C   UNL     1       7.085  13.830  22.533  0.00  0.00    +0.000 A 
ATOM     12  C   UNL     1       7.057  15.036  21.611  0.00  0.00    +0.000 C 
ATOM     13  C   UNL     1       8.313  15.268  20.729  0.00  0.00    +0.000 C 
ATOM     14  C   UNL     1       8.836  13.844  20.268  0.00  0.00    +0.000 C 
ATOM     15  C   UNL     1       9.937  13.874  19.192  0.00  0.00    +0.000 C 
ATOM     16  C   UNL     1       9.581  14.271  17.755  0.00  0.00    +0.000 C 
ATOM     17  C   UNL     1      10.861  13.904  16.968  0.00  0.00    +0.000 C 
ATOM     18  C   UNL     1      11.662  12.950  17.883  0.00  0.00    +0.000 C 
ENDROOT
BRANCH   9  19
ATOM     19  O   UNL     1       5.076  12.600  25.329  0.00  0.00    +0.000 OA
ATOM     20  H   UNL     1       4.909  11.671  25.561  0.00  0.00    +0.000 HD
ENDBRANCH   9  19
BRANCH  12  21
ATOM     21  O   UNL     1       5.937  14.915  20.715  0.00  0.00    +0.000 OA
ATOM     22  H   UNL     1       5.506  14.059  20.885  0.00  0.00    +0.000 HD
ENDBRANCH  12  21
BRANCH  18  23
ATOM     23  O   UNL     1      12.259  11.878  17.180  0.00  0.00    +0.000 OA
ATOM     24  H   UNL     1      12.233  11.082  17.735  0.00  0.00    +0.000 HD
ENDBRANCH  18  23
BRANCH  13  25
ATOM     25  S   UNL     1       9.672  16.281  21.570  0.00  0.00    +0.000 S 
BRANCH  25  26
ATOM     26  C   UNL     1       9.214  16.620  23.268  0.00  0.00    +0.000 A 
ATOM     27  C   UNL     1       8.442  17.695  23.708  0.00  0.00    +0.000 A 
ATOM     28  C   UNL     1       8.091  17.824  25.061  0.00  0.00    +0.000 A 
ATOM     29  C   UNL     1       8.541  16.892  25.996  0.00  0.00    +0.000 A 
ATOM     30 BR   UNL     1       8.048  17.061  27.812  0.00  0.00    +0.000 Br
ATOM     31  C   UNL     1       9.351  15.840  25.596  0.00  0.00    +0.000 A 
ATOM     32  C   UNL     1       9.673  15.713  24.238  0.00  0.00    +0.000 A 
ENDBRANCH  25  26
ENDBRANCH  13  25
TORSDOF 5
ENDMDL
MODEL 5
REMARK VINA RESULT:      -6.8      5.983     10.464
REMARK  Name = 
REMARK  6 active torsions:
REMARK  status: ('A' for Active; 'I' for Inactive)
REMARK    1  A    between atoms: C_1  and  C_2
REMARK    2  A    between atoms: C_9  and  O_10
REMARK    3  A    between atoms: C_13  and  O_14
REMARK    4  A    between atoms: C_15  and  S_16
REMARK    5  A    between atoms: S_16  and  C_17
REMARK    6  A    between atoms: C_28  and  O_29
REMARK                            x       y       z     vdW  Elec       q    Type
REMARK                         _______ _______ _______ _____ _____    ______ ____
ROOT
ATOM      1  C   UNL     1      -0.917   8.435  21.067  0.00  0.00    +0.000 C 
ATOM      2  C   UNL     1       0.252   9.390  21.428  0.00  0.00    +0.000 C 
ATOM      3  C   UNL     1       0.279   9.597  22.940  0.00  0.00    +0.000 C 
ATOM      4  C   UNL     1      -1.020  10.263  23.395  0.00  0.00    +0.000 C 
ATOM      5  C   UNL     1      -1.278  11.610  22.685  0.00  0.00    +0.000 C 
ATOM      6  C   UNL     1      -2.621  12.262  22.990  0.00  0.00    +0.000 A 
ATOM      7  C   UNL     1      -3.378  11.899  24.119  0.00  0.00    +0.000 A 
ATOM      8  C   UNL     1      -4.526  12.606  24.480  0.00  0.00    +0.000 A 
ATOM      9  C   UNL     1      -4.937  13.676  23.703  0.00  0.00    +0.000 A 
ATOM     10  C   UNL     1      -4.242  14.024  22.553  0.00  0.00    +0.000 A 
ATOM     11  C   UNL     1      -3.067  13.337  22.190  0.00  0.00    +0.000 A 
ATOM     12  C   UNL     1      -2.326  13.792  20.946  0.00  0.00    +0.000 C 
ATOM     13  C   UNL     1      -0.930  13.159  20.695  0.00  0.00    +0.000 C 
ATOM     14  C   UNL     1      -1.014  11.640  21.140  0.00  0.00    +0.000 C 
ATOM     15  C   UNL     1       0.203  10.781  20.750  0.00  0.00    +0.000 C 
ATOM     16  C   UNL     1       0.419  10.398  19.281  0.00  0.00    +0.000 C 
ATOM     17  C   UNL     1       1.542   9.337  19.363  0.00  0.00    +0.000 C 
ATOM     18  C   UNL     1       1.581   8.875  20.837  0.00  0.00    +0.000 C 
ENDROOT
BRANCH   9  19
ATOM     19  O   UNL     1      -6.017  14.431  24.051  0.00  0.00    +0.000 OA
ATOM     20  H   UNL     1      -5.696  15.247  24.469  0.00  0.00    +0.000 HD
ENDBRANCH   9  19
BRANCH  12  21
ATOM     21  O   UNL     1      -3.129  13.497  19.788  0.00  0.00    +0.000 OA
ATOM     22  H   UNL     1      -3.212  14.312  19.263  0.00  0.00    +0.000 HD
ENDBRANCH  12  21
BRANCH  18  23
ATOM     23  O   UNL     1       1.778   7.481  20.977  0.00  0.00    +0.000 OA
ATOM     24  H   UNL     1       2.637   7.242  20.592  0.00  0.00    +0.000 HD
ENDBRANCH  18  23
BRANCH  13  25
ATOM     25  S   UNL     1       0.494  14.067  21.547  0.00  0.00    +0.000 S 
BRANCH  25  26
ATOM     26  C   UNL     1       1.898  14.169  20.440  0.00  0.00    +0.000 A 
ATOM     27  C   UNL     1       1.890  13.863  19.079  0.00  0.00    +0.000 A 
ATOM     28  C   UNL     1       3.040  14.043  18.294  0.00  0.00    +0.000 A 
ATOM     29  C   UNL     1       4.223  14.501  18.873  0.00  0.00    +0.000 A 
ATOM     30 BR   UNL     1       5.760  14.760  17.806  0.00  0.00    +0.000 Br
ATOM     31  C   UNL     1       4.275  14.766  20.233  0.00  0.00    +0.000 A 
ATOM     32  C   UNL     1       3.112  14.602  20.999  0.00  0.00    +0.000 A 
ENDBRANCH  25  26
ENDBRANCH  13  25
TORSDOF 5
ENDMDL
MODEL 6
REMARK VINA RESULT:      -6.8      5.663     11.107
REMARK  Name = 
REMARK  6 active torsions:
REMARK  status: ('A' for Active; 'I' for Inactive)
REMARK    1  A    between atoms: C_1  and  C_2
REMARK    2  A    between atoms: C_9  and  O_10
REMARK    3  A    between atoms: C_13  and  O_14
REMARK    4  A    between atoms: C_15  and  S_16
REMARK    5  A    between atoms: S_16  and  C_17
REMARK    6  A    between atoms: C_28  and  O_29
REMARK                            x       y       z     vdW  Elec       q    Type
REMARK                         _______ _______ _______ _____ _____    ______ ____
ROOT
ATOM      1  C   UNL     1       1.646  16.597  21.080  0.00  0.00    +0.000 C 
ATOM      2  C   UNL     1       1.714  15.682  19.828  0.00  0.00    +0.000 C 
ATOM      3  C   UNL     1       0.527  15.990  18.919  0.00  0.00    +0.000 C 
ATOM      4  C   UNL     1      -0.780  15.680  19.649  0.00  0.00    +0.000 C 
ATOM      5  C   UNL     1      -0.857  14.217  20.135  0.00  0.00    +0.000 C 
ATOM      6  C   UNL     1      -2.072  13.875  20.988  0.00  0.00    +0.000 A 
ATOM      7  C   UNL     1      -3.222  14.685  20.993  0.00  0.00    +0.000 A 
ATOM      8  C   UNL     1      -4.387  14.287  21.650  0.00  0.00    +0.000 A 
ATOM      9  C   UNL     1      -4.407  13.078  22.325  0.00  0.00    +0.000 A 
ATOM     10  C   UNL     1      -3.271  12.283  22.385  0.00  0.00    +0.000 A 
ATOM     11  C   UNL     1      -2.096  12.659  21.704  0.00  0.00    +0.000 A 
ATOM     12  C   UNL     1      -0.900  11.726  21.771  0.00  0.00    +0.000 C 
ATOM     13  C   UNL     1       0.298  12.061  20.841  0.00  0.00    +0.000 C 
ATOM     14  C   UNL     1       0.439  13.640  20.803  0.00  0.00    +0.000 C 
ATOM     15  C   UNL     1       1.716  14.161  20.121  0.00  0.00    +0.000 C 
ATOM     16  C   UNL     1       3.069  14.001  20.824  0.00  0.00    +0.000 C 
ATOM     17  C   UNL     1       4.009  14.881  19.967  0.00  0.00    +0.000 C 
ATOM     18  C   UNL     1       3.088  15.802  19.136  0.00  0.00    +0.000 C 
ENDROOT
BRANCH   9  19
ATOM     19  O   UNL     1      -5.540  12.623  22.930  0.00  0.00    +0.000 OA
ATOM     20  H   UNL     1      -6.300  13.086  22.540  0.00  0.00    +0.000 HD
ENDBRANCH   9  19
BRANCH  12  21
ATOM     21  O   UNL     1      -0.389  11.714  23.117  0.00  0.00    +0.000 OA
ATOM     22  H   UNL     1       0.538  11.420  23.085  0.00  0.00    +0.000 HD
ENDBRANCH  12  21
BRANCH  18  23
ATOM     23  O   UNL     1       3.573  17.126  19.032  0.00  0.00    +0.000 OA
ATOM     24  H   UNL     1       3.914  17.408  19.896  0.00  0.00    +0.000 HD
ENDBRANCH  18  23
BRANCH  13  25
ATOM     25  S   UNL     1       0.159  11.322  19.105  0.00  0.00    +0.000 S 
BRANCH  25  26
ATOM     26  C   UNL     1       1.025   9.756  19.041  0.00  0.00    +0.000 A 
ATOM     27  C   UNL     1       1.663   9.220  17.922  0.00  0.00    +0.000 A 
ATOM     28  C   UNL     1       2.369   8.008  18.007  0.00  0.00    +0.000 A 
ATOM     29  C   UNL     1       2.412   7.302  19.209  0.00  0.00    +0.000 A 
ATOM     30 BR   UNL     1       3.380   5.684  19.320  0.00  0.00    +0.000 Br
ATOM     31  C   UNL     1       1.745   7.786  20.324  0.00  0.00    +0.000 A 
ATOM     32  C   UNL     1       1.065   9.007  20.229  0.00  0.00    +0.000 A 
ENDBRANCH  25  26
ENDBRANCH  13  25
TORSDOF 5
ENDMDL
MODEL 7
REMARK VINA RESULT:      -6.8      6.133     10.749
REMARK  Name = 
REMARK  6 active torsions:
REMARK  status: ('A' for Active; 'I' for Inactive)
REMARK    1  A    between atoms: C_1  and  C_2
REMARK    2  A    between atoms: C_9  and  O_10
REMARK    3  A    between atoms: C_13  and  O_14
REMARK    4  A    between atoms: C_15  and  S_16
REMARK    5  A    between atoms: S_16  and  C_17
REMARK    6  A    between atoms: C_28  and  O_29
REMARK                            x       y       z     vdW  Elec       q    Type
REMARK                         _______ _______ _______ _____ _____    ______ ____
ROOT
ATOM      1  C   UNL     1      -0.846   8.305  21.219  0.00  0.00    +0.000 C 
ATOM      2  C   UNL     1       0.249   9.403  21.281  0.00  0.00    +0.000 C 
ATOM      3  C   UNL     1       0.437   9.841  22.732  0.00  0.00    +0.000 C 
ATOM      4  C   UNL     1      -0.861  10.450  23.262  0.00  0.00    +0.000 C 
ATOM      5  C   UNL     1      -1.347  11.645  22.412  0.00  0.00    +0.000 C 
ATOM      6  C   UNL     1      -2.705  12.214  22.804  0.00  0.00    +0.000 A 
ATOM      7  C   UNL     1      -3.276  11.962  24.064  0.00  0.00    +0.000 A 
ATOM      8  C   UNL     1      -4.441  12.611  24.476  0.00  0.00    +0.000 A 
ATOM      9  C   UNL     1      -5.056  13.509  23.620  0.00  0.00    +0.000 A 
ATOM     10  C   UNL     1      -4.548  13.738  22.350  0.00  0.00    +0.000 A 
ATOM     11  C   UNL     1      -3.358  13.111  21.930  0.00  0.00    +0.000 A 
ATOM     12  C   UNL     1      -2.827  13.435  20.545  0.00  0.00    +0.000 C 
ATOM     13  C   UNL     1      -1.412  12.897  20.197  0.00  0.00    +0.000 C 
ATOM     14  C   UNL     1      -1.277  11.462  20.857  0.00  0.00    +0.000 C 
ATOM     15  C   UNL     1      -0.031  10.665  20.429  0.00  0.00    +0.000 C 
ATOM     16  C   UNL     1       0.045  10.084  19.012  0.00  0.00    +0.000 C 
ATOM     17  C   UNL     1       1.277   9.152  19.088  0.00  0.00    +0.000 C 
ATOM     18  C   UNL     1       1.544   8.924  20.593  0.00  0.00    +0.000 C 
ENDROOT
BRANCH   9  19
ATOM     19  O   UNL     1      -6.161  14.209  24.004  0.00  0.00    +0.000 OA
ATOM     20  H   UNL     1      -6.941  13.644  23.872  0.00  0.00    +0.000 HD
ENDBRANCH   9  19
BRANCH  12  21
ATOM     21  O   UNL     1      -3.728  12.897  19.560  0.00  0.00    +0.000 OA
ATOM     22  H   UNL     1      -3.327  12.089  19.193  0.00  0.00    +0.000 HD
ENDBRANCH  12  21
BRANCH  18  23
ATOM     23  O   UNL     1       1.905   7.591  20.898  0.00  0.00    +0.000 OA
ATOM     24  H   UNL     1       1.631   7.388  21.807  0.00  0.00    +0.000 HD
ENDBRANCH  18  23
BRANCH  13  25
ATOM     25  S   UNL     1      -0.001  14.047  20.713  0.00  0.00    +0.000 S 
BRANCH  25  26
ATOM     26  C   UNL     1      -0.620  15.308  21.824  0.00  0.00    +0.000 A 
ATOM     27  C   UNL     1      -1.205  16.516  21.445  0.00  0.00    +0.000 A 
ATOM     28  C   UNL     1      -1.715  17.403  22.407  0.00  0.00    +0.000 A 
ATOM     29  C   UNL     1      -1.611  17.102  23.766  0.00  0.00    +0.000 A 
ATOM     30 BR   UNL     1      -2.316  18.291  25.053  0.00  0.00    +0.000 Br
ATOM     31  C   UNL     1      -0.989  15.932  24.174  0.00  0.00    +0.000 A 
ATOM     32  C   UNL     1      -0.507  15.047  23.200  0.00  0.00    +0.000 A 
ENDBRANCH  25  26
ENDBRANCH  13  25
TORSDOF 5
ENDMDL
MODEL 8
REMARK VINA RESULT:      -6.8      6.053     10.730
REMARK  Name = 
REMARK  6 active torsions:
REMARK  status: ('A' for Active; 'I' for Inactive)
REMARK    1  A    between atoms: C_1  and  C_2
REMARK    2  A    between atoms: C_9  and  O_10
REMARK    3  A    between atoms: C_13  and  O_14
REMARK    4  A    between atoms: C_15  and  S_16
REMARK    5  A    between atoms: S_16  and  C_17
REMARK    6  A    between atoms: C_28  and  O_29
REMARK                            x       y       z     vdW  Elec       q    Type
REMARK                         _______ _______ _______ _____ _____    ______ ____
ROOT
ATOM      1  C   UNL     1      -0.894   8.245  21.303  0.00  0.00    +0.000 C 
ATOM      2  C   UNL     1       0.192   9.352  21.369  0.00  0.00    +0.000 C 
ATOM      3  C   UNL     1       0.380   9.781  22.822  0.00  0.00    +0.000 C 
ATOM      4  C   UNL     1      -0.921  10.376  23.361  0.00  0.00    +0.000 C 
ATOM      5  C   UNL     1      -1.420  11.571  22.521  0.00  0.00    +0.000 C 
ATOM      6  C   UNL     1      -2.783  12.126  22.921  0.00  0.00    +0.000 A 
ATOM      7  C   UNL     1      -3.347  11.860  24.181  0.00  0.00    +0.000 A 
ATOM      8  C   UNL     1      -4.516  12.496  24.602  0.00  0.00    +0.000 A 
ATOM      9  C   UNL     1      -5.142  13.394  23.754  0.00  0.00    +0.000 A 
ATOM     10  C   UNL     1      -4.640  13.636  22.484  0.00  0.00    +0.000 A 
ATOM     11  C   UNL     1      -3.446  13.023  22.056  0.00  0.00    +0.000 A 
ATOM     12  C   UNL     1      -2.922  13.361  20.672  0.00  0.00    +0.000 C 
ATOM     13  C   UNL     1      -1.504  12.839  20.316  0.00  0.00    +0.000 C 
ATOM     14  C   UNL     1      -1.354  11.400  20.965  0.00  0.00    +0.000 C 
ATOM     15  C   UNL     1      -0.103  10.618  20.527  0.00  0.00    +0.000 C 
ATOM     16  C   UNL     1      -0.026  10.047  19.106  0.00  0.00    +0.000 C 
ATOM     17  C   UNL     1       1.215   9.126  19.171  0.00  0.00    +0.000 C 
ATOM     18  C   UNL     1       1.489   8.890  20.674  0.00  0.00    +0.000 C 
ENDROOT
BRANCH   9  19
ATOM     19  O   UNL     1      -6.252  14.082  24.146  0.00  0.00    +0.000 OA
ATOM     20  H   UNL     1      -6.990  13.823  23.570  0.00  0.00    +0.000 HD
ENDBRANCH   9  19
BRANCH  12  21
ATOM     21  O   UNL     1      -3.822  12.822  19.685  0.00  0.00    +0.000 OA
ATOM     22  H   UNL     1      -3.503  13.093  18.807  0.00  0.00    +0.000 HD
ENDBRANCH  12  21
BRANCH  18  23
ATOM     23  O   UNL     1       1.863   7.558  20.968  0.00  0.00    +0.000 OA
ATOM     24  H   UNL     1       1.510   7.314  21.839  0.00  0.00    +0.000 HD
ENDBRANCH  18  23
BRANCH  13  25
ATOM     25  S   UNL     1      -0.101  13.998  20.835  0.00  0.00    +0.000 S 
BRANCH  25  26
ATOM     26  C   UNL     1       0.126  15.270  19.595  0.00  0.00    +0.000 A 
ATOM     27  C   UNL     1      -0.857  16.146  19.133  0.00  0.00    +0.000 A 
ATOM     28  C   UNL     1      -0.547  17.150  18.202  0.00  0.00    +0.000 A 
ATOM     29  C   UNL     1       0.748  17.265  17.697  0.00  0.00    +0.000 A 
ATOM     30 BR   UNL     1       1.162  18.631  16.460  0.00  0.00    +0.000 Br
ATOM     31  C   UNL     1       1.734  16.377  18.101  0.00  0.00    +0.000 A 
ATOM     32  C   UNL     1       1.413  15.395  19.048  0.00  0.00    +0.000 A 
ENDBRANCH  25  26
ENDBRANCH  13  25
TORSDOF 5
ENDMDL
MODEL 9
REMARK VINA RESULT:      -6.8      3.439      6.787
REMARK  Name = 
REMARK  6 active torsions:
REMARK  status: ('A' for Active; 'I' for Inactive)
REMARK    1  A    between atoms: C_1  and  C_2
REMARK    2  A    between atoms: C_9  and  O_10
REMARK    3  A    between atoms: C_13  and  O_14
REMARK    4  A    between atoms: C_15  and  S_16
REMARK    5  A    between atoms: S_16  and  C_17
REMARK    6  A    between atoms: C_28  and  O_29
REMARK                            x       y       z     vdW  Elec       q    Type
REMARK                         _______ _______ _______ _____ _____    ______ ____
ROOT
ATOM      1  C   UNL     1       0.460   3.478  19.575  0.00  0.00    +0.000 C 
ATOM      2  C   UNL     1       1.998   3.625  19.422  0.00  0.00    +0.000 C 
ATOM      3  C   UNL     1       2.601   3.995  20.775  0.00  0.00    +0.000 C 
ATOM      4  C   UNL     1       2.050   5.345  21.237  0.00  0.00    +0.000 C 
ATOM      5  C   UNL     1       2.313   6.474  20.218  0.00  0.00    +0.000 C 
ATOM      6  C   UNL     1       1.671   7.816  20.552  0.00  0.00    +0.000 A 
ATOM      7  C   UNL     1       1.235   8.123  21.854  0.00  0.00    +0.000 A 
ATOM      8  C   UNL     1       0.796   9.404  22.189  0.00  0.00    +0.000 A 
ATOM      9  C   UNL     1       0.774  10.390  21.217  0.00  0.00    +0.000 A 
ATOM     10  C   UNL     1       1.145  10.104  19.911  0.00  0.00    +0.000 A 
ATOM     11  C   UNL     1       1.617   8.822  19.564  0.00  0.00    +0.000 A 
ATOM     12  C   UNL     1       2.051   8.583  18.129  0.00  0.00    +0.000 C 
ATOM     13  C   UNL     1       2.761   7.235  17.831  0.00  0.00    +0.000 C 
ATOM     14  C   UNL     1       2.053   6.123  18.713  0.00  0.00    +0.000 C 
ATOM     15  C   UNL     1       2.461   4.676  18.383  0.00  0.00    +0.000 C 
ATOM     16  C   UNL     1       1.975   4.031  17.080  0.00  0.00    +0.000 C 
ATOM     17  C   UNL     1       2.352   2.543  17.270  0.00  0.00    +0.000 C 
ATOM     18  C   UNL     1       2.608   2.361  18.783  0.00  0.00    +0.000 C 
ENDROOT
BRANCH   9  19
ATOM     19  O   UNL     1       0.409  11.669  21.514  0.00  0.00    +0.000 OA
ATOM     20  H   UNL     1       0.595  12.226  20.740  0.00  0.00    +0.000 HD
ENDBRANCH   9  19
BRANCH  12  21
ATOM     21  O   UNL     1       0.894   8.640  17.273  0.00  0.00    +0.000 OA
ATOM     22  H   UNL     1       1.196   8.553  16.352  0.00  0.00    +0.000 HD
ENDBRANCH  12  21
BRANCH  18  23
ATOM     23  O   UNL     1       2.093   1.146  19.291  0.00  0.00    +0.000 OA
ATOM     24  H   UNL     1       1.332   0.874  18.753  0.00  0.00    +0.000 HD
ENDBRANCH  18  23
BRANCH  13  25
ATOM     25  S   UNL     1       4.632   7.269  18.107  0.00  0.00    +0.000 S 
BRANCH  25  26
ATOM     26  C   UNL     1       5.456   6.360  16.802  0.00  0.00    +0.000 A 
ATOM     27  C   UNL     1       6.595   5.569  16.951  0.00  0.00    +0.000 A 
ATOM     28  C   UNL     1       7.117   4.848  15.864  0.00  0.00    +0.000 A 
ATOM     29  C   UNL     1       6.521   4.941  14.607  0.00  0.00    +0.000 A 
ATOM     30 BR   UNL     1       7.218   3.952  13.156  0.00  0.00    +0.000 Br
ATOM     31  C   UNL     1       5.418   5.759  14.418  0.00  0.00    +0.000 A 
ATOM     32  C   UNL     1       4.896   6.454  15.517  0.00  0.00    +0.000 A 
ENDBRANCH  25  26
ENDBRANCH  13  25
TORSDOF 5
ENDMDL
