MODEL 1
REMARK VINA RESULT:      -8.6      0.000      0.000
REMARK  Name = 
REMARK  5 active torsions:
REMARK  status: ('A' for Active; 'I' for Inactive)
REMARK    1  A    between atoms: C_1  and  C_2
REMARK    2  A    between atoms: C_7  and  C_8
REMARK    3  A    between atoms: C_8  and  N_9
REMARK    4  A    between atoms: C_13  and  C_14
REMARK    5  A    between atoms: C_14  and  N_15
REMARK                            x       y       z     vdW  Elec       q    Type
REMARK                         _______ _______ _______ _____ _____    ______ ____
ROOT
ATOM      1  N   UNL     1       0.528   9.422  19.410  0.00  0.00    +0.000 N 
ATOM      2  C   UNL     1      -0.076   9.429  20.613  0.00  0.00    +0.000 A 
ATOM      3  C   UNL     1       0.309   8.547  21.611  0.00  0.00    +0.000 A 
ATOM      4  C   UNL     1       1.361   7.664  21.366  0.00  0.00    +0.000 A 
ATOM      5  C   UNL     1       2.003   7.657  20.136  0.00  0.00    +0.000 A 
ATOM      6  C   UNL     1       1.544   8.544  19.151  0.00  0.00    +0.000 A 
ENDROOT
BRANCH   1   7
ATOM      7  C   UNL     1       0.279  10.517  18.447  0.00  0.00    +0.000 C 
BRANCH   7  14
ATOM      8  C   UNL     1      -1.684  12.692  19.646  0.00  0.00    +0.000 C 
ATOM      9  C   UNL     1      -2.062  11.697  18.588  0.00  0.00    +0.000 A 
ATOM     10  C   UNL     1      -3.422  11.679  18.196  0.00  0.00    +0.000 A 
ATOM     11  C   UNL     1      -3.906  10.753  17.277  0.00  0.00    +0.000 A 
ATOM     12  C   UNL     1      -3.039   9.822  16.728  0.00  0.00    +0.000 A 
ATOM     13  C   UNL     1      -1.693   9.822  17.103  0.00  0.00    +0.000 A 
ATOM     14  C   UNL     1      -1.168  10.755  18.031  0.00  0.00    +0.000 A 
ENDBRANCH   7  14
ENDBRANCH   1   7
BRANCH   5  15
ATOM     15  C   UNL     1       3.149   6.710  19.820  0.00  0.00    +0.000 C 
BRANCH  15  16
ATOM     16  N   UNL     1       2.806   5.886  18.657  0.00  0.00    +0.000 N 
ATOM     17  C   UNL     1       2.189   4.653  18.772  0.00  0.00    +0.000 A 
ATOM     18  C   UNL     1       1.076   4.237  19.514  0.00  0.00    +0.000 A 
ATOM     19  C   UNL     1       0.724   2.888  19.428  0.00  0.00    +0.000 A 
ATOM     20  C   UNL     1       1.477   1.994  18.668  0.00  0.00    +0.000 A 
ATOM     21  C   UNL     1       2.636   2.414  18.002  0.00  0.00    +0.000 A 
ATOM     22  C   UNL     1       3.000   3.772  18.052  0.00  0.00    +0.000 A 
ATOM     23  C   UNL     1       4.054   4.547  17.475  0.00  0.00    +0.000 A 
ATOM     24  C   UNL     1       5.277   4.287  16.837  0.00  0.00    +0.000 A 
ATOM     25  C   UNL     1       5.880   5.319  16.108  0.00  0.00    +0.000 A 
ATOM     26  C   UNL     1       5.237   6.547  15.945  0.00  0.00    +0.000 A 
ATOM     27  C   UNL     1       4.097   6.865  16.687  0.00  0.00    +0.000 A 
ATOM     28  C   UNL     1       3.607   5.863  17.527  0.00  0.00    +0.000 A 
ENDBRANCH  15  16
ENDBRANCH   5  15
TORSDOF 4
ENDMDL
MODEL 2
REMARK VINA RESULT:      -8.4      1.685      8.521
REMARK  Name = 
REMARK  5 active torsions:
REMARK  status: ('A' for Active; 'I' for Inactive)
REMARK    1  A    between atoms: C_1  and  C_2
REMARK    2  A    between atoms: C_7  and  C_8
REMARK    3  A    between atoms: C_8  and  N_9
REMARK    4  A    between atoms: C_13  and  C_14
REMARK    5  A    between atoms: C_14  and  N_15
REMARK                            x       y       z     vdW  Elec       q    Type
REMARK                         _______ _______ _______ _____ _____    ______ ____
ROOT
ATOM      1  N   UNL     1       2.383   6.732  19.539  0.00  0.00    +0.000 N 
ATOM      2  C   UNL     1       2.970   6.832  18.333  0.00  0.00    +0.000 A 
ATOM      3  C   UNL     1       2.861   7.991  17.579  0.00  0.00    +0.000 A 
ATOM      4  C   UNL     1       2.155   9.075  18.103  0.00  0.00    +0.000 A 
ATOM      5  C   UNL     1       1.558   8.990  19.352  0.00  0.00    +0.000 A 
ATOM      6  C   UNL     1       1.668   7.780  20.051  0.00  0.00    +0.000 A 
ENDROOT
BRANCH   1   7
ATOM      7  C   UNL     1       2.706   5.595  20.430  0.00  0.00    +0.000 C 
BRANCH   7  14
ATOM      8  C   UNL     1       4.845   3.627  19.178  0.00  0.00    +0.000 C 
ATOM      9  C   UNL     1       3.379   3.327  19.294  0.00  0.00    +0.000 A 
ATOM     10  C   UNL     1       2.933   2.123  18.697  0.00  0.00    +0.000 A 
ATOM     11  C   UNL     1       1.587   1.773  18.677  0.00  0.00    +0.000 A 
ATOM     12  C   UNL     1       0.654   2.619  19.254  0.00  0.00    +0.000 A 
ATOM     13  C   UNL     1       1.074   3.813  19.847  0.00  0.00    +0.000 A 
ATOM     14  C   UNL     1       2.438   4.195  19.890  0.00  0.00    +0.000 A 
ENDBRANCH   7  14
ENDBRANCH   1   7
BRANCH   5  15
ATOM     15  C   UNL     1       0.774  10.142  19.960  0.00  0.00    +0.000 C 
BRANCH  15  16
ATOM     16  N   UNL     1       0.376  11.082  18.908  0.00  0.00    +0.000 N 
ATOM     17  C   UNL     1       0.742  12.416  18.922  0.00  0.00    +0.000 A 
ATOM     18  C   UNL     1       1.979  13.037  19.141  0.00  0.00    +0.000 A 
ATOM     19  C   UNL     1       2.001  14.434  19.114  0.00  0.00    +0.000 A 
ATOM     20  C   UNL     1       0.832  15.169  18.919  0.00  0.00    +0.000 A 
ATOM     21  C   UNL     1      -0.407  14.530  18.786  0.00  0.00    +0.000 A 
ATOM     22  C   UNL     1      -0.454  13.124  18.785  0.00  0.00    +0.000 A 
ATOM     23  C   UNL     1      -1.498  12.158  18.629  0.00  0.00    +0.000 A 
ATOM     24  C   UNL     1      -2.901  12.163  18.655  0.00  0.00    +0.000 A 
ATOM     25  C   UNL     1      -3.580  11.058  18.123  0.00  0.00    +0.000 A 
ATOM     26  C   UNL     1      -2.880  10.021  17.504  0.00  0.00    +0.000 A 
ATOM     27  C   UNL     1      -1.489   9.936  17.599  0.00  0.00    +0.000 A 
ATOM     28  C   UNL     1      -0.851  10.979  18.274  0.00  0.00    +0.000 A 
ENDBRANCH  15  16
ENDBRANCH   5  15
TORSDOF 4
ENDMDL
MODEL 3
REMARK VINA RESULT:      -8.3      1.651      8.311
REMARK  Name = 
REMARK  5 active torsions:
REMARK  status: ('A' for Active; 'I' for Inactive)
REMARK    1  A    between atoms: C_1  and  C_2
REMARK    2  A    between atoms: C_7  and  C_8
REMARK    3  A    between atoms: C_8  and  N_9
REMARK    4  A    between atoms: C_13  and  C_14
REMARK    5  A    between atoms: C_14  and  N_15
REMARK                            x       y       z     vdW  Elec       q    Type
REMARK                         _______ _______ _______ _____ _____    ______ ____
ROOT
ATOM      1  N   UNL     1       2.039   7.266  19.591  0.00  0.00    +0.000 N 
ATOM      2  C   UNL     1       2.606   7.099  18.382  0.00  0.00    +0.000 A 
ATOM      3  C   UNL     1       2.629   8.130  17.455  0.00  0.00    +0.000 A 
ATOM      4  C   UNL     1       2.079   9.365  17.802  0.00  0.00    +0.000 A 
ATOM      5  C   UNL     1       1.506   9.555  19.051  0.00  0.00    +0.000 A 
ATOM      6  C   UNL     1       1.477   8.465  19.933  0.00  0.00    +0.000 A 
ENDROOT
BRANCH   1   7
ATOM      7  C   UNL     1       2.235   6.251  20.650  0.00  0.00    +0.000 C 
BRANCH   7  14
ATOM      8  C   UNL     1       4.697   4.619  19.514  0.00  0.00    +0.000 C 
ATOM      9  C   UNL     1       3.311   4.066  19.672  0.00  0.00    +0.000 A 
ATOM     10  C   UNL     1       3.092   2.760  19.171  0.00  0.00    +0.000 A 
ATOM     11  C   UNL     1       1.832   2.169  19.195  0.00  0.00    +0.000 A 
ATOM     12  C   UNL     1       0.761   2.872  19.722  0.00  0.00    +0.000 A 
ATOM     13  C   UNL     1       0.956   4.163  20.220  0.00  0.00    +0.000 A 
ATOM     14  C   UNL     1       2.227   4.790  20.217  0.00  0.00    +0.000 A 
ENDBRANCH   7  14
ENDBRANCH   1   7
BRANCH   5  15
ATOM     15  C   UNL     1       0.891  10.880  19.472  0.00  0.00    +0.000 C 
BRANCH  15  16
ATOM     16  N   UNL     1      -0.540  10.700  19.736  0.00  0.00    +0.000 N 
ATOM     17  C   UNL     1      -1.483  10.634  18.725  0.00  0.00    +0.000 A 
ATOM     18  C   UNL     1      -1.515   9.902  17.531  0.00  0.00    +0.000 A 
ATOM     19  C   UNL     1      -2.623  10.089  16.701  0.00  0.00    +0.000 A 
ATOM     20  C   UNL     1      -3.627  10.998  17.034  0.00  0.00    +0.000 A 
ATOM     21  C   UNL     1      -3.533  11.782  18.190  0.00  0.00    +0.000 A 
ATOM     22  C   UNL     1      -2.441  11.596  19.057  0.00  0.00    +0.000 A 
ATOM     23  C   UNL     1      -2.051  12.162  20.310  0.00  0.00    +0.000 A 
ATOM     24  C   UNL     1      -2.421  13.272  21.086  0.00  0.00    +0.000 A 
ATOM     25  C   UNL     1      -2.032  13.305  22.431  0.00  0.00    +0.000 A 
ATOM     26  C   UNL     1      -1.369  12.220  23.008  0.00  0.00    +0.000 A 
ATOM     27  C   UNL     1      -0.871  11.180  22.219  0.00  0.00    +0.000 A 
ATOM     28  C   UNL     1      -1.144  11.256  20.852  0.00  0.00    +0.000 A 
ENDBRANCH  15  16
ENDBRANCH   5  15
TORSDOF 4
ENDMDL
MODEL 4
REMARK VINA RESULT:      -8.3      1.092      3.449
REMARK  Name = 
REMARK  5 active torsions:
REMARK  status: ('A' for Active; 'I' for Inactive)
REMARK    1  A    between atoms: C_1  and  C_2
REMARK    2  A    between atoms: C_7  and  C_8
REMARK    3  A    between atoms: C_8  and  N_9
REMARK    4  A    between atoms: C_13  and  C_14
REMARK    5  A    between atoms: C_14  and  N_15
REMARK                            x       y       z     vdW  Elec       q    Type
REMARK                         _______ _______ _______ _____ _____    ______ ____
ROOT
ATOM      1  N   UNL     1       0.544  10.009  19.223  0.00  0.00    +0.000 N 
ATOM      2  C   UNL     1       0.672   9.684  20.523  0.00  0.00    +0.000 A 
ATOM      3  C   UNL     1       1.415   8.580  20.914  0.00  0.00    +0.000 A 
ATOM      4  C   UNL     1       2.061   7.820  19.938  0.00  0.00    +0.000 A 
ATOM      5  C   UNL     1       1.951   8.153  18.596  0.00  0.00    +0.000 A 
ATOM      6  C   UNL     1       1.154   9.256  18.258  0.00  0.00    +0.000 A 
ENDROOT
BRANCH   1   7
ATOM      7  C   UNL     1      -0.040  11.313  18.838  0.00  0.00    +0.000 C 
BRANCH   7  14
ATOM      8  C   UNL     1      -2.137  10.083  16.812  0.00  0.00    +0.000 C 
ATOM      9  C   UNL     1      -2.497  10.930  17.998  0.00  0.00    +0.000 A 
ATOM     10  C   UNL     1      -3.862  11.277  18.134  0.00  0.00    +0.000 A 
ATOM     11  C   UNL     1      -4.305  12.116  19.152  0.00  0.00    +0.000 A 
ATOM     12  C   UNL     1      -3.391  12.628  20.058  0.00  0.00    +0.000 A 
ATOM     13  C   UNL     1      -2.038  12.300  19.939  0.00  0.00    +0.000 A 
ATOM     14  C   UNL     1      -1.556  11.442  18.919  0.00  0.00    +0.000 A 
ENDBRANCH   7  14
ENDBRANCH   1   7
BRANCH   5  15
ATOM     15  C   UNL     1       2.631   7.352  17.499  0.00  0.00    +0.000 C 
BRANCH  15  16
ATOM     16  N   UNL     1       3.475   6.311  18.095  0.00  0.00    +0.000 N 
ATOM     17  C   UNL     1       4.797   6.125  17.732  0.00  0.00    +0.000 A 
ATOM     18  C   UNL     1       5.855   7.031  17.581  0.00  0.00    +0.000 A 
ATOM     19  C   UNL     1       7.084   6.509  17.167  0.00  0.00    +0.000 A 
ATOM     20  C   UNL     1       7.229   5.153  16.878  0.00  0.00    +0.000 A 
ATOM     21  C   UNL     1       6.137   4.279  16.954  0.00  0.00    +0.000 A 
ATOM     22  C   UNL     1       4.895   4.774  17.392  0.00  0.00    +0.000 A 
ATOM     23  C   UNL     1       3.613   4.187  17.632  0.00  0.00    +0.000 A 
ATOM     24  C   UNL     1       2.974   2.976  17.324  0.00  0.00    +0.000 A 
ATOM     25  C   UNL     1       1.812   2.637  18.030  0.00  0.00    +0.000 A 
ATOM     26  C   UNL     1       1.353   3.442  19.074  0.00  0.00    +0.000 A 
ATOM     27  C   UNL     1       1.892   4.712  19.294  0.00  0.00    +0.000 A 
ATOM     28  C   UNL     1       2.954   5.084  18.467  0.00  0.00    +0.000 A 
ENDBRANCH  15  16
ENDBRANCH   5  15
TORSDOF 4
ENDMDL
MODEL 5
REMARK VINA RESULT:      -8.2      1.959      3.085
REMARK  Name = 
REMARK  5 active torsions:
REMARK  status: ('A' for Active; 'I' for Inactive)
REMARK    1  A    between atoms: C_1  and  C_2
REMARK    2  A    between atoms: C_7  and  C_8
REMARK    3  A    between atoms: C_8  and  N_9
REMARK    4  A    between atoms: C_13  and  C_14
REMARK    5  A    between atoms: C_14  and  N_15
REMARK                            x       y       z     vdW  Elec       q    Type
REMARK                         _______ _______ _______ _____ _____    ______ ____
ROOT
ATOM      1  N   UNL     1       0.625   9.571  20.038  0.00  0.00    +0.000 N 
ATOM      2  C   UNL     1       0.446   9.961  18.762  0.00  0.00    +0.000 A 
ATOM      3  C   UNL     1       1.108   9.327  17.721  0.00  0.00    +0.000 A 
ATOM      4  C   UNL     1       1.947   8.249  18.010  0.00  0.00    +0.000 A 
ATOM      5  C   UNL     1       2.128   7.827  19.319  0.00  0.00    +0.000 A 
ATOM      6  C   UNL     1       1.464   8.532  20.333  0.00  0.00    +0.000 A 
ENDROOT
BRANCH   1   7
ATOM      7  C   UNL     1      -0.262  10.088  21.104  0.00  0.00    +0.000 C 
BRANCH   7  14
ATOM      8  C   UNL     1      -2.070  11.720  23.126  0.00  0.00    +0.000 C 
ATOM      9  C   UNL     1      -0.880  12.283  22.404  0.00  0.00    +0.000 A 
ATOM     10  C   UNL     1      -0.637  13.667  22.572  0.00  0.00    +0.000 A 
ATOM     11  C   UNL     1       0.392  14.317  21.897  0.00  0.00    +0.000 A 
ATOM     12  C   UNL     1       1.204  13.595  21.038  0.00  0.00    +0.000 A 
ATOM     13  C   UNL     1       0.979  12.228  20.855  0.00  0.00    +0.000 A 
ATOM     14  C   UNL     1      -0.055  11.536  21.533  0.00  0.00    +0.000 A 
ENDBRANCH   7  14
ENDBRANCH   1   7
BRANCH   5  15
ATOM     15  C   UNL     1       3.036   6.664  19.681  0.00  0.00    +0.000 C 
BRANCH  15  16
ATOM     16  N   UNL     1       3.282   5.838  18.495  0.00  0.00    +0.000 N 
ATOM     17  C   UNL     1       2.778   4.557  18.359  0.00  0.00    +0.000 A 
ATOM     18  C   UNL     1       1.494   4.037  18.571  0.00  0.00    +0.000 A 
ATOM     19  C   UNL     1       1.323   2.665  18.367  0.00  0.00    +0.000 A 
ATOM     20  C   UNL     1       2.397   1.851  18.008  0.00  0.00    +0.000 A 
ATOM     21  C   UNL     1       3.689   2.377  17.884  0.00  0.00    +0.000 A 
ATOM     22  C   UNL     1       3.885   3.759  18.061  0.00  0.00    +0.000 A 
ATOM     23  C   UNL     1       5.017   4.629  17.968  0.00  0.00    +0.000 A 
ATOM     24  C   UNL     1       6.411   4.482  17.908  0.00  0.00    +0.000 A 
ATOM     25  C   UNL     1       7.178   5.575  17.483  0.00  0.00    +0.000 A 
ATOM     26  C   UNL     1       6.564   6.750  17.045  0.00  0.00    +0.000 A 
ATOM     27  C   UNL     1       5.195   6.959  17.234  0.00  0.00    +0.000 A 
ATOM     28  C   UNL     1       4.482   5.904  17.807  0.00  0.00    +0.000 A 
ENDBRANCH  15  16
ENDBRANCH   5  15
TORSDOF 4
ENDMDL
MODEL 6
REMARK VINA RESULT:      -8.2      1.029      3.167
REMARK  Name = 
REMARK  5 active torsions:
REMARK  status: ('A' for Active; 'I' for Inactive)
REMARK    1  A    between atoms: C_1  and  C_2
REMARK    2  A    between atoms: C_7  and  C_8
REMARK    3  A    between atoms: C_8  and  N_9
REMARK    4  A    between atoms: C_13  and  C_14
REMARK    5  A    between atoms: C_14  and  N_15
REMARK                            x       y       z     vdW  Elec       q    Type
REMARK                         _______ _______ _______ _____ _____    ______ ____
ROOT
ATOM      1  N   UNL     1       0.542   9.952  19.120  0.00  0.00    +0.000 N 
ATOM      2  C   UNL     1       0.652   9.636  20.423  0.00  0.00    +0.000 A 
ATOM      3  C   UNL     1       1.416   8.554  20.835  0.00  0.00    +0.000 A 
ATOM      4  C   UNL     1       2.102   7.806  19.876  0.00  0.00    +0.000 A 
ATOM      5  C   UNL     1       2.010   8.131  18.530  0.00  0.00    +0.000 A 
ATOM      6  C   UNL     1       1.191   9.211  18.171  0.00  0.00    +0.000 A 
ENDROOT
BRANCH   1   7
ATOM      7  C   UNL     1      -0.069  11.238  18.716  0.00  0.00    +0.000 C 
BRANCH   7  14
ATOM      8  C   UNL     1      -2.397  12.854  20.126  0.00  0.00    +0.000 C 
ATOM      9  C   UNL     1      -2.595  11.900  18.983  0.00  0.00    +0.000 A 
ATOM     10  C   UNL     1      -3.933  11.641  18.602  0.00  0.00    +0.000 A 
ATOM     11  C   UNL     1      -4.244  10.721  17.605  0.00  0.00    +0.000 A 
ATOM     12  C   UNL     1      -3.222  10.039  16.966  0.00  0.00    +0.000 A 
ATOM     13  C   UNL     1      -1.895  10.278  17.330  0.00  0.00    +0.000 A 
ATOM     14  C   UNL     1      -1.544  11.213  18.335  0.00  0.00    +0.000 A 
ENDBRANCH   7  14
ENDBRANCH   1   7
BRANCH   5  15
ATOM     15  C   UNL     1       2.733   7.343  17.451  0.00  0.00    +0.000 C 
BRANCH  15  16
ATOM     16  N   UNL     1       3.560   6.301  18.068  0.00  0.00    +0.000 N 
ATOM     17  C   UNL     1       4.888   6.106  17.731  0.00  0.00    +0.000 A 
ATOM     18  C   UNL     1       5.954   7.005  17.597  0.00  0.00    +0.000 A 
ATOM     19  C   UNL     1       7.187   6.475  17.208  0.00  0.00    +0.000 A 
ATOM     20  C   UNL     1       7.331   5.117  16.928  0.00  0.00    +0.000 A 
ATOM     21  C   UNL     1       6.233   4.250  16.987  0.00  0.00    +0.000 A 
ATOM     22  C   UNL     1       4.985   4.752  17.399  0.00  0.00    +0.000 A 
ATOM     23  C   UNL     1       3.696   4.173  17.616  0.00  0.00    +0.000 A 
ATOM     24  C   UNL     1       3.056   2.964  17.300  0.00  0.00    +0.000 A 
ATOM     25  C   UNL     1       1.879   2.635  17.985  0.00  0.00    +0.000 A 
ATOM     26  C   UNL     1       1.404   3.446  19.017  0.00  0.00    +0.000 A 
ATOM     27  C   UNL     1       1.946   4.714  19.242  0.00  0.00    +0.000 A 
ATOM     28  C   UNL     1       3.025   5.077  18.434  0.00  0.00    +0.000 A 
ENDBRANCH  15  16
ENDBRANCH   5  15
TORSDOF 4
ENDMDL
MODEL 7
REMARK VINA RESULT:      -8.2      1.426      8.373
REMARK  Name = 
REMARK  5 active torsions:
REMARK  status: ('A' for Active; 'I' for Inactive)
REMARK    1  A    between atoms: C_1  and  C_2
REMARK    2  A    between atoms: C_7  and  C_8
REMARK    3  A    between atoms: C_8  and  N_9
REMARK    4  A    between atoms: C_13  and  C_14
REMARK    5  A    between atoms: C_14  and  N_15
REMARK                            x       y       z     vdW  Elec       q    Type
REMARK                         _______ _______ _______ _____ _____    ______ ____
ROOT
ATOM      1  N   UNL     1       2.418   7.378  18.936  0.00  0.00    +0.000 N 
ATOM      2  C   UNL     1       2.222   6.843  20.155  0.00  0.00    +0.000 A 
ATOM      3  C   UNL     1       1.500   7.520  21.125  0.00  0.00    +0.000 A 
ATOM      4  C   UNL     1       0.946   8.763  20.813  0.00  0.00    +0.000 A 
ATOM      5  C   UNL     1       1.128   9.319  19.554  0.00  0.00    +0.000 A 
ATOM      6  C   UNL     1       1.901   8.606  18.627  0.00  0.00    +0.000 A 
ENDROOT
BRANCH   1   7
ATOM      7  C   UNL     1       2.975   6.551  17.842  0.00  0.00    +0.000 C 
BRANCH   7  14
ATOM      8  C   UNL     1       5.509   5.193  19.165  0.00  0.00    +0.000 C 
ATOM      9  C   UNL     1       4.301   4.446  18.678  0.00  0.00    +0.000 A 
ATOM     10  C   UNL     1       4.371   3.033  18.725  0.00  0.00    +0.000 A 
ATOM     11  C   UNL     1       3.344   2.233  18.234  0.00  0.00    +0.000 A 
ATOM     12  C   UNL     1       2.221   2.829  17.685  0.00  0.00    +0.000 A 
ATOM     13  C   UNL     1       2.133   4.222  17.627  0.00  0.00    +0.000 A 
ATOM     14  C   UNL     1       3.158   5.064  18.124  0.00  0.00    +0.000 A 
ENDBRANCH   7  14
ENDBRANCH   1   7
BRANCH   5  15
ATOM     15  C   UNL     1       0.550  10.671  19.171  0.00  0.00    +0.000 C 
BRANCH  15  16
ATOM     16  N   UNL     1      -0.878  10.713  19.504  0.00  0.00    +0.000 N 
ATOM     17  C   UNL     1      -1.870  10.629  18.544  0.00  0.00    +0.000 A 
ATOM     18  C   UNL     1      -2.050   9.749  17.468  0.00  0.00    +0.000 A 
ATOM     19  C   UNL     1      -3.167   9.960  16.655  0.00  0.00    +0.000 A 
ATOM     20  C   UNL     1      -4.036  11.025  16.887  0.00  0.00    +0.000 A 
ATOM     21  C   UNL     1      -3.791  11.943  17.917  0.00  0.00    +0.000 A 
ATOM     22  C   UNL     1      -2.687  11.741  18.765  0.00  0.00    +0.000 A 
ATOM     23  C   UNL     1      -2.169  12.420  19.912  0.00  0.00    +0.000 A 
ATOM     24  C   UNL     1      -2.364  13.664  20.533  0.00  0.00    +0.000 A 
ATOM     25  C   UNL     1      -1.907  13.831  21.846  0.00  0.00    +0.000 A 
ATOM     26  C   UNL     1      -1.352  12.761  22.550  0.00  0.00    +0.000 A 
ATOM     27  C   UNL     1      -1.024  11.567  21.902  0.00  0.00    +0.000 A 
ATOM     28  C   UNL     1      -1.353  11.489  20.548  0.00  0.00    +0.000 A 
ENDBRANCH  15  16
ENDBRANCH   5  15
TORSDOF 4
ENDMDL
MODEL 8
REMARK VINA RESULT:      -8.1      1.685      8.451
REMARK  Name = 
REMARK  5 active torsions:
REMARK  status: ('A' for Active; 'I' for Inactive)
REMARK    1  A    between atoms: C_1  and  C_2
REMARK    2  A    between atoms: C_7  and  C_8
REMARK    3  A    between atoms: C_8  and  N_9
REMARK    4  A    between atoms: C_13  and  C_14
REMARK    5  A    between atoms: C_14  and  N_15
REMARK                            x       y       z     vdW  Elec       q    Type
REMARK                         _______ _______ _______ _____ _____    ______ ____
ROOT
ATOM      1  N   UNL     1       2.709   6.985  18.780  0.00  0.00    +0.000 N 
ATOM      2  C   UNL     1       2.395   6.338  19.918  0.00  0.00    +0.000 A 
ATOM      3  C   UNL     1       1.611   6.941  20.890  0.00  0.00    +0.000 A 
ATOM      4  C   UNL     1       1.120   8.228  20.661  0.00  0.00    +0.000 A 
ATOM      5  C   UNL     1       1.423   8.899  19.486  0.00  0.00    +0.000 A 
ATOM      6  C   UNL     1       2.253   8.255  18.557  0.00  0.00    +0.000 A 
ENDROOT
BRANCH   1   7
ATOM      7  C   UNL     1       3.333   6.251  17.657  0.00  0.00    +0.000 C 
BRANCH   7  14
ATOM      8  C   UNL     1       4.800   3.798  19.017  0.00  0.00    +0.000 C 
ATOM      9  C   UNL     1       5.502   4.956  18.369  0.00  0.00    +0.000 A 
ATOM     10  C   UNL     1       6.913   4.982  18.484  0.00  0.00    +0.000 A 
ATOM     11  C   UNL     1       7.667   6.040  17.987  0.00  0.00    +0.000 A 
ATOM     12  C   UNL     1       7.027   7.098  17.363  0.00  0.00    +0.000 A 
ATOM     13  C   UNL     1       5.635   7.092  17.241  0.00  0.00    +0.000 A 
ATOM     14  C   UNL     1       4.839   6.027  17.730  0.00  0.00    +0.000 A 
ENDBRANCH   7  14
ENDBRANCH   1   7
BRANCH   5  15
ATOM     15  C   UNL     1       0.917  10.303  19.196  0.00  0.00    +0.000 C 
BRANCH  15  16
ATOM     16  N   UNL     1      -0.518  10.383  19.490  0.00  0.00    +0.000 N 
ATOM     17  C   UNL     1      -1.481  10.413  18.498  0.00  0.00    +0.000 A 
ATOM     18  C   UNL     1      -1.663   9.623  17.355  0.00  0.00    +0.000 A 
ATOM     19  C   UNL     1      -2.744   9.942  16.528  0.00  0.00    +0.000 A 
ATOM     20  C   UNL     1      -3.574  11.025  16.813  0.00  0.00    +0.000 A 
ATOM     21  C   UNL     1      -3.324  11.853  17.915  0.00  0.00    +0.000 A 
ATOM     22  C   UNL     1      -2.257  11.541  18.778  0.00  0.00    +0.000 A 
ATOM     23  C   UNL     1      -1.749  12.111  19.986  0.00  0.00    +0.000 A 
ATOM     24  C   UNL     1      -1.911  13.313  20.692  0.00  0.00    +0.000 A 
ATOM     25  C   UNL     1      -1.490  13.364  22.027  0.00  0.00    +0.000 A 
ATOM     26  C   UNL     1      -1.003  12.222  22.665  0.00  0.00    +0.000 A 
ATOM     27  C   UNL     1      -0.705  11.065  21.940  0.00  0.00    +0.000 A 
ATOM     28  C   UNL     1      -0.993  11.101  20.574  0.00  0.00    +0.000 A 
ENDBRANCH  15  16
ENDBRANCH   5  15
TORSDOF 4
ENDMDL
MODEL 9
REMARK VINA RESULT:      -8.0      1.491      8.523
REMARK  Name = 
REMARK  5 active torsions:
REMARK  status: ('A' for Active; 'I' for Inactive)
REMARK    1  A    between atoms: C_1  and  C_2
REMARK    2  A    between atoms: C_7  and  C_8
REMARK    3  A    between atoms: C_8  and  N_9
REMARK    4  A    between atoms: C_13  and  C_14
REMARK    5  A    between atoms: C_14  and  N_15
REMARK                            x       y       z     vdW  Elec       q    Type
REMARK                         _______ _______ _______ _____ _____    ______ ____
ROOT
ATOM      1  N   UNL     1       2.766   6.766  19.111  0.00  0.00    +0.000 N 
ATOM      2  C   UNL     1       3.332   7.139  17.948  0.00  0.00    +0.000 A 
ATOM      3  C   UNL     1       2.997   8.342  17.345  0.00  0.00    +0.000 A 
ATOM      4  C   UNL     1       2.081   9.185  17.977  0.00  0.00    +0.000 A 
ATOM      5  C   UNL     1       1.503   8.819  19.184  0.00  0.00    +0.000 A 
ATOM      6  C   UNL     1       1.850   7.574  19.726  0.00  0.00    +0.000 A 
ENDROOT
BRANCH   1   7
ATOM      7  C   UNL     1       3.305   5.609  19.861  0.00  0.00    +0.000 C 
BRANCH   7  14
ATOM      8  C   UNL     1       1.042   3.590  20.769  0.00  0.00    +0.000 C 
ATOM      9  C   UNL     1       2.061   3.303  19.704  0.00  0.00    +0.000 A 
ATOM     10  C   UNL     1       2.057   1.995  19.163  0.00  0.00    +0.000 A 
ATOM     11  C   UNL     1       2.999   1.589  18.223  0.00  0.00    +0.000 A 
ATOM     12  C   UNL     1       3.969   2.484  17.802  0.00  0.00    +0.000 A 
ATOM     13  C   UNL     1       3.992   3.779  18.326  0.00  0.00    +0.000 A 
ATOM     14  C   UNL     1       3.043   4.226  19.279  0.00  0.00    +0.000 A 
ENDBRANCH   7  14
ENDBRANCH   1   7
BRANCH   5  15
ATOM     15  C   UNL     1       0.498   9.701  19.905  0.00  0.00    +0.000 C 
BRANCH  15  16
ATOM     16  N   UNL     1       0.124  10.831  19.049  0.00  0.00    +0.000 N 
ATOM     17  C   UNL     1       0.423  12.143  19.373  0.00  0.00    +0.000 A 
ATOM     18  C   UNL     1       1.610  12.744  19.812  0.00  0.00    +0.000 A 
ATOM     19  C   UNL     1       1.564  14.115  20.084  0.00  0.00    +0.000 A 
ATOM     20  C   UNL     1       0.376  14.834  19.961  0.00  0.00    +0.000 A 
ATOM     21  C   UNL     1      -0.818  14.196  19.603  0.00  0.00    +0.000 A 
ATOM     22  C   UNL     1      -0.796  12.823  19.300  0.00  0.00    +0.000 A 
ATOM     23  C   UNL     1      -1.778  11.878  18.865  0.00  0.00    +0.000 A 
ATOM     24  C   UNL     1      -3.178  11.830  18.785  0.00  0.00    +0.000 A 
ATOM     25  C   UNL     1      -3.765  10.843  17.981  0.00  0.00    +0.000 A 
ATOM     26  C   UNL     1      -2.976   9.988  17.211  0.00  0.00    +0.000 A 
ATOM     27  C   UNL     1      -1.591   9.931  17.390  0.00  0.00    +0.000 A 
ATOM     28  C   UNL     1      -1.051  10.825  18.317  0.00  0.00    +0.000 A 
ENDBRANCH  15  16
ENDBRANCH   5  15
TORSDOF 4
ENDMDL
