MODEL 1
REMARK VINA RESULT:      -8.9      0.000      0.000
REMARK  Name = 
REMARK  4 active torsions:
REMARK  status: ('A' for Active; 'I' for Inactive)
REMARK    1  A    between atoms: C_1  and  O_2
REMARK    2  A    between atoms: O_2  and  C_3
REMARK    3  A    between atoms: C_3  and  C_5
REMARK    4  A    between atoms: C_8  and  C_9
REMARK                            x       y       z     vdW  Elec       q    Type
REMARK                         _______ _______ _______ _____ _____    ______ ____
ROOT
ATOM      1  C   UNL     1       3.141   5.493  19.214  0.00  0.00    +0.000 C 
ATOM      2  C   UNL     1       4.178   5.425  18.101  0.00  0.00    +0.000 C 
ATOM      3  C   UNL     1       4.051   4.538  17.096  0.00  0.00    +0.000 C 
ATOM      4  N   UNL     1       3.022   3.621  17.051  0.00  0.00    +0.000 N 
ATOM      5  C   UNL     1       2.124   3.513  18.055  0.00  0.00    +0.000 A 
ATOM      6  N   UNL     1       1.167   2.651  18.302  0.00  0.00    +0.000 NA
ATOM      7  N   UNL     1       0.620   3.034  19.514  0.00  0.00    +0.000 NA
ATOM      8  N   UNL     1       1.242   4.099  20.011  0.00  0.00    +0.000 NA
ATOM      9  N   UNL     1       2.160   4.414  19.085  0.00  0.00    +0.000 N 
ATOM     10  C   UNL     1       5.099   4.566  16.068  0.00  0.00    +0.000 A 
ATOM     11  C   UNL     1       4.913   4.099  14.762  0.00  0.00    +0.000 A 
ATOM     12  C   UNL     1       5.985   4.086  13.866  0.00  0.00    +0.000 A 
ATOM     13  C   UNL     1       7.251   4.506  14.276  0.00  0.00    +0.000 A 
ATOM     14  C   UNL     1       7.437   5.009  15.563  0.00  0.00    +0.000 A 
ATOM     15  C   UNL     1       6.351   5.087  16.429  0.00  0.00    +0.000 A 
ATOM     16  O   UNL     1       6.555   5.687  17.650  0.00  0.00    +0.000 OA
ATOM     17  C   UNL     1       5.368   6.335  18.146  0.00  0.00    +0.000 C 
ATOM     18  H   UNL     1       3.115   2.850  16.396  0.00  0.00    +0.000 HD
ENDROOT
BRANCH   1  22
ATOM     19  C   UNL     1       1.144   9.349  19.329  0.00  0.00    +0.000 A 
ATOM     20  C   UNL     1       1.299   8.598  20.503  0.00  0.00    +0.000 A 
ATOM     21  C   UNL     1       1.936   7.360  20.470  0.00  0.00    +0.000 A 
ATOM     22  C   UNL     1       2.439   6.843  19.262  0.00  0.00    +0.000 A 
ATOM     23  C   UNL     1       2.282   7.599  18.088  0.00  0.00    +0.000 A 
ATOM     24  C   UNL     1       1.639   8.842  18.122  0.00  0.00    +0.000 A 
BRANCH  19  25
ATOM     25  C   UNL     1       0.458  10.664  19.428  0.00  0.00    +0.000 C 
ATOM     26  O   UNL     1       1.050  11.735  19.396  0.00  0.00    +0.000 OA
BRANCH  25  28
ATOM     27  C   UNL     1      -1.617  10.704  18.365  0.00  0.00    +0.000 C 
ATOM     28  O   UNL     1      -0.879  10.503  19.573  0.00  0.00    +0.000 OA
ENDBRANCH  25  28
ENDBRANCH  19  25
ENDBRANCH   1  22
TORSDOF 3
ENDMDL
MODEL 2
REMARK VINA RESULT:      -8.8      0.520      1.348
REMARK  Name = 
REMARK  4 active torsions:
REMARK  status: ('A' for Active; 'I' for Inactive)
REMARK    1  A    between atoms: C_1  and  O_2
REMARK    2  A    between atoms: O_2  and  C_3
REMARK    3  A    between atoms: C_3  and  C_5
REMARK    4  A    between atoms: C_8  and  C_9
REMARK                            x       y       z     vdW  Elec       q    Type
REMARK                         _______ _______ _______ _____ _____    ______ ____
ROOT
ATOM      1  C   UNL     1       3.134   5.577  19.176  0.00  0.00    +0.000 C 
ATOM      2  C   UNL     1       4.174   5.487  18.067  0.00  0.00    +0.000 C 
ATOM      3  C   UNL     1       4.050   4.579  17.081  0.00  0.00    +0.000 C 
ATOM      4  N   UNL     1       3.020   3.660  17.052  0.00  0.00    +0.000 N 
ATOM      5  C   UNL     1       2.120   3.574  18.056  0.00  0.00    +0.000 A 
ATOM      6  N   UNL     1       1.162   2.717  18.318  0.00  0.00    +0.000 NA
ATOM      7  N   UNL     1       0.612   3.126  19.520  0.00  0.00    +0.000 NA
ATOM      8  N   UNL     1       1.232   4.202  19.997  0.00  0.00    +0.000 NA
ATOM      9  N   UNL     1       2.153   4.496  19.067  0.00  0.00    +0.000 N 
ATOM     10  C   UNL     1       5.100   4.584  16.055  0.00  0.00    +0.000 A 
ATOM     11  C   UNL     1       4.918   4.089  14.759  0.00  0.00    +0.000 A 
ATOM     12  C   UNL     1       5.992   4.058  13.866  0.00  0.00    +0.000 A 
ATOM     13  C   UNL     1       7.258   4.486  14.271  0.00  0.00    +0.000 A 
ATOM     14  C   UNL     1       7.440   5.016  15.547  0.00  0.00    +0.000 A 
ATOM     15  C   UNL     1       6.351   5.113  16.409  0.00  0.00    +0.000 A 
ATOM     16  O   UNL     1       6.553   5.738  17.617  0.00  0.00    +0.000 OA
ATOM     17  C   UNL     1       5.364   6.397  18.096  0.00  0.00    +0.000 C 
ATOM     18  H   UNL     1       3.115   2.876  16.414  0.00  0.00    +0.000 HD
ENDROOT
BRANCH   1  22
ATOM     19  C   UNL     1       1.123   9.428  19.245  0.00  0.00    +0.000 A 
ATOM     20  C   UNL     1       1.618   8.910  18.040  0.00  0.00    +0.000 A 
ATOM     21  C   UNL     1       2.266   7.678  18.014  0.00  0.00    +0.000 A 
ATOM     22  C   UNL     1       2.432   6.929  19.193  0.00  0.00    +0.000 A 
ATOM     23  C   UNL     1       1.933   7.450  20.398  0.00  0.00    +0.000 A 
ATOM     24  C   UNL     1       1.284   8.690  20.424  0.00  0.00    +0.000 A 
BRANCH  19  25
ATOM     25  C   UNL     1       0.438  10.747  19.209  0.00  0.00    +0.000 C 
ATOM     26  O   UNL     1      -0.651  10.924  18.680  0.00  0.00    +0.000 OA
BRANCH  25  28
ATOM     27  C   UNL     1       1.817  12.604  18.907  0.00  0.00    +0.000 C 
ATOM     28  O   UNL     1       1.187  11.697  19.817  0.00  0.00    +0.000 OA
ENDBRANCH  25  28
ENDBRANCH  19  25
ENDBRANCH   1  22
TORSDOF 3
ENDMDL
MODEL 3
REMARK VINA RESULT:      -8.8      3.532      5.715
REMARK  Name = 
REMARK  4 active torsions:
REMARK  status: ('A' for Active; 'I' for Inactive)
REMARK    1  A    between atoms: C_1  and  O_2
REMARK    2  A    between atoms: O_2  and  C_3
REMARK    3  A    between atoms: C_3  and  C_5
REMARK    4  A    between atoms: C_8  and  C_9
REMARK                            x       y       z     vdW  Elec       q    Type
REMARK                         _______ _______ _______ _____ _____    ______ ____
ROOT
ATOM      1  C   UNL     1       0.874  10.241  19.739  0.00  0.00    +0.000 C 
ATOM      2  C   UNL     1       1.541   8.927  19.358  0.00  0.00    +0.000 C 
ATOM      3  C   UNL     1       1.649   7.926  20.252  0.00  0.00    +0.000 C 
ATOM      4  N   UNL     1       1.218   8.055  21.556  0.00  0.00    +0.000 N 
ATOM      5  C   UNL     1       0.730   9.223  22.028  0.00  0.00    +0.000 A 
ATOM      6  N   UNL     1       0.397   9.625  23.232  0.00  0.00    +0.000 NA
ATOM      7  N   UNL     1       0.011  10.946  23.094  0.00  0.00    +0.000 NA
ATOM      8  N   UNL     1       0.123  11.355  21.832  0.00  0.00    +0.000 NA
ATOM      9  N   UNL     1       0.544  10.270  21.165  0.00  0.00    +0.000 N 
ATOM     10  C   UNL     1       2.297   6.697  19.778  0.00  0.00    +0.000 A 
ATOM     11  C   UNL     1       2.085   5.439  20.353  0.00  0.00    +0.000 A 
ATOM     12  C   UNL     1       2.802   4.331  19.894  0.00  0.00    +0.000 A 
ATOM     13  C   UNL     1       3.756   4.478  18.885  0.00  0.00    +0.000 A 
ATOM     14  C   UNL     1       3.947   5.719  18.280  0.00  0.00    +0.000 A 
ATOM     15  C   UNL     1       3.178   6.804  18.691  0.00  0.00    +0.000 A 
ATOM     16  O   UNL     1       3.324   7.982  17.996  0.00  0.00    +0.000 OA
ATOM     17  C   UNL     1       2.111   8.761  17.983  0.00  0.00    +0.000 C 
ATOM     18  H   UNL     1       1.531   7.354  22.221  0.00  0.00    +0.000 HD
ENDROOT
BRANCH   1  22
ATOM     19  C   UNL     1      -2.668  11.048  17.357  0.00  0.00    +0.000 A 
ATOM     20  C   UNL     1      -2.460   9.775  17.905  0.00  0.00    +0.000 A 
ATOM     21  C   UNL     1      -1.324   9.511  18.667  0.00  0.00    +0.000 A 
ATOM     22  C   UNL     1      -0.369  10.516  18.904  0.00  0.00    +0.000 A 
ATOM     23  C   UNL     1      -0.582  11.791  18.354  0.00  0.00    +0.000 A 
ATOM     24  C   UNL     1      -1.723  12.055  17.586  0.00  0.00    +0.000 A 
BRANCH  19  25
ATOM     25  C   UNL     1      -3.901  11.269  16.556  0.00  0.00    +0.000 C 
ATOM     26  O   UNL     1      -5.025  11.275  17.039  0.00  0.00    +0.000 OA
BRANCH  25  28
ATOM     27  C   UNL     1      -3.432  10.217  14.528  0.00  0.00    +0.000 C 
ATOM     28  O   UNL     1      -3.602  11.442  15.246  0.00  0.00    +0.000 OA
ENDBRANCH  25  28
ENDBRANCH  19  25
ENDBRANCH   1  22
TORSDOF 3
ENDMDL
MODEL 4
REMARK VINA RESULT:      -8.6      3.478      5.654
REMARK  Name = 
REMARK  4 active torsions:
REMARK  status: ('A' for Active; 'I' for Inactive)
REMARK    1  A    between atoms: C_1  and  O_2
REMARK    2  A    between atoms: O_2  and  C_3
REMARK    3  A    between atoms: C_3  and  C_5
REMARK    4  A    between atoms: C_8  and  C_9
REMARK                            x       y       z     vdW  Elec       q    Type
REMARK                         _______ _______ _______ _____ _____    ______ ____
ROOT
ATOM      1  C   UNL     1       0.872  10.265  19.671  0.00  0.00    +0.000 C 
ATOM      2  C   UNL     1       1.555   8.973  19.246  0.00  0.00    +0.000 C 
ATOM      3  C   UNL     1       1.700   7.954  20.115  0.00  0.00    +0.000 C 
ATOM      4  N   UNL     1       1.295   8.046  21.430  0.00  0.00    +0.000 N 
ATOM      5  C   UNL     1       0.795   9.193  21.938  0.00  0.00    +0.000 A 
ATOM      6  N   UNL     1       0.480   9.561  23.157  0.00  0.00    +0.000 NA
ATOM      7  N   UNL     1       0.066  10.878  23.058  0.00  0.00    +0.000 NA
ATOM      8  N   UNL     1       0.144  11.316  21.804  0.00  0.00    +0.000 NA
ATOM      9  N   UNL     1       0.571  10.255  21.104  0.00  0.00    +0.000 N 
ATOM     10  C   UNL     1       2.362   6.749  19.599  0.00  0.00    +0.000 A 
ATOM     11  C   UNL     1       2.186   5.475  20.149  0.00  0.00    +0.000 A 
ATOM     12  C   UNL     1       2.913   4.391  19.650  0.00  0.00    +0.000 A 
ATOM     13  C   UNL     1       3.843   4.579  18.626  0.00  0.00    +0.000 A 
ATOM     14  C   UNL     1       3.998   5.837  18.046  0.00  0.00    +0.000 A 
ATOM     15  C   UNL     1       3.218   6.898  18.497  0.00  0.00    +0.000 A 
ATOM     16  O   UNL     1       3.326   8.093  17.827  0.00  0.00    +0.000 OA
ATOM     17  C   UNL     1       2.099   8.849  17.856  0.00  0.00    +0.000 C 
ATOM     18  H   UNL     1       1.635   7.336  22.072  0.00  0.00    +0.000 HD
ENDROOT
BRANCH   1  22
ATOM     19  C   UNL     1      -2.735  11.056  17.382  0.00  0.00    +0.000 A 
ATOM     20  C   UNL     1      -2.451   9.758  17.828  0.00  0.00    +0.000 A 
ATOM     21  C   UNL     1      -1.294   9.499  18.559  0.00  0.00    +0.000 A 
ATOM     22  C   UNL     1      -0.394  10.535  18.868  0.00  0.00    +0.000 A 
ATOM     23  C   UNL     1      -0.682  11.835  18.421  0.00  0.00    +0.000 A 
ATOM     24  C   UNL     1      -1.844  12.094  17.683  0.00  0.00    +0.000 A 
BRANCH  19  25
ATOM     25  C   UNL     1      -3.987  11.271  16.609  0.00  0.00    +0.000 C 
ATOM     26  O   UNL     1      -4.171  10.814  15.489  0.00  0.00    +0.000 OA
BRANCH  25  28
ATOM     27  C   UNL     1      -5.836  11.288  18.029  0.00  0.00    +0.000 C 
ATOM     28  O   UNL     1      -4.859  12.039  17.304  0.00  0.00    +0.000 OA
ENDBRANCH  25  28
ENDBRANCH  19  25
ENDBRANCH   1  22
TORSDOF 3
ENDMDL
MODEL 5
REMARK VINA RESULT:      -8.6      1.421      1.948
REMARK  Name = 
REMARK  4 active torsions:
REMARK  status: ('A' for Active; 'I' for Inactive)
REMARK    1  A    between atoms: C_1  and  O_2
REMARK    2  A    between atoms: O_2  and  C_3
REMARK    3  A    between atoms: C_3  and  C_5
REMARK    4  A    between atoms: C_8  and  C_9
REMARK                            x       y       z     vdW  Elec       q    Type
REMARK                         _______ _______ _______ _____ _____    ______ ____
ROOT
ATOM      1  C   UNL     1       4.686   5.165  18.402  0.00  0.00    +0.000 C 
ATOM      2  C   UNL     1       5.335   5.171  17.025  0.00  0.00    +0.000 C 
ATOM      3  C   UNL     1       5.160   4.140  16.177  0.00  0.00    +0.000 C 
ATOM      4  N   UNL     1       4.440   3.015  16.526  0.00  0.00    +0.000 N 
ATOM      5  C   UNL     1       3.933   2.857  17.767  0.00  0.00    +0.000 A 
ATOM      6  N   UNL     1       3.349   1.845  18.365  0.00  0.00    +0.000 NA
ATOM      7  N   UNL     1       3.096   2.268  19.658  0.00  0.00    +0.000 NA
ATOM      8  N   UNL     1       3.533   3.509  19.856  0.00  0.00    +0.000 NA
ATOM      9  N   UNL     1       4.028   3.884  18.667  0.00  0.00    +0.000 N 
ATOM     10  C   UNL     1       5.820   4.252  14.870  0.00  0.00    +0.000 A 
ATOM     11  C   UNL     1       5.394   3.567  13.727  0.00  0.00    +0.000 A 
ATOM     12  C   UNL     1       6.125   3.666  12.540  0.00  0.00    +0.000 A 
ATOM     13  C   UNL     1       7.299   4.419  12.497  0.00  0.00    +0.000 A 
ATOM     14  C   UNL     1       7.711   5.136  13.619  0.00  0.00    +0.000 A 
ATOM     15  C   UNL     1       6.940   5.092  14.778  0.00  0.00    +0.000 A 
ATOM     16  O   UNL     1       7.325   5.897  15.825  0.00  0.00    +0.000 OA
ATOM     17  C   UNL     1       6.205   6.324  16.625  0.00  0.00    +0.000 C 
ATOM     18  H   UNL     1       4.539   2.198  15.931  0.00  0.00    +0.000 HD
ENDROOT
BRANCH   1  22
ATOM     19  C   UNL     1       1.861   8.426  18.912  0.00  0.00    +0.000 A 
ATOM     20  C   UNL     1       2.613   8.320  17.734  0.00  0.00    +0.000 A 
ATOM     21  C   UNL     1       3.522   7.277  17.567  0.00  0.00    +0.000 A 
ATOM     22  C   UNL     1       3.698   6.311  18.574  0.00  0.00    +0.000 A 
ATOM     23  C   UNL     1       2.942   6.420  19.753  0.00  0.00    +0.000 A 
ATOM     24  C   UNL     1       2.031   7.470  19.921  0.00  0.00    +0.000 A 
BRANCH  19  25
ATOM     25  C   UNL     1       0.905   9.558  19.030  0.00  0.00    +0.000 C 
ATOM     26  O   UNL     1       0.782  10.230  20.045  0.00  0.00    +0.000 OA
BRANCH  25  28
ATOM     27  C   UNL     1      -1.060  10.369  18.070  0.00  0.00    +0.000 C 
ATOM     28  O   UNL     1       0.200   9.717  17.885  0.00  0.00    +0.000 OA
ENDBRANCH  25  28
ENDBRANCH  19  25
ENDBRANCH   1  22
TORSDOF 3
ENDMDL
MODEL 6
REMARK VINA RESULT:      -8.6      1.538      1.846
REMARK  Name = 
REMARK  4 active torsions:
REMARK  status: ('A' for Active; 'I' for Inactive)
REMARK    1  A    between atoms: C_1  and  O_2
REMARK    2  A    between atoms: O_2  and  C_3
REMARK    3  A    between atoms: C_3  and  C_5
REMARK    4  A    between atoms: C_8  and  C_9
REMARK                            x       y       z     vdW  Elec       q    Type
REMARK                         _______ _______ _______ _____ _____    ______ ____
ROOT
ATOM      1  C   UNL     1       4.678   5.160  18.407  0.00  0.00    +0.000 C 
ATOM      2  C   UNL     1       5.331   5.168  17.032  0.00  0.00    +0.000 C 
ATOM      3  C   UNL     1       5.159   4.137  16.183  0.00  0.00    +0.000 C 
ATOM      4  N   UNL     1       4.439   3.012  16.529  0.00  0.00    +0.000 N 
ATOM      5  C   UNL     1       3.928   2.852  17.769  0.00  0.00    +0.000 A 
ATOM      6  N   UNL     1       3.344   1.840  18.365  0.00  0.00    +0.000 NA
ATOM      7  N   UNL     1       3.087   2.262  19.658  0.00  0.00    +0.000 NA
ATOM      8  N   UNL     1       3.522   3.503  19.857  0.00  0.00    +0.000 NA
ATOM      9  N   UNL     1       4.020   3.879  18.670  0.00  0.00    +0.000 N 
ATOM     10  C   UNL     1       5.822   4.251  14.879  0.00  0.00    +0.000 A 
ATOM     11  C   UNL     1       5.400   3.566  13.734  0.00  0.00    +0.000 A 
ATOM     12  C   UNL     1       6.134   3.667  12.549  0.00  0.00    +0.000 A 
ATOM     13  C   UNL     1       7.308   4.421  12.509  0.00  0.00    +0.000 A 
ATOM     14  C   UNL     1       7.716   5.137  13.633  0.00  0.00    +0.000 A 
ATOM     15  C   UNL     1       6.942   5.093  14.790  0.00  0.00    +0.000 A 
ATOM     16  O   UNL     1       7.323   5.897  15.838  0.00  0.00    +0.000 OA
ATOM     17  C   UNL     1       6.201   6.322  16.636  0.00  0.00    +0.000 C 
ATOM     18  H   UNL     1       4.540   2.195  15.934  0.00  0.00    +0.000 HD
ENDROOT
BRANCH   1  22
ATOM     19  C   UNL     1       1.866   8.438  18.877  0.00  0.00    +0.000 A 
ATOM     20  C   UNL     1       2.025   7.492  19.898  0.00  0.00    +0.000 A 
ATOM     21  C   UNL     1       2.924   6.438  19.751  0.00  0.00    +0.000 A 
ATOM     22  C   UNL     1       3.689   6.306  18.578  0.00  0.00    +0.000 A 
ATOM     23  C   UNL     1       3.527   7.257  17.557  0.00  0.00    +0.000 A 
ATOM     24  C   UNL     1       2.622   8.315  17.705  0.00  0.00    +0.000 A 
BRANCH  19  25
ATOM     25  C   UNL     1       0.894   9.543  19.094  0.00  0.00    +0.000 C 
ATOM     26  O   UNL     1       0.234  10.044  18.193  0.00  0.00    +0.000 OA
BRANCH  25  28
ATOM     27  C   UNL     1       0.832  11.327  20.595  0.00  0.00    +0.000 C 
ATOM     28  O   UNL     1       0.863   9.911  20.396  0.00  0.00    +0.000 OA
ENDBRANCH  25  28
ENDBRANCH  19  25
ENDBRANCH   1  22
TORSDOF 3
ENDMDL
MODEL 7
REMARK VINA RESULT:      -8.2      3.633      5.965
REMARK  Name = 
REMARK  4 active torsions:
REMARK  status: ('A' for Active; 'I' for Inactive)
REMARK    1  A    between atoms: C_1  and  O_2
REMARK    2  A    between atoms: O_2  and  C_3
REMARK    3  A    between atoms: C_3  and  C_5
REMARK    4  A    between atoms: C_8  and  C_9
REMARK                            x       y       z     vdW  Elec       q    Type
REMARK                         _______ _______ _______ _____ _____    ______ ____
ROOT
ATOM      1  C   UNL     1       0.297  10.635  19.920  0.00  0.00    +0.000 C 
ATOM      2  C   UNL     1       1.086   9.506  19.273  0.00  0.00    +0.000 C 
ATOM      3  C   UNL     1       1.458   8.429  19.990  0.00  0.00    +0.000 C 
ATOM      4  N   UNL     1       1.196   8.318  21.340  0.00  0.00    +0.000 N 
ATOM      5  C   UNL     1       0.616   9.322  22.033  0.00  0.00    +0.000 A 
ATOM      6  N   UNL     1       0.397   9.506  23.314  0.00  0.00    +0.000 NA
ATOM      7  N   UNL     1      -0.190  10.755  23.418  0.00  0.00    +0.000 NA
ATOM      8  N   UNL     1      -0.311  11.335  22.227  0.00  0.00    +0.000 NA
ATOM      9  N   UNL     1       0.165  10.427  21.363  0.00  0.00    +0.000 N 
ATOM     10  C   UNL     1       2.205   7.392  19.267  0.00  0.00    +0.000 A 
ATOM     11  C   UNL     1       2.256   6.053  19.670  0.00  0.00    +0.000 A 
ATOM     12  C   UNL     1       3.055   5.143  18.972  0.00  0.00    +0.000 A 
ATOM     13  C   UNL     1       3.830   5.570  17.893  0.00  0.00    +0.000 A 
ATOM     14  C   UNL     1       3.756   6.893  17.460  0.00  0.00    +0.000 A 
ATOM     15  C   UNL     1       2.904   7.779  18.113  0.00  0.00    +0.000 A 
ATOM     16  O   UNL     1       2.782   9.044  17.589  0.00  0.00    +0.000 OA
ATOM     17  C   UNL     1       1.480   9.612  17.831  0.00  0.00    +0.000 C 
ATOM     18  H   UNL     1       1.695   7.597  21.853  0.00  0.00    +0.000 HD
ENDROOT
BRANCH   1  22
ATOM     19  C   UNL     1      -3.615  11.121  18.093  0.00  0.00    +0.000 A 
ATOM     20  C   UNL     1      -3.109  12.106  18.952  0.00  0.00    +0.000 A 
ATOM     21  C   UNL     1      -1.857  11.953  19.543  0.00  0.00    +0.000 A 
ATOM     22  C   UNL     1      -1.076  10.812  19.284  0.00  0.00    +0.000 A 
ATOM     23  C   UNL     1      -1.586   9.828  18.421  0.00  0.00    +0.000 A 
ATOM     24  C   UNL     1      -2.846   9.981  17.830  0.00  0.00    +0.000 A 
BRANCH  19  25
ATOM     25  C   UNL     1      -4.957  11.343  17.491  0.00  0.00    +0.000 C 
ATOM     26  O   UNL     1      -5.198  12.246  16.702  0.00  0.00    +0.000 OA
BRANCH  25  28
ATOM     27  C   UNL     1      -6.765  10.955  18.911  0.00  0.00    +0.000 C 
ATOM     28  O   UNL     1      -5.848  10.431  17.947  0.00  0.00    +0.000 OA
ENDBRANCH  25  28
ENDBRANCH  19  25
ENDBRANCH   1  22
TORSDOF 3
ENDMDL
MODEL 8
REMARK VINA RESULT:      -7.5      1.428      6.977
REMARK  Name = 
REMARK  4 active torsions:
REMARK  status: ('A' for Active; 'I' for Inactive)
REMARK    1  A    between atoms: C_1  and  O_2
REMARK    2  A    between atoms: O_2  and  C_3
REMARK    3  A    between atoms: C_3  and  C_5
REMARK    4  A    between atoms: C_8  and  C_9
REMARK                            x       y       z     vdW  Elec       q    Type
REMARK                         _______ _______ _______ _____ _____    ______ ____
ROOT
ATOM      1  C   UNL     1       2.060   5.479  18.200  0.00  0.00    +0.000 C 
ATOM      2  C   UNL     1       1.826   6.861  18.794  0.00  0.00    +0.000 C 
ATOM      3  C   UNL     1       1.491   7.005  20.090  0.00  0.00    +0.000 C 
ATOM      4  N   UNL     1       1.291   5.924  20.922  0.00  0.00    +0.000 N 
ATOM      5  C   UNL     1       1.347   4.655  20.461  0.00  0.00    +0.000 A 
ATOM      6  N   UNL     1       1.063   3.498  21.009  0.00  0.00    +0.000 NA
ATOM      7  N   UNL     1       1.270   2.553  20.019  0.00  0.00    +0.000 NA
ATOM      8  N   UNL     1       1.656   3.121  18.880  0.00  0.00    +0.000 NA
ATOM      9  N   UNL     1       1.731   4.429  19.166  0.00  0.00    +0.000 N 
ATOM     10  C   UNL     1       1.302   8.382  20.563  0.00  0.00    +0.000 A 
ATOM     11  C   UNL     1       1.427   8.763  21.904  0.00  0.00    +0.000 A 
ATOM     12  C   UNL     1       1.153  10.079  22.285  0.00  0.00    +0.000 A 
ATOM     13  C   UNL     1       0.720  11.010  21.340  0.00  0.00    +0.000 A 
ATOM     14  C   UNL     1       0.628  10.650  19.996  0.00  0.00    +0.000 A 
ATOM     15  C   UNL     1       0.973   9.358  19.610  0.00  0.00    +0.000 A 
ATOM     16  O   UNL     1       0.971   9.077  18.264  0.00  0.00    +0.000 OA
ATOM     17  C   UNL     1       1.940   8.069  17.915  0.00  0.00    +0.000 C 
ATOM     18  H   UNL     1       0.828   6.100  21.809  0.00  0.00    +0.000 HD
ENDROOT
BRANCH   1  22
ATOM     19  C   UNL     1       6.133   5.004  16.767  0.00  0.00    +0.000 A 
ATOM     20  C   UNL     1       5.185   3.996  16.546  0.00  0.00    +0.000 A 
ATOM     21  C   UNL     1       3.878   4.143  17.007  0.00  0.00    +0.000 A 
ATOM     22  C   UNL     1       3.487   5.305  17.696  0.00  0.00    +0.000 A 
ATOM     23  C   UNL     1       4.440   6.313  17.914  0.00  0.00    +0.000 A 
ATOM     24  C   UNL     1       5.753   6.164  17.453  0.00  0.00    +0.000 A 
BRANCH  19  25
ATOM     25  C   UNL     1       7.511   4.792  16.249  0.00  0.00    +0.000 C 
ATOM     26  O   UNL     1       8.341   4.093  16.815  0.00  0.00    +0.000 OA
BRANCH  25  28
ATOM     27  C   UNL     1       7.174   4.832  13.942  0.00  0.00    +0.000 C 
ATOM     28  O   UNL     1       7.707   5.480  15.100  0.00  0.00    +0.000 OA
ENDBRANCH  25  28
ENDBRANCH  19  25
ENDBRANCH   1  22
TORSDOF 3
ENDMDL
MODEL 9
REMARK VINA RESULT:      -7.5      3.606      6.563
REMARK  Name = 
REMARK  4 active torsions:
REMARK  status: ('A' for Active; 'I' for Inactive)
REMARK    1  A    between atoms: C_1  and  O_2
REMARK    2  A    between atoms: O_2  and  C_3
REMARK    3  A    between atoms: C_3  and  C_5
REMARK    4  A    between atoms: C_8  and  C_9
REMARK                            x       y       z     vdW  Elec       q    Type
REMARK                         _______ _______ _______ _____ _____    ______ ____
ROOT
ATOM      1  C   UNL     1       5.275   6.438  16.813  0.00  0.00    +0.000 C 
ATOM      2  C   UNL     1       4.412   5.866  17.930  0.00  0.00    +0.000 C 
ATOM      3  C   UNL     1       4.370   4.540  18.155  0.00  0.00    +0.000 C 
ATOM      4  N   UNL     1       5.050   3.637  17.364  0.00  0.00    +0.000 N 
ATOM      5  C   UNL     1       5.740   4.032  16.272  0.00  0.00    +0.000 A 
ATOM      6  N   UNL     1       6.335   3.368  15.309  0.00  0.00    +0.000 NA
ATOM      7  N   UNL     1       6.826   4.327  14.440  0.00  0.00    +0.000 NA
ATOM      8  N   UNL     1       6.521   5.555  14.851  0.00  0.00    +0.000 NA
ATOM      9  N   UNL     1       5.869   5.369  16.008  0.00  0.00    +0.000 N 
ATOM     10  C   UNL     1       3.516   4.095  19.264  0.00  0.00    +0.000 A 
ATOM     11  C   UNL     1       3.698   2.885  19.943  0.00  0.00    +0.000 A 
ATOM     12  C   UNL     1       2.794   2.498  20.936  0.00  0.00    +0.000 A 
ATOM     13  C   UNL     1       1.688   3.297  21.232  0.00  0.00    +0.000 A 
ATOM     14  C   UNL     1       1.519   4.521  20.587  0.00  0.00    +0.000 A 
ATOM     15  C   UNL     1       2.462   4.937  19.652  0.00  0.00    +0.000 A 
ATOM     16  O   UNL     1       2.314   6.196  19.119  0.00  0.00    +0.000 OA
ATOM     17  C   UNL     1       3.578   6.790  18.764  0.00  0.00    +0.000 C 
ATOM     18  H   UNL     1       4.795   2.658  17.452  0.00  0.00    +0.000 HD
ENDROOT
BRANCH   1  22
ATOM     19  C   UNL     1       8.378   9.065  18.342  0.00  0.00    +0.000 A 
ATOM     20  C   UNL     1       7.328   9.585  17.573  0.00  0.00    +0.000 A 
ATOM     21  C   UNL     1       6.333   8.745  17.078  0.00  0.00    +0.000 A 
ATOM     22  C   UNL     1       6.360   7.365  17.345  0.00  0.00    +0.000 A 
ATOM     23  C   UNL     1       7.413   6.848  18.117  0.00  0.00    +0.000 A 
ATOM     24  C   UNL     1       8.415   7.692  18.613  0.00  0.00    +0.000 A 
BRANCH  19  25
ATOM     25  C   UNL     1       9.409  10.011  18.845  0.00  0.00    +0.000 C 
ATOM     26  O   UNL     1       9.645  10.178  20.034  0.00  0.00    +0.000 OA
BRANCH  25  28
ATOM     27  C   UNL     1      10.360  12.010  18.113  0.00  0.00    +0.000 C 
ATOM     28  O   UNL     1      10.018  10.653  17.820  0.00  0.00    +0.000 OA
ENDBRANCH  25  28
ENDBRANCH  19  25
ENDBRANCH   1  22
TORSDOF 3
ENDMDL
