MODEL 1
REMARK VINA RESULT:      -6.4      0.000      0.000
REMARK  Name = 
REMARK  7 active torsions:
REMARK  status: ('A' for Active; 'I' for Inactive)
REMARK    1  A    between atoms: C_1  and  O_2
REMARK    2  A    between atoms: O_2  and  C_3
REMARK    3  A    between atoms: C_3  and  C_5
REMARK    4  A    between atoms: C_5  and  C_6
REMARK    5  A    between atoms: C_5  and  C_7
REMARK    6  A    between atoms: C_5  and  N_8
REMARK    7  A    between atoms: C_9  and  C_11
REMARK                            x       y       z     vdW  Elec       q    Type
REMARK                         _______ _______ _______ _____ _____    ______ ____
ROOT
ATOM      1  N   UNL     1       5.373   5.729  18.472  0.00  0.00    +0.000 N 
ATOM      2  C   UNL     1       4.942   4.577  19.093  0.00  0.00    +0.000 C 
ATOM      3  O   UNL     1       5.703   3.645  19.328  0.00  0.00    +0.000 OA
ATOM      4  H   UNL     1       4.683   6.454  18.280  0.00  0.00    +0.000 HD
ENDROOT
BRANCH   2   5
ATOM      5  C   UNL     1       3.539   4.565  19.447  0.00  0.00    +0.000 A 
ATOM      6  O   UNL     1       3.068   5.488  20.353  0.00  0.00    +0.000 OA
ATOM      7  C   UNL     1       1.746   5.234  20.535  0.00  0.00    +0.000 A 
ATOM      8  C   UNL     1       1.342   4.173  19.761  0.00  0.00    +0.000 A 
ATOM      9  C   UNL     1       2.493   3.751  19.066  0.00  0.00    +0.000 A 
ATOM     10 BR   UNL     1       2.501   2.287  17.895  0.00  0.00    +0.000 Br
ENDBRANCH   2   5
BRANCH   1  11
ATOM     11  C   UNL     1       6.757   5.984  18.026  0.00  0.00    +0.000 C 
ATOM     12  C   UNL     1       7.733   5.791  19.195  0.00  0.00    +0.000 C 
ATOM     13  C   UNL     1       6.888   7.392  17.420  0.00  0.00    +0.000 C 
BRANCH  11  14
ATOM     14  C   UNL     1       7.139   4.963  16.917  0.00  0.00    +0.000 C 
ATOM     15  O   UNL     1       8.084   4.187  16.972  0.00  0.00    +0.000 OA
BRANCH  14  17
ATOM     16  C   UNL     1       6.346   3.964  14.928  0.00  0.00    +0.000 C 
ATOM     17  O   UNL     1       6.271   5.047  15.858  0.00  0.00    +0.000 OA
ENDBRANCH  14  17
ENDBRANCH  11  14
ENDBRANCH   1  11
TORSDOF 4
ENDMDL
MODEL 2
REMARK VINA RESULT:      -6.4      1.816      2.192
REMARK  Name = 
REMARK  7 active torsions:
REMARK  status: ('A' for Active; 'I' for Inactive)
REMARK    1  A    between atoms: C_1  and  O_2
REMARK    2  A    between atoms: O_2  and  C_3
REMARK    3  A    between atoms: C_3  and  C_5
REMARK    4  A    between atoms: C_5  and  C_6
REMARK    5  A    between atoms: C_5  and  C_7
REMARK    6  A    between atoms: C_5  and  N_8
REMARK    7  A    between atoms: C_9  and  C_11
REMARK                            x       y       z     vdW  Elec       q    Type
REMARK                         _______ _______ _______ _____ _____    ______ ____
ROOT
ATOM      1  N   UNL     1       5.305   4.496  17.219  0.00  0.00    +0.000 N 
ATOM      2  C   UNL     1       4.912   4.173  18.500  0.00  0.00    +0.000 C 
ATOM      3  O   UNL     1       5.617   4.416  19.474  0.00  0.00    +0.000 OA
ATOM      4  H   UNL     1       4.685   4.241  16.451  0.00  0.00    +0.000 HD
ENDROOT
BRANCH   2   5
ATOM      5  C   UNL     1       3.614   3.540  18.596  0.00  0.00    +0.000 A 
ATOM      6  O   UNL     1       3.389   2.363  17.919  0.00  0.00    +0.000 OA
ATOM      7  C   UNL     1       2.096   2.012  18.143  0.00  0.00    +0.000 A 
ATOM      8  C   UNL     1       1.475   2.928  18.959  0.00  0.00    +0.000 A 
ATOM      9  C   UNL     1       2.452   3.901  19.247  0.00  0.00    +0.000 A 
ATOM     10 BR   UNL     1       2.107   5.417  20.295  0.00  0.00    +0.000 Br
ENDBRANCH   2   5
BRANCH   1  11
ATOM     11  C   UNL     1       6.577   5.155  16.864  0.00  0.00    +0.000 C 
ATOM     12  C   UNL     1       7.731   4.552  17.676  0.00  0.00    +0.000 C 
ATOM     13  C   UNL     1       6.484   6.676  17.076  0.00  0.00    +0.000 C 
BRANCH  11  14
ATOM     14  C   UNL     1       6.882   4.913  15.358  0.00  0.00    +0.000 C 
ATOM     15  O   UNL     1       7.723   5.516  14.705  0.00  0.00    +0.000 OA
BRANCH  14  17
ATOM     16  C   UNL     1       6.149   3.754  13.433  0.00  0.00    +0.000 C 
ATOM     17  O   UNL     1       6.075   3.926  14.850  0.00  0.00    +0.000 OA
ENDBRANCH  14  17
ENDBRANCH  11  14
ENDBRANCH   1  11
TORSDOF 4
ENDMDL
MODEL 3
REMARK VINA RESULT:      -6.2      1.152      1.194
REMARK  Name = 
REMARK  7 active torsions:
REMARK  status: ('A' for Active; 'I' for Inactive)
REMARK    1  A    between atoms: C_1  and  O_2
REMARK    2  A    between atoms: O_2  and  C_3
REMARK    3  A    between atoms: C_3  and  C_5
REMARK    4  A    between atoms: C_5  and  C_6
REMARK    5  A    between atoms: C_5  and  C_7
REMARK    6  A    between atoms: C_5  and  N_8
REMARK    7  A    between atoms: C_9  and  C_11
REMARK                            x       y       z     vdW  Elec       q    Type
REMARK                         _______ _______ _______ _____ _____    ______ ____
ROOT
ATOM      1  N   UNL     1       5.557   5.127  17.651  0.00  0.00    +0.000 N 
ATOM      2  C   UNL     1       5.260   4.983  18.989  0.00  0.00    +0.000 C 
ATOM      3  O   UNL     1       6.122   5.067  19.857  0.00  0.00    +0.000 OA
ATOM      4  H   UNL     1       4.800   5.017  16.979  0.00  0.00    +0.000 HD
ENDROOT
BRANCH   2   5
ATOM      5  C   UNL     1       3.863   4.737  19.278  0.00  0.00    +0.000 A 
ATOM      6  O   UNL     1       3.144   5.687  19.968  0.00  0.00    +0.000 OA
ATOM      7  C   UNL     1       1.889   5.194  20.138  0.00  0.00    +0.000 A 
ATOM      8  C   UNL     1       1.771   3.949  19.567  0.00  0.00    +0.000 A 
ATOM      9  C   UNL     1       3.037   3.664  19.016  0.00  0.00    +0.000 A 
ATOM     10 BR   UNL     1       3.435   2.049  18.152  0.00  0.00    +0.000 Br
ENDBRANCH   2   5
BRANCH   1  11
ATOM     11  C   UNL     1       6.903   5.394  17.107  0.00  0.00    +0.000 C 
ATOM     12  C   UNL     1       7.938   4.484  17.784  0.00  0.00    +0.000 C 
ATOM     13  C   UNL     1       7.277   6.877  17.271  0.00  0.00    +0.000 C 
BRANCH  11  14
ATOM     14  C   UNL     1       6.918   5.075  15.585  0.00  0.00    +0.000 C 
ATOM     15  O   UNL     1       7.685   5.571  14.770  0.00  0.00    +0.000 OA
BRANCH  14  17
ATOM     16  C   UNL     1       5.762   3.928  13.871  0.00  0.00    +0.000 C 
ATOM     17  O   UNL     1       5.948   4.156  15.270  0.00  0.00    +0.000 OA
ENDBRANCH  14  17
ENDBRANCH  11  14
ENDBRANCH   1  11
TORSDOF 4
ENDMDL
MODEL 4
REMARK VINA RESULT:      -6.2      1.793      2.041
REMARK  Name = 
REMARK  7 active torsions:
REMARK  status: ('A' for Active; 'I' for Inactive)
REMARK    1  A    between atoms: C_1  and  O_2
REMARK    2  A    between atoms: O_2  and  C_3
REMARK    3  A    between atoms: C_3  and  C_5
REMARK    4  A    between atoms: C_5  and  C_6
REMARK    5  A    between atoms: C_5  and  C_7
REMARK    6  A    between atoms: C_5  and  N_8
REMARK    7  A    between atoms: C_9  and  C_11
REMARK                            x       y       z     vdW  Elec       q    Type
REMARK                         _______ _______ _______ _____ _____    ______ ____
ROOT
ATOM      1  N   UNL     1       5.549   5.820  18.262  0.00  0.00    +0.000 N 
ATOM      2  C   UNL     1       4.633   4.794  18.353  0.00  0.00    +0.000 C 
ATOM      3  O   UNL     1       4.746   3.765  17.695  0.00  0.00    +0.000 OA
ATOM      4  H   UNL     1       5.382   6.659  18.814  0.00  0.00    +0.000 HD
ENDROOT
BRANCH   2   5
ATOM      5  C   UNL     1       3.550   5.027  19.284  0.00  0.00    +0.000 A 
ATOM      6  O   UNL     1       3.286   4.088  20.254  0.00  0.00    +0.000 OA
ATOM      7  C   UNL     1       2.209   4.528  20.957  0.00  0.00    +0.000 A 
ATOM      8  C   UNL     1       1.772   5.738  20.473  0.00  0.00    +0.000 A 
ATOM      9  C   UNL     1       2.635   6.053  19.404  0.00  0.00    +0.000 A 
ATOM     10 BR   UNL     1       2.444   7.596  18.356  0.00  0.00    +0.000 Br
ENDBRANCH   2   5
BRANCH   1  11
ATOM     11  C   UNL     1       6.743   5.814  17.394  0.00  0.00    +0.000 C 
ATOM     12  C   UNL     1       7.644   4.622  17.740  0.00  0.00    +0.000 C 
ATOM     13  C   UNL     1       7.510   7.143  17.508  0.00  0.00    +0.000 C 
BRANCH  11  14
ATOM     14  C   UNL     1       6.302   5.658  15.910  0.00  0.00    +0.000 C 
ATOM     15  O   UNL     1       5.494   6.376  15.337  0.00  0.00    +0.000 OA
BRANCH  14  17
ATOM     16  C   UNL     1       6.220   3.963  14.264  0.00  0.00    +0.000 C 
ATOM     17  O   UNL     1       6.944   4.597  15.321  0.00  0.00    +0.000 OA
ENDBRANCH  14  17
ENDBRANCH  11  14
ENDBRANCH   1  11
TORSDOF 4
ENDMDL
MODEL 5
REMARK VINA RESULT:      -6.2      1.949      2.912
REMARK  Name = 
REMARK  7 active torsions:
REMARK  status: ('A' for Active; 'I' for Inactive)
REMARK    1  A    between atoms: C_1  and  O_2
REMARK    2  A    between atoms: O_2  and  C_3
REMARK    3  A    between atoms: C_3  and  C_5
REMARK    4  A    between atoms: C_5  and  C_6
REMARK    5  A    between atoms: C_5  and  C_7
REMARK    6  A    between atoms: C_5  and  N_8
REMARK    7  A    between atoms: C_9  and  C_11
REMARK                            x       y       z     vdW  Elec       q    Type
REMARK                         _______ _______ _______ _____ _____    ______ ____
ROOT
ATOM      1  N   UNL     1       4.917   4.303  16.693  0.00  0.00    +0.000 N 
ATOM      2  C   UNL     1       4.428   4.661  17.931  0.00  0.00    +0.000 C 
ATOM      3  O   UNL     1       4.740   5.717  18.470  0.00  0.00    +0.000 OA
ATOM      4  H   UNL     1       4.640   3.400  16.313  0.00  0.00    +0.000 HD
ENDROOT
BRANCH   2   5
ATOM      5  C   UNL     1       3.522   3.703  18.526  0.00  0.00    +0.000 A 
ATOM      6  O   UNL     1       3.551   2.395  18.095  0.00  0.00    +0.000 OA
ATOM      7  C   UNL     1       2.584   1.727  18.778  0.00  0.00    +0.000 A 
ATOM      8  C   UNL     1       1.933   2.565  19.650  0.00  0.00    +0.000 A 
ATOM      9  C   UNL     1       2.539   3.827  19.486  0.00  0.00    +0.000 A 
ATOM     10 BR   UNL     1       1.984   5.356  20.418  0.00  0.00    +0.000 Br
ENDBRANCH   2   5
BRANCH   1  11
ATOM     11  C   UNL     1       5.844   5.117  15.882  0.00  0.00    +0.000 C 
ATOM     12  C   UNL     1       5.223   6.488  15.583  0.00  0.00    +0.000 C 
ATOM     13  C   UNL     1       6.225   4.384  14.584  0.00  0.00    +0.000 C 
BRANCH  11  14
ATOM     14  C   UNL     1       7.156   5.357  16.683  0.00  0.00    +0.000 C 
ATOM     15  O   UNL     1       7.803   4.487  17.250  0.00  0.00    +0.000 OA
BRANCH  14  17
ATOM     16  C   UNL     1       7.815   7.240  17.950  0.00  0.00    +0.000 C 
ATOM     17  O   UNL     1       7.497   6.686  16.671  0.00  0.00    +0.000 OA
ENDBRANCH  14  17
ENDBRANCH  11  14
ENDBRANCH   1  11
TORSDOF 4
ENDMDL
MODEL 6
REMARK VINA RESULT:      -6.2      1.798      2.079
REMARK  Name = 
REMARK  7 active torsions:
REMARK  status: ('A' for Active; 'I' for Inactive)
REMARK    1  A    between atoms: C_1  and  O_2
REMARK    2  A    between atoms: O_2  and  C_3
REMARK    3  A    between atoms: C_3  and  C_5
REMARK    4  A    between atoms: C_5  and  C_6
REMARK    5  A    between atoms: C_5  and  C_7
REMARK    6  A    between atoms: C_5  and  N_8
REMARK    7  A    between atoms: C_9  and  C_11
REMARK                            x       y       z     vdW  Elec       q    Type
REMARK                         _______ _______ _______ _____ _____    ______ ____
ROOT
ATOM      1  N   UNL     1       4.481   4.791  17.537  0.00  0.00    +0.000 N 
ATOM      2  C   UNL     1       4.497   3.955  18.633  0.00  0.00    +0.000 C 
ATOM      3  O   UNL     1       5.525   3.734  19.264  0.00  0.00    +0.000 OA
ATOM      4  H   UNL     1       3.600   4.910  17.040  0.00  0.00    +0.000 HD
ENDROOT
BRANCH   2   5
ATOM      5  C   UNL     1       3.215   3.378  18.975  0.00  0.00    +0.000 A 
ATOM      6  O   UNL     1       2.904   2.117  18.519  0.00  0.00    +0.000 OA
ATOM      7  C   UNL     1       1.643   1.837  18.942  0.00  0.00    +0.000 A 
ATOM      8  C   UNL     1       1.129   2.882  19.672  0.00  0.00    +0.000 A 
ATOM      9  C   UNL     1       2.140   3.864  19.691  0.00  0.00    +0.000 A 
ATOM     10 BR   UNL     1       1.931   5.530  20.523  0.00  0.00    +0.000 Br
ENDBRANCH   2   5
BRANCH   1  11
ATOM     11  C   UNL     1       5.656   5.506  17.001  0.00  0.00    +0.000 C 
ATOM     12  C   UNL     1       6.440   6.167  18.142  0.00  0.00    +0.000 C 
ATOM     13  C   UNL     1       5.234   6.540  15.943  0.00  0.00    +0.000 C 
BRANCH  11  14
ATOM     14  C   UNL     1       6.605   4.489  16.303  0.00  0.00    +0.000 C 
ATOM     15  O   UNL     1       7.809   4.401  16.502  0.00  0.00    +0.000 OA
BRANCH  14  17
ATOM     16  C   UNL     1       6.283   3.839  14.054  0.00  0.00    +0.000 C 
ATOM     17  O   UNL     1       5.909   3.696  15.426  0.00  0.00    +0.000 OA
ENDBRANCH  14  17
ENDBRANCH  11  14
ENDBRANCH   1  11
TORSDOF 4
ENDMDL
MODEL 7
REMARK VINA RESULT:      -6.1      1.929      2.914
REMARK  Name = 
REMARK  7 active torsions:
REMARK  status: ('A' for Active; 'I' for Inactive)
REMARK    1  A    between atoms: C_1  and  O_2
REMARK    2  A    between atoms: O_2  and  C_3
REMARK    3  A    between atoms: C_3  and  C_5
REMARK    4  A    between atoms: C_5  and  C_6
REMARK    5  A    between atoms: C_5  and  C_7
REMARK    6  A    between atoms: C_5  and  N_8
REMARK    7  A    between atoms: C_9  and  C_11
REMARK                            x       y       z     vdW  Elec       q    Type
REMARK                         _______ _______ _______ _____ _____    ______ ____
ROOT
ATOM      1  N   UNL     1       5.258   4.272  17.122  0.00  0.00    +0.000 N 
ATOM      2  C   UNL     1       4.964   4.122  18.461  0.00  0.00    +0.000 C 
ATOM      3  O   UNL     1       5.762   4.435  19.338  0.00  0.00    +0.000 OA
ATOM      4  H   UNL     1       4.562   3.966  16.444  0.00  0.00    +0.000 HD
ENDROOT
BRANCH   2   5
ATOM      5  C   UNL     1       3.651   3.581  18.737  0.00  0.00    +0.000 A 
ATOM      6  O   UNL     1       3.365   2.288  18.361  0.00  0.00    +0.000 OA
ATOM      7  C   UNL     1       2.070   2.049  18.696  0.00  0.00    +0.000 A 
ATOM      8  C   UNL     1       1.508   3.154  19.291  0.00  0.00    +0.000 A 
ATOM      9  C   UNL     1       2.525   4.129  19.316  0.00  0.00    +0.000 A 
ATOM     10 BR   UNL     1       2.265   5.860  19.988  0.00  0.00    +0.000 Br
ENDBRANCH   2   5
BRANCH   1  11
ATOM     11  C   UNL     1       6.524   4.812  16.589  0.00  0.00    +0.000 C 
ATOM     12  C   UNL     1       6.746   4.319  15.153  0.00  0.00    +0.000 C 
ATOM     13  C   UNL     1       7.707   4.433  17.496  0.00  0.00    +0.000 C 
BRANCH  11  14
ATOM     14  C   UNL     1       6.447   6.365  16.548  0.00  0.00    +0.000 C 
ATOM     15  O   UNL     1       5.426   7.014  16.363  0.00  0.00    +0.000 OA
BRANCH  14  17
ATOM     16  C   UNL     1       7.702   8.085  17.574  0.00  0.00    +0.000 C 
ATOM     17  O   UNL     1       7.686   6.919  16.747  0.00  0.00    +0.000 OA
ENDBRANCH  14  17
ENDBRANCH  11  14
ENDBRANCH   1  11
TORSDOF 4
ENDMDL
MODEL 8
REMARK VINA RESULT:      -6.1      2.103      2.928
REMARK  Name = 
REMARK  7 active torsions:
REMARK  status: ('A' for Active; 'I' for Inactive)
REMARK    1  A    between atoms: C_1  and  O_2
REMARK    2  A    between atoms: O_2  and  C_3
REMARK    3  A    between atoms: C_3  and  C_5
REMARK    4  A    between atoms: C_5  and  C_6
REMARK    5  A    between atoms: C_5  and  C_7
REMARK    6  A    between atoms: C_5  and  N_8
REMARK    7  A    between atoms: C_9  and  C_11
REMARK                            x       y       z     vdW  Elec       q    Type
REMARK                         _______ _______ _______ _____ _____    ______ ____
ROOT
ATOM      1  N   UNL     1       4.707   4.379  18.041  0.00  0.00    +0.000 N 
ATOM      2  C   UNL     1       3.426   3.885  17.910  0.00  0.00    +0.000 C 
ATOM      3  O   UNL     1       2.934   3.645  16.813  0.00  0.00    +0.000 OA
ATOM      4  H   UNL     1       5.045   4.583  18.980  0.00  0.00    +0.000 HD
ENDROOT
BRANCH   2   5
ATOM      5  C   UNL     1       2.728   3.669  19.159  0.00  0.00    +0.000 A 
ATOM      6  O   UNL     1       2.482   2.380  19.575  0.00  0.00    +0.000 OA
ATOM      7  C   UNL     1       1.786   2.460  20.739  0.00  0.00    +0.000 A 
ATOM      8  C   UNL     1       1.581   3.771  21.097  0.00  0.00    +0.000 A 
ATOM      9  C   UNL     1       2.188   4.539  20.083  0.00  0.00    +0.000 A 
ATOM     10 BR   UNL     1       2.155   6.414  20.062  0.00  0.00    +0.000 Br
ENDBRANCH   2   5
BRANCH   1  11
ATOM     11  C   UNL     1       5.621   4.670  16.920  0.00  0.00    +0.000 C 
ATOM     12  C   UNL     1       5.386   6.096  16.402  0.00  0.00    +0.000 C 
ATOM     13  C   UNL     1       5.454   3.636  15.793  0.00  0.00    +0.000 C 
BRANCH  11  14
ATOM     14  C   UNL     1       7.092   4.584  17.416  0.00  0.00    +0.000 C 
ATOM     15  O   UNL     1       8.071   4.442  16.695  0.00  0.00    +0.000 OA
BRANCH  14  17
ATOM     16  C   UNL     1       7.833   5.847  19.272  0.00  0.00    +0.000 C 
ATOM     17  O   UNL     1       7.152   4.689  18.784  0.00  0.00    +0.000 OA
ENDBRANCH  14  17
ENDBRANCH  11  14
ENDBRANCH   1  11
TORSDOF 4
ENDMDL
MODEL 9
REMARK VINA RESULT:      -6.0      2.116      5.429
REMARK  Name = 
REMARK  7 active torsions:
REMARK  status: ('A' for Active; 'I' for Inactive)
REMARK    1  A    between atoms: C_1  and  O_2
REMARK    2  A    between atoms: O_2  and  C_3
REMARK    3  A    between atoms: C_3  and  C_5
REMARK    4  A    between atoms: C_5  and  C_6
REMARK    5  A    between atoms: C_5  and  C_7
REMARK    6  A    between atoms: C_5  and  N_8
REMARK    7  A    between atoms: C_9  and  C_11
REMARK                            x       y       z     vdW  Elec       q    Type
REMARK                         _______ _______ _______ _____ _____    ______ ____
ROOT
ATOM      1  N   UNL     1       3.816   4.467  18.159  0.00  0.00    +0.000 N 
ATOM      2  C   UNL     1       5.052   4.216  18.714  0.00  0.00    +0.000 C 
ATOM      3  O   UNL     1       5.239   3.277  19.480  0.00  0.00    +0.000 OA
ATOM      4  H   UNL     1       3.722   5.280  17.553  0.00  0.00    +0.000 HD
ENDROOT
BRANCH   2   5
ATOM      5  C   UNL     1       6.096   5.135  18.314  0.00  0.00    +0.000 A 
ATOM      6  O   UNL     1       6.933   5.658  19.274  0.00  0.00    +0.000 OA
ATOM      7  C   UNL     1       7.782   6.512  18.643  0.00  0.00    +0.000 A 
ATOM      8  C   UNL     1       7.524   6.549  17.293  0.00  0.00    +0.000 A 
ATOM      9  C   UNL     1       6.446   5.665  17.089  0.00  0.00    +0.000 A 
ATOM     10 BR   UNL     1       5.662   5.379  15.410  0.00  0.00    +0.000 Br
ENDBRANCH   2   5
BRANCH   1  11
ATOM     11  C   UNL     1       2.600   3.667  18.403  0.00  0.00    +0.000 C 
ATOM     12  C   UNL     1       2.863   2.191  18.076  0.00  0.00    +0.000 C 
ATOM     13  C   UNL     1       1.412   4.212  17.591  0.00  0.00    +0.000 C 
BRANCH  11  14
ATOM     14  C   UNL     1       2.216   3.756  19.907  0.00  0.00    +0.000 C 
ATOM     15  O   UNL     1       2.109   4.795  20.545  0.00  0.00    +0.000 OA
BRANCH  14  17
ATOM     16  C   UNL     1       1.568   2.485  21.792  0.00  0.00    +0.000 C 
ATOM     17  O   UNL     1       2.011   2.505  20.433  0.00  0.00    +0.000 OA
ENDBRANCH  14  17
ENDBRANCH  11  14
ENDBRANCH   1  11
TORSDOF 4
ENDMDL
