MODEL 1
REMARK VINA RESULT:      -9.1      0.000      0.000
REMARK  Name = 
REMARK  2 active torsions:
REMARK  status: ('A' for Active; 'I' for Inactive)
REMARK    1  A    between atoms: O_1  and  C_2
REMARK    2  A    between atoms: C_2  and  C_3
REMARK                            x       y       z     vdW  Elec       q    Type
REMARK                         _______ _______ _______ _____ _____    ______ ____
ROOT
ATOM      1  C   UNL     1       3.681   5.875  18.857  0.00  0.00    +0.000 C 
ATOM      2  C   UNL     1       2.811   7.167  18.819  0.00  0.00    +0.000 A 
ATOM      3  C   UNL     1       2.919   8.129  17.793  0.00  0.00    +0.000 A 
ATOM      4  C   UNL     1       2.134   9.283  17.766  0.00  0.00    +0.000 A 
ATOM      5  C   UNL     1       1.227   9.526  18.784  0.00  0.00    +0.000 A 
ATOM      6  C   UNL     1       1.088   8.602  19.813  0.00  0.00    +0.000 A 
ATOM      7  C   UNL     1       1.848   7.413  19.833  0.00  0.00    +0.000 A 
ATOM      8  C   UNL     1       1.601   6.514  20.975  0.00  0.00    +0.000 C 
ATOM      9  C   UNL     1       1.611   5.174  20.959  0.00  0.00    +0.000 C 
ATOM     10  C   UNL     1       1.841   4.321  19.779  0.00  0.00    +0.000 A 
ATOM     11  C   UNL     1       1.072   3.144  19.708  0.00  0.00    +0.000 A 
ATOM     12  C   UNL     1       1.130   2.312  18.598  0.00  0.00    +0.000 A 
ATOM     13  C   UNL     1       1.957   2.654  17.535  0.00  0.00    +0.000 A 
ATOM     14  C   UNL     1       2.765   3.787  17.614  0.00  0.00    +0.000 A 
ATOM     15  C   UNL     1       2.765   4.630  18.747  0.00  0.00    +0.000 A 
ENDROOT
BRANCH   1  16
ATOM     16  C   UNL     1       4.899   5.863  17.916  0.00  0.00    +0.000 C 
ATOM     17  C   UNL     1       5.057   6.521  16.745  0.00  0.00    +0.000 C 
ATOM     18  N   UNL     1       6.315   6.442  16.125  0.00  0.00    +0.000 N 
ATOM     19  C   UNL     1       7.390   6.926  17.056  0.00  0.00    +0.000 C 
ATOM     20  C   UNL     1       7.370   6.029  18.316  0.00  0.00    +0.000 C 
ATOM     21  C   UNL     1       6.179   5.042  18.217  0.00  0.00    +0.000 C 
ATOM     22  C   UNL     1       6.459   4.142  16.981  0.00  0.00    +0.000 C 
ATOM     23  C   UNL     1       6.652   5.038  15.737  0.00  0.00    +0.000 C 
ENDBRANCH   1  16
BRANCH   1  24
ATOM     24  O   UNL     1       4.305   5.811  20.159  0.00  0.00    +0.000 OA
ATOM     25  H   UNL     1       5.168   5.390  20.034  0.00  0.00    +0.000 HD
ENDBRANCH   1  24
TORSDOF 2
ENDMDL
MODEL 2
REMARK VINA RESULT:      -9.0      0.704      1.480
REMARK  Name = 
REMARK  2 active torsions:
REMARK  status: ('A' for Active; 'I' for Inactive)
REMARK    1  A    between atoms: O_1  and  C_2
REMARK    2  A    between atoms: C_2  and  C_3
REMARK                            x       y       z     vdW  Elec       q    Type
REMARK                         _______ _______ _______ _____ _____    ______ ____
ROOT
ATOM      1  C   UNL     1       3.657   5.585  18.934  0.00  0.00    +0.000 C 
ATOM      2  C   UNL     1       2.882   6.933  18.833  0.00  0.00    +0.000 A 
ATOM      3  C   UNL     1       3.067   7.840  17.768  0.00  0.00    +0.000 A 
ATOM      4  C   UNL     1       2.366   9.044  17.685  0.00  0.00    +0.000 A 
ATOM      5  C   UNL     1       1.472   9.395  18.681  0.00  0.00    +0.000 A 
ATOM      6  C   UNL     1       1.260   8.528  19.747  0.00  0.00    +0.000 A 
ATOM      7  C   UNL     1       1.932   7.289  19.825  0.00  0.00    +0.000 A 
ATOM      8  C   UNL     1       1.612   6.461  21.001  0.00  0.00    +0.000 C 
ATOM      9  C   UNL     1       1.526   5.124  21.041  0.00  0.00    +0.000 C 
ATOM     10  C   UNL     1       1.704   4.206  19.902  0.00  0.00    +0.000 A 
ATOM     11  C   UNL     1       0.853   3.085  19.872  0.00  0.00    +0.000 A 
ATOM     12  C   UNL     1       0.860   2.205  18.798  0.00  0.00    +0.000 A 
ATOM     13  C   UNL     1       1.717   2.441  17.730  0.00  0.00    +0.000 A 
ATOM     14  C   UNL     1       2.604   3.517  17.770  0.00  0.00    +0.000 A 
ATOM     15  C   UNL     1       2.656   4.405  18.867  0.00  0.00    +0.000 A 
ENDROOT
BRANCH   1  16
ATOM     16  C   UNL     1       4.879   5.446  18.007  0.00  0.00    +0.000 C 
ATOM     17  C   UNL     1       5.993   4.706  18.200  0.00  0.00    +0.000 C 
ATOM     18  N   UNL     1       6.922   4.651  17.147  0.00  0.00    +0.000 N 
ATOM     19  C   UNL     1       6.265   4.148  15.893  0.00  0.00    +0.000 C 
ATOM     20  C   UNL     1       5.120   5.123  15.531  0.00  0.00    +0.000 C 
ATOM     21  C   UNL     1       4.986   6.188  16.650  0.00  0.00    +0.000 C 
ATOM     22  C   UNL     1       6.321   6.984  16.657  0.00  0.00    +0.000 C 
ATOM     23  C   UNL     1       7.496   5.999  16.848  0.00  0.00    +0.000 C 
ENDBRANCH   1  16
BRANCH   1  24
ATOM     24  O   UNL     1       4.265   5.532  20.244  0.00  0.00    +0.000 OA
ATOM     25  H   UNL     1       3.742   4.909  20.770  0.00  0.00    +0.000 HD
ENDBRANCH   1  24
TORSDOF 2
ENDMDL
MODEL 3
REMARK VINA RESULT:      -7.9      2.032      4.966
REMARK  Name = 
REMARK  2 active torsions:
REMARK  status: ('A' for Active; 'I' for Inactive)
REMARK    1  A    between atoms: O_1  and  C_2
REMARK    2  A    between atoms: C_2  and  C_3
REMARK                            x       y       z     vdW  Elec       q    Type
REMARK                         _______ _______ _______ _____ _____    ______ ____
ROOT
ATOM      1  C   UNL     1       3.488   5.500  18.563  0.00  0.00    +0.000 C 
ATOM      2  C   UNL     1       2.771   6.872  18.740  0.00  0.00    +0.000 A 
ATOM      3  C   UNL     1       2.001   7.187  19.879  0.00  0.00    +0.000 A 
ATOM      4  C   UNL     1       1.363   8.420  20.031  0.00  0.00    +0.000 A 
ATOM      5  C   UNL     1       1.456   9.374  19.032  0.00  0.00    +0.000 A 
ATOM      6  C   UNL     1       2.206   9.104  17.894  0.00  0.00    +0.000 A 
ATOM      7  C   UNL     1       2.888   7.877  17.744  0.00  0.00    +0.000 A 
ATOM      8  C   UNL     1       3.654   7.718  16.495  0.00  0.00    +0.000 C 
ATOM      9  C   UNL     1       4.823   7.081  16.346  0.00  0.00    +0.000 C 
ATOM     10  C   UNL     1       5.602   6.431  17.416  0.00  0.00    +0.000 A 
ATOM     11  C   UNL     1       7.001   6.557  17.324  0.00  0.00    +0.000 A 
ATOM     12  C   UNL     1       7.834   6.072  18.325  0.00  0.00    +0.000 A 
ATOM     13  C   UNL     1       7.273   5.461  19.440  0.00  0.00    +0.000 A 
ATOM     14  C   UNL     1       5.892   5.282  19.518  0.00  0.00    +0.000 A 
ATOM     15  C   UNL     1       5.020   5.721  18.498  0.00  0.00    +0.000 A 
ENDROOT
BRANCH   1  16
ATOM     16  C   UNL     1       3.038   4.383  19.521  0.00  0.00    +0.000 C 
ATOM     17  C   UNL     1       2.630   4.498  20.804  0.00  0.00    +0.000 C 
ATOM     18  N   UNL     1       2.154   3.337  21.437  0.00  0.00    +0.000 N 
ATOM     19  C   UNL     1       1.013   2.745  20.658  0.00  0.00    +0.000 C 
ATOM     20  C   UNL     1       1.532   2.396  19.244  0.00  0.00    +0.000 C 
ATOM     21  C   UNL     1       2.994   2.891  19.102  0.00  0.00    +0.000 C 
ATOM     22  C   UNL     1       3.829   2.089  20.139  0.00  0.00    +0.000 C 
ATOM     23  C   UNL     1       3.218   2.292  21.544  0.00  0.00    +0.000 C 
ENDBRANCH   1  16
BRANCH   1  24
ATOM     24  O   UNL     1       3.096   4.971  17.276  0.00  0.00    +0.000 OA
ATOM     25  H   UNL     1       3.786   4.345  17.010  0.00  0.00    +0.000 HD
ENDBRANCH   1  24
TORSDOF 2
ENDMDL
MODEL 4
REMARK VINA RESULT:      -7.7      1.978      4.915
REMARK  Name = 
REMARK  2 active torsions:
REMARK  status: ('A' for Active; 'I' for Inactive)
REMARK    1  A    between atoms: O_1  and  C_2
REMARK    2  A    between atoms: C_2  and  C_3
REMARK                            x       y       z     vdW  Elec       q    Type
REMARK                         _______ _______ _______ _____ _____    ______ ____
ROOT
ATOM      1  C   UNL     1       2.986   5.569  18.730  0.00  0.00    +0.000 C 
ATOM      2  C   UNL     1       2.299   6.807  19.381  0.00  0.00    +0.000 A 
ATOM      3  C   UNL     1       1.729   6.771  20.671  0.00  0.00    +0.000 A 
ATOM      4  C   UNL     1       1.118   7.886  21.248  0.00  0.00    +0.000 A 
ATOM      5  C   UNL     1       1.036   9.073  20.540  0.00  0.00    +0.000 A 
ATOM      6  C   UNL     1       1.587   9.151  19.266  0.00  0.00    +0.000 A 
ATOM      7  C   UNL     1       2.242   8.043  18.686  0.00  0.00    +0.000 A 
ATOM      8  C   UNL     1       2.789   8.259  17.334  0.00  0.00    +0.000 C 
ATOM      9  C   UNL     1       3.921   7.744  16.835  0.00  0.00    +0.000 C 
ATOM     10  C   UNL     1       4.872   6.876  17.553  0.00  0.00    +0.000 A 
ATOM     11  C   UNL     1       6.235   7.092  17.276  0.00  0.00    +0.000 A 
ATOM     12  C   UNL     1       7.226   6.404  17.964  0.00  0.00    +0.000 A 
ATOM     13  C   UNL     1       6.864   5.493  18.948  0.00  0.00    +0.000 A 
ATOM     14  C   UNL     1       5.517   5.229  19.196  0.00  0.00    +0.000 A 
ATOM     15  C   UNL     1       4.484   5.876  18.483  0.00  0.00    +0.000 A 
ENDROOT
BRANCH   1  16
ATOM     16  C   UNL     1       2.710   4.217  19.412  0.00  0.00    +0.000 C 
ATOM     17  C   UNL     1       3.502   3.538  20.272  0.00  0.00    +0.000 C 
ATOM     18  N   UNL     1       2.973   2.374  20.855  0.00  0.00    +0.000 N 
ATOM     19  C   UNL     1       1.694   2.683  21.578  0.00  0.00    +0.000 C 
ATOM     20  C   UNL     1       0.691   3.255  20.549  0.00  0.00    +0.000 C 
ATOM     21  C   UNL     1       1.402   3.416  19.181  0.00  0.00    +0.000 C 
ATOM     22  C   UNL     1       1.804   1.985  18.727  0.00  0.00    +0.000 C 
ATOM     23  C   UNL     1       2.671   1.331  19.826  0.00  0.00    +0.000 C 
ENDBRANCH   1  16
BRANCH   1  24
ATOM     24  O   UNL     1       2.387   5.377  17.428  0.00  0.00    +0.000 OA
ATOM     25  H   UNL     1       1.718   4.684  17.529  0.00  0.00    +0.000 HD
ENDBRANCH   1  24
TORSDOF 2
ENDMDL
MODEL 5
REMARK VINA RESULT:      -7.5      2.120      4.864
REMARK  Name = 
REMARK  2 active torsions:
REMARK  status: ('A' for Active; 'I' for Inactive)
REMARK    1  A    between atoms: O_1  and  C_2
REMARK    2  A    between atoms: C_2  and  C_3
REMARK                            x       y       z     vdW  Elec       q    Type
REMARK                         _______ _______ _______ _____ _____    ______ ____
ROOT
ATOM      1  C   UNL     1       2.615   5.725  18.832  0.00  0.00    +0.000 C 
ATOM      2  C   UNL     1       2.034   6.999  19.517  0.00  0.00    +0.000 A 
ATOM      3  C   UNL     1       1.506   6.986  20.825  0.00  0.00    +0.000 A 
ATOM      4  C   UNL     1       0.990   8.132  21.433  0.00  0.00    +0.000 A 
ATOM      5  C   UNL     1       0.963   9.330  20.739  0.00  0.00    +0.000 A 
ATOM      6  C   UNL     1       1.475   9.385  19.447  0.00  0.00    +0.000 A 
ATOM      7  C   UNL     1       2.035   8.243  18.835  0.00  0.00    +0.000 A 
ATOM      8  C   UNL     1       2.549   8.438  17.468  0.00  0.00    +0.000 C 
ATOM      9  C   UNL     1       3.628   7.855  16.925  0.00  0.00    +0.000 C 
ATOM     10  C   UNL     1       4.543   6.918  17.602  0.00  0.00    +0.000 A 
ATOM     11  C   UNL     1       5.907   7.047  17.281  0.00  0.00    +0.000 A 
ATOM     12  C   UNL     1       6.873   6.288  17.929  0.00  0.00    +0.000 A 
ATOM     13  C   UNL     1       6.485   5.392  18.917  0.00  0.00    +0.000 A 
ATOM     14  C   UNL     1       5.133   5.215  19.207  0.00  0.00    +0.000 A 
ATOM     15  C   UNL     1       4.121   5.936  18.537  0.00  0.00    +0.000 A 
ENDROOT
BRANCH   1  16
ATOM     16  C   UNL     1       2.273   4.387  19.511  0.00  0.00    +0.000 C 
ATOM     17  C   UNL     1       1.180   3.614  19.328  0.00  0.00    +0.000 C 
ATOM     18  N   UNL     1       1.152   2.370  19.981  0.00  0.00    +0.000 N 
ATOM     19  C   UNL     1       2.349   1.548  19.595  0.00  0.00    +0.000 C 
ATOM     20  C   UNL     1       3.618   2.328  20.009  0.00  0.00    +0.000 C 
ATOM     21  C   UNL     1       3.203   3.718  20.556  0.00  0.00    +0.000 C 
ATOM     22  C   UNL     1       2.357   3.451  21.832  0.00  0.00    +0.000 C 
ATOM     23  C   UNL     1       1.173   2.527  21.468  0.00  0.00    +0.000 C 
ENDBRANCH   1  16
BRANCH   1  24
ATOM     24  O   UNL     1       1.961   5.589  17.549  0.00  0.00    +0.000 OA
ATOM     25  H   UNL     1       2.630   5.776  16.874  0.00  0.00    +0.000 HD
ENDBRANCH   1  24
TORSDOF 2
ENDMDL
MODEL 6
REMARK VINA RESULT:      -7.2      6.445      9.808
REMARK  Name = 
REMARK  2 active torsions:
REMARK  status: ('A' for Active; 'I' for Inactive)
REMARK    1  A    between atoms: O_1  and  C_2
REMARK    2  A    between atoms: C_2  and  C_3
REMARK                            x       y       z     vdW  Elec       q    Type
REMARK                         _______ _______ _______ _____ _____    ______ ____
ROOT
ATOM      1  C   UNL     1      -0.853  11.935  20.062  0.00  0.00    +0.000 C 
ATOM      2  C   UNL     1      -1.715  11.323  18.917  0.00  0.00    +0.000 A 
ATOM      3  C   UNL     1      -3.052  11.707  18.682  0.00  0.00    +0.000 A 
ATOM      4  C   UNL     1      -3.816  11.155  17.652  0.00  0.00    +0.000 A 
ATOM      5  C   UNL     1      -3.272  10.179  16.834  0.00  0.00    +0.000 A 
ATOM      6  C   UNL     1      -1.957   9.774  17.032  0.00  0.00    +0.000 A 
ATOM      7  C   UNL     1      -1.161  10.351  18.044  0.00  0.00    +0.000 A 
ATOM      8  C   UNL     1       0.218   9.838  18.143  0.00  0.00    +0.000 C 
ATOM      9  C   UNL     1       1.314  10.541  18.463  0.00  0.00    +0.000 C 
ATOM     10  C   UNL     1       1.367  11.985  18.751  0.00  0.00    +0.000 A 
ATOM     11  C   UNL     1       2.502  12.669  18.273  0.00  0.00    +0.000 A 
ATOM     12  C   UNL     1       2.616  14.047  18.398  0.00  0.00    +0.000 A 
ATOM     13  C   UNL     1       1.588  14.764  18.997  0.00  0.00    +0.000 A 
ATOM     14  C   UNL     1       0.483  14.095  19.523  0.00  0.00    +0.000 A 
ATOM     15  C   UNL     1       0.356  12.690  19.455  0.00  0.00    +0.000 A 
ENDROOT
BRANCH   1  16
ATOM     16  C   UNL     1      -1.629  12.719  21.136  0.00  0.00    +0.000 C 
ATOM     17  C   UNL     1      -2.579  13.664  20.956  0.00  0.00    +0.000 C 
ATOM     18  N   UNL     1      -3.228  14.152  22.102  0.00  0.00    +0.000 N 
ATOM     19  C   UNL     1      -3.861  13.025  22.868  0.00  0.00    +0.000 C 
ATOM     20  C   UNL     1      -2.741  12.041  23.280  0.00  0.00    +0.000 C 
ATOM     21  C   UNL     1      -1.401  12.506  22.654  0.00  0.00    +0.000 C 
ATOM     22  C   UNL     1      -1.085  13.893  23.279  0.00  0.00    +0.000 C 
ATOM     23  C   UNL     1      -2.275  14.845  23.023  0.00  0.00    +0.000 C 
ENDBRANCH   1  16
BRANCH   1  24
ATOM     24  O   UNL     1      -0.307  10.836  20.827  0.00  0.00    +0.000 OA
ATOM     25  H   UNL     1       0.165  10.268  20.200  0.00  0.00    +0.000 HD
ENDBRANCH   1  24
TORSDOF 2
ENDMDL
MODEL 7
REMARK VINA RESULT:      -7.0      6.371      9.569
REMARK  Name = 
REMARK  2 active torsions:
REMARK  status: ('A' for Active; 'I' for Inactive)
REMARK    1  A    between atoms: O_1  and  C_2
REMARK    2  A    between atoms: C_2  and  C_3
REMARK                            x       y       z     vdW  Elec       q    Type
REMARK                         _______ _______ _______ _____ _____    ______ ____
ROOT
ATOM      1  C   UNL     1      -1.046  12.175  19.958  0.00  0.00    +0.000 C 
ATOM      2  C   UNL     1      -0.648  11.103  21.017  0.00  0.00    +0.000 A 
ATOM      3  C   UNL     1      -1.062  11.172  22.364  0.00  0.00    +0.000 A 
ATOM      4  C   UNL     1      -0.703  10.205  23.305  0.00  0.00    +0.000 A 
ATOM      5  C   UNL     1       0.106   9.145  22.933  0.00  0.00    +0.000 A 
ATOM      6  C   UNL     1       0.534   9.039  21.615  0.00  0.00    +0.000 A 
ATOM      7  C   UNL     1       0.147   9.988  20.644  0.00  0.00    +0.000 A 
ATOM      8  C   UNL     1       0.663   9.757  19.283  0.00  0.00    +0.000 C 
ATOM      9  C   UNL     1       0.025  10.006  18.130  0.00  0.00    +0.000 C 
ATOM     10  C   UNL     1      -1.343  10.535  17.990  0.00  0.00    +0.000 A 
ATOM     11  C   UNL     1      -2.107  10.001  16.935  0.00  0.00    +0.000 A 
ATOM     12  C   UNL     1      -3.441  10.350  16.765  0.00  0.00    +0.000 A 
ATOM     13  C   UNL     1      -4.032  11.234  17.658  0.00  0.00    +0.000 A 
ATOM     14  C   UNL     1      -3.274  11.812  18.675  0.00  0.00    +0.000 A 
ATOM     15  C   UNL     1      -1.904  11.516  18.850  0.00  0.00    +0.000 A 
ENDROOT
BRANCH   1  16
ATOM     16  C   UNL     1      -1.619  13.488  20.521  0.00  0.00    +0.000 C 
ATOM     17  C   UNL     1      -2.908  13.785  20.800  0.00  0.00    +0.000 C 
ATOM     18  N   UNL     1      -3.166  15.019  21.422  0.00  0.00    +0.000 N 
ATOM     19  C   UNL     1      -2.395  15.130  22.706  0.00  0.00    +0.000 C 
ATOM     20  C   UNL     1      -0.890  15.019  22.371  0.00  0.00    +0.000 C 
ATOM     21  C   UNL     1      -0.728  14.711  20.860  0.00  0.00    +0.000 C 
ATOM     22  C   UNL     1      -1.307  15.937  20.100  0.00  0.00    +0.000 C 
ATOM     23  C   UNL     1      -2.766  16.168  20.553  0.00  0.00    +0.000 C 
ENDBRANCH   1  16
BRANCH   1  24
ATOM     24  O   UNL     1       0.171  12.626  19.321  0.00  0.00    +0.000 OA
ATOM     25  H   UNL     1       0.834  12.720  20.022  0.00  0.00    +0.000 HD
ENDBRANCH   1  24
TORSDOF 2
ENDMDL
MODEL 8
REMARK VINA RESULT:      -7.0      1.923      4.952
REMARK  Name = 
REMARK  2 active torsions:
REMARK  status: ('A' for Active; 'I' for Inactive)
REMARK    1  A    between atoms: O_1  and  C_2
REMARK    2  A    between atoms: C_2  and  C_3
REMARK                            x       y       z     vdW  Elec       q    Type
REMARK                         _______ _______ _______ _____ _____    ______ ____
ROOT
ATOM      1  C   UNL     1       3.509   5.430  18.389  0.00  0.00    +0.000 C 
ATOM      2  C   UNL     1       2.785   6.786  18.646  0.00  0.00    +0.000 A 
ATOM      3  C   UNL     1       1.930   6.996  19.747  0.00  0.00    +0.000 A 
ATOM      4  C   UNL     1       1.287   8.215  19.971  0.00  0.00    +0.000 A 
ATOM      5  C   UNL     1       1.460   9.261  19.081  0.00  0.00    +0.000 A 
ATOM      6  C   UNL     1       2.296   9.095  17.983  0.00  0.00    +0.000 A 
ATOM      7  C   UNL     1       2.983   7.882  17.766  0.00  0.00    +0.000 A 
ATOM      8  C   UNL     1       3.843   7.839  16.570  0.00  0.00    +0.000 C 
ATOM      9  C   UNL     1       5.019   7.206  16.450  0.00  0.00    +0.000 C 
ATOM     10  C   UNL     1       5.709   6.446  17.507  0.00  0.00    +0.000 A 
ATOM     11  C   UNL     1       7.112   6.564  17.537  0.00  0.00    +0.000 A 
ATOM     12  C   UNL     1       7.862   5.974  18.546  0.00  0.00    +0.000 A 
ATOM     13  C   UNL     1       7.214   5.262  19.548  0.00  0.00    +0.000 A 
ATOM     14  C   UNL     1       5.831   5.092  19.502  0.00  0.00    +0.000 A 
ATOM     15  C   UNL     1       5.042   5.638  18.465  0.00  0.00    +0.000 A 
ENDROOT
BRANCH   1  16
ATOM     16  C   UNL     1       2.982   4.229  19.195  0.00  0.00    +0.000 C 
ATOM     17  C   UNL     1       3.441   2.957  19.195  0.00  0.00    +0.000 C 
ATOM     18  N   UNL     1       2.863   2.063  20.111  0.00  0.00    +0.000 N 
ATOM     19  C   UNL     1       2.999   2.586  21.513  0.00  0.00    +0.000 C 
ATOM     20  C   UNL     1       2.274   3.950  21.585  0.00  0.00    +0.000 C 
ATOM     21  C   UNL     1       1.780   4.338  20.168  0.00  0.00    +0.000 C 
ATOM     22  C   UNL     1       0.743   3.257  19.755  0.00  0.00    +0.000 C 
ATOM     23  C   UNL     1       1.406   1.863  19.842  0.00  0.00    +0.000 C 
ENDBRANCH   1  16
BRANCH   1  24
ATOM     24  O   UNL     1       3.217   5.034  17.030  0.00  0.00    +0.000 OA
ATOM     25  H   UNL     1       3.245   5.839  16.493  0.00  0.00    +0.000 HD
ENDBRANCH   1  24
TORSDOF 2
ENDMDL
MODEL 9
REMARK VINA RESULT:      -7.0      6.285      9.613
REMARK  Name = 
REMARK  2 active torsions:
REMARK  status: ('A' for Active; 'I' for Inactive)
REMARK    1  A    between atoms: O_1  and  C_2
REMARK    2  A    between atoms: C_2  and  C_3
REMARK                            x       y       z     vdW  Elec       q    Type
REMARK                         _______ _______ _______ _____ _____    ______ ____
ROOT
ATOM      1  C   UNL     1      -1.005  12.125  20.037  0.00  0.00    +0.000 C 
ATOM      2  C   UNL     1      -0.562  11.026  21.049  0.00  0.00    +0.000 A 
ATOM      3  C   UNL     1      -0.949  11.040  22.405  0.00  0.00    +0.000 A 
ATOM      4  C   UNL     1      -0.550  10.049  23.305  0.00  0.00    +0.000 A 
ATOM      5  C   UNL     1       0.274   9.021  22.880  0.00  0.00    +0.000 A 
ATOM      6  C   UNL     1       0.677   8.970  21.551  0.00  0.00    +0.000 A 
ATOM      7  C   UNL     1       0.250   9.943  20.622  0.00  0.00    +0.000 A 
ATOM      8  C   UNL     1       0.741   9.770  19.243  0.00  0.00    +0.000 C 
ATOM      9  C   UNL     1       0.074  10.044  18.113  0.00  0.00    +0.000 C 
ATOM     10  C   UNL     1      -1.308  10.548  18.019  0.00  0.00    +0.000 A 
ATOM     11  C   UNL     1      -2.082  10.033  16.962  0.00  0.00    +0.000 A 
ATOM     12  C   UNL     1      -3.426  10.358  16.830  0.00  0.00    +0.000 A 
ATOM     13  C   UNL     1      -4.018  11.198  17.766  0.00  0.00    +0.000 A 
ATOM     14  C   UNL     1      -3.251  11.757  18.787  0.00  0.00    +0.000 A 
ATOM     15  C   UNL     1      -1.871  11.486  18.924  0.00  0.00    +0.000 A 
ENDROOT
BRANCH   1  16
ATOM     16  C   UNL     1      -1.594  13.405  20.657  0.00  0.00    +0.000 C 
ATOM     17  C   UNL     1      -1.404  14.685  20.267  0.00  0.00    +0.000 C 
ATOM     18  N   UNL     1      -2.150  15.678  20.925  0.00  0.00    +0.000 N 
ATOM     19  C   UNL     1      -3.621  15.391  20.810  0.00  0.00    +0.000 C 
ATOM     20  C   UNL     1      -3.891  14.015  21.462  0.00  0.00    +0.000 C 
ATOM     21  C   UNL     1      -2.542  13.379  21.884  0.00  0.00    +0.000 C 
ATOM     22  C   UNL     1      -1.934  14.319  22.963  0.00  0.00    +0.000 C 
ATOM     23  C   UNL     1      -1.815  15.745  22.381  0.00  0.00    +0.000 C 
ENDBRANCH   1  16
BRANCH   1  24
ATOM     24  O   UNL     1       0.188  12.624  19.391  0.00  0.00    +0.000 OA
ATOM     25  H   UNL     1       0.752  11.856  19.214  0.00  0.00    +0.000 HD
ENDBRANCH   1  24
TORSDOF 2
ENDMDL
