MODEL 1
REMARK VINA RESULT:      -9.1      0.000      0.000
REMARK  Name = 
REMARK  8 active torsions:
REMARK  status: ('A' for Active; 'I' for Inactive)
REMARK    1  A    between atoms: C_1  and  C_2
REMARK    2  A    between atoms: C_4  and  C_5
REMARK    3  A    between atoms: C_6  and  C_7
REMARK    4  A    between atoms: C_15  and  C_16
REMARK    5  A    between atoms: N_18  and  CA_19
REMARK    6  A    between atoms: CA_19  and  C_20
REMARK    7  A    between atoms: CA_19  and  C_22
REMARK    8  A    between atoms: C_20  and  O_21
REMARK                            x       y       z     vdW  Elec       q    Type
REMARK                         _______ _______ _______ _____ _____    ______ ____
ROOT
ATOM      1  C   UNL     1       4.377   6.911  16.938  0.00  0.00    +0.000 C 
ATOM      2  C   UNL     1       3.716   6.564  18.053  0.00  0.00    +0.000 C 
ATOM      3  C   UNL     1       3.945   5.350  18.926  0.00  0.00    +0.000 C 
ATOM      4  O   UNL     1       4.632   4.373  18.722  0.00  0.00    +0.000 OA
ATOM      5  N   UNL     1       3.164   5.580  20.050  0.00  0.00    +0.000 N 
ATOM      6  C   UNL     1       2.442   6.762  19.945  0.00  0.00    +0.000 A 
ATOM      7  C   UNL     1       1.591   7.303  20.880  0.00  0.00    +0.000 A 
ATOM      8  C   UNL     1       0.971   8.518  20.557  0.00  0.00    +0.000 A 
ATOM      9  C   UNL     1       1.180   9.155  19.305  0.00  0.00    +0.000 A 
ATOM     10  C   UNL     1       2.044   8.566  18.368  0.00  0.00    +0.000 A 
ATOM     11  C   UNL     1       2.696   7.387  18.718  0.00  0.00    +0.000 A 
ATOM     12  H   UNL     1       3.140   4.932  20.829  0.00  0.00    +0.000 HD
ENDROOT
BRANCH   1  18
ATOM     13  C   UNL     1       6.171   3.783  13.679  0.00  0.00    +0.000 C 
ATOM     14  C   UNL     1       6.221   4.695  14.845  0.00  0.00    +0.000 A 
ATOM     15  C   UNL     1       7.247   5.009  15.710  0.00  0.00    +0.000 A 
ATOM     16  C   UNL     1       6.745   5.915  16.688  0.00  0.00    +0.000 A 
ATOM     17  C   UNL     1       7.520   6.483  17.822  0.00  0.00    +0.000 C 
ATOM     18  C   UNL     1       5.411   6.129  16.378  0.00  0.00    +0.000 A 
ATOM     19  N   UNL     1       5.114   5.391  15.259  0.00  0.00    +0.000 N 
ATOM     20  H   UNL     1       4.203   5.342  14.823  0.00  0.00    +0.000 HD
ENDBRANCH   1  18
BRANCH   9  21
ATOM     21  C   UNL     1       0.517  10.488  19.087  0.00  0.00    +0.000 C 
ATOM     22  O   UNL     1       1.164  11.411  18.605  0.00  0.00    +0.000 OA
ATOM     23  N   UNL     1      -0.820  10.628  19.416  0.00  0.00    +0.000 N 
ATOM     24  H   UNL     1      -1.339   9.911  19.896  0.00  0.00    +0.000 HD
BRANCH  23  25
ATOM     25  CA  UNL     1      -1.561  11.849  19.059  0.00  0.00    +0.000 C 
BRANCH  25  26
ATOM     26  C   UNL     1      -2.542  11.570  17.919  0.00  0.00    +0.000 A 
ATOM     27  C   UNL     1      -2.137  11.165  16.636  0.00  0.00    +0.000 A 
ATOM     28  C   UNL     1      -3.072  10.845  15.646  0.00  0.00    +0.000 A 
ATOM     29  C   UNL     1      -4.434  10.927  15.917  0.00  0.00    +0.000 A 
ATOM     30  C   UNL     1      -4.861  11.337  17.178  0.00  0.00    +0.000 A 
ATOM     31  C   UNL     1      -3.925  11.652  18.168  0.00  0.00    +0.000 A 
ENDBRANCH  25  26
BRANCH  25  32
ATOM     32  C   UNL     1      -2.155  12.528  20.321  0.00  0.00    +0.000 C 
BRANCH  32  33
ATOM     33  O   UNL     1      -2.230  13.952  20.194  0.00  0.00    +0.000 OA
ATOM     34  H   UNL     1      -2.786  14.262  20.929  0.00  0.00    +0.000 HD
ENDBRANCH  32  33
ENDBRANCH  25  32
ENDBRANCH  23  25
ENDBRANCH   9  21
TORSDOF 6
ENDMDL
MODEL 2
REMARK VINA RESULT:      -8.7      0.920      1.257
REMARK  Name = 
REMARK  8 active torsions:
REMARK  status: ('A' for Active; 'I' for Inactive)
REMARK    1  A    between atoms: C_1  and  C_2
REMARK    2  A    between atoms: C_4  and  C_5
REMARK    3  A    between atoms: C_6  and  C_7
REMARK    4  A    between atoms: C_15  and  C_16
REMARK    5  A    between atoms: N_18  and  CA_19
REMARK    6  A    between atoms: CA_19  and  C_20
REMARK    7  A    between atoms: CA_19  and  C_22
REMARK    8  A    between atoms: C_20  and  O_21
REMARK                            x       y       z     vdW  Elec       q    Type
REMARK                         _______ _______ _______ _____ _____    ______ ____
ROOT
ATOM      1  C   UNL     1       4.331   7.074  16.963  0.00  0.00    +0.000 C 
ATOM      2  C   UNL     1       3.634   6.758  18.065  0.00  0.00    +0.000 C 
ATOM      3  C   UNL     1       3.818   5.558  18.968  0.00  0.00    +0.000 C 
ATOM      4  O   UNL     1       4.496   4.567  18.801  0.00  0.00    +0.000 OA
ATOM      5  N   UNL     1       3.010   5.822  20.064  0.00  0.00    +0.000 N 
ATOM      6  C   UNL     1       2.309   7.013  19.916  0.00  0.00    +0.000 A 
ATOM      7  C   UNL     1       1.441   7.585  20.816  0.00  0.00    +0.000 A 
ATOM      8  C   UNL     1       0.850   8.802  20.452  0.00  0.00    +0.000 A 
ATOM      9  C   UNL     1       1.105   9.412  19.194  0.00  0.00    +0.000 A 
ATOM     10  C   UNL     1       1.985   8.791  18.294  0.00  0.00    +0.000 A 
ATOM     11  C   UNL     1       2.608   7.610  18.684  0.00  0.00    +0.000 A 
ATOM     12  H   UNL     1       2.954   5.190  20.854  0.00  0.00    +0.000 HD
ENDROOT
BRANCH   1  18
ATOM     13  C   UNL     1       6.161   3.840  13.829  0.00  0.00    +0.000 C 
ATOM     14  C   UNL     1       6.196   4.782  14.972  0.00  0.00    +0.000 A 
ATOM     15  C   UNL     1       7.205   5.106  15.853  0.00  0.00    +0.000 A 
ATOM     16  C   UNL     1       6.692   6.044  16.794  0.00  0.00    +0.000 A 
ATOM     17  C   UNL     1       7.447   6.632  17.931  0.00  0.00    +0.000 C 
ATOM     18  C   UNL     1       5.368   6.265  16.448  0.00  0.00    +0.000 A 
ATOM     19  N   UNL     1       5.088   5.502  15.342  0.00  0.00    +0.000 N 
ATOM     20  H   UNL     1       4.187   5.451  14.886  0.00  0.00    +0.000 HD
ENDBRANCH   1  18
BRANCH   9  21
ATOM     21  C   UNL     1       0.469  10.750  18.932  0.00  0.00    +0.000 C 
ATOM     22  O   UNL     1       1.157  11.671  18.506  0.00  0.00    +0.000 OA
ATOM     23  N   UNL     1      -0.889  10.898  19.156  0.00  0.00    +0.000 N 
ATOM     24  H   UNL     1      -1.448  10.183  19.591  0.00  0.00    +0.000 HD
BRANCH  23  25
ATOM     25  CA  UNL     1      -1.592  12.125  18.749  0.00  0.00    +0.000 C 
BRANCH  25  26
ATOM     26  C   UNL     1      -3.106  11.909  18.763  0.00  0.00    +0.000 A 
ATOM     27  C   UNL     1      -3.775  11.088  17.840  0.00  0.00    +0.000 A 
ATOM     28  C   UNL     1      -5.152  10.857  17.938  0.00  0.00    +0.000 A 
ATOM     29  C   UNL     1      -5.890  11.445  18.960  0.00  0.00    +0.000 A 
ATOM     30  C   UNL     1      -5.251  12.272  19.881  0.00  0.00    +0.000 A 
ATOM     31  C   UNL     1      -3.874  12.499  19.784  0.00  0.00    +0.000 A 
ENDBRANCH  25  26
BRANCH  25  32
ATOM     32  C   UNL     1      -1.069  13.354  19.538  0.00  0.00    +0.000 C 
BRANCH  32  33
ATOM     33  O   UNL     1      -0.548  14.375  18.682  0.00  0.00    +0.000 OA
ATOM     34  H   UNL     1      -0.878  15.220  19.032  0.00  0.00    +0.000 HD
ENDBRANCH  32  33
ENDBRANCH  25  32
ENDBRANCH  23  25
ENDBRANCH   9  21
TORSDOF 6
ENDMDL
MODEL 3
REMARK VINA RESULT:      -8.7      2.401      2.956
REMARK  Name = 
REMARK  8 active torsions:
REMARK  status: ('A' for Active; 'I' for Inactive)
REMARK    1  A    between atoms: C_1  and  C_2
REMARK    2  A    between atoms: C_4  and  C_5
REMARK    3  A    between atoms: C_6  and  C_7
REMARK    4  A    between atoms: C_15  and  C_16
REMARK    5  A    between atoms: N_18  and  CA_19
REMARK    6  A    between atoms: CA_19  and  C_20
REMARK    7  A    between atoms: CA_19  and  C_22
REMARK    8  A    between atoms: C_20  and  O_21
REMARK                            x       y       z     vdW  Elec       q    Type
REMARK                         _______ _______ _______ _____ _____    ______ ____
ROOT
ATOM      1  C   UNL     1       4.399   6.937  17.049  0.00  0.00    +0.000 C 
ATOM      2  C   UNL     1       3.689   6.525  18.110  0.00  0.00    +0.000 C 
ATOM      3  C   UNL     1       3.835   5.230  18.879  0.00  0.00    +0.000 C 
ATOM      4  O   UNL     1       4.485   4.244  18.608  0.00  0.00    +0.000 OA
ATOM      5  N   UNL     1       3.031   5.398  19.997  0.00  0.00    +0.000 N 
ATOM      6  C   UNL     1       2.365   6.618  19.976  0.00  0.00    +0.000 A 
ATOM      7  C   UNL     1       1.511   7.114  20.932  0.00  0.00    +0.000 A 
ATOM      8  C   UNL     1       0.956   8.380  20.701  0.00  0.00    +0.000 A 
ATOM      9  C   UNL     1       1.233   9.114  19.516  0.00  0.00    +0.000 A 
ATOM     10  C   UNL     1       2.099   8.568  18.555  0.00  0.00    +0.000 A 
ATOM     11  C   UNL     1       2.686   7.334  18.817  0.00  0.00    +0.000 A 
ATOM     12  H   UNL     1       2.954   4.687  20.714  0.00  0.00    +0.000 HD
ENDROOT
BRANCH   1  18
ATOM     13  C   UNL     1       6.096   3.859  13.692  0.00  0.00    +0.000 C 
ATOM     14  C   UNL     1       6.180   4.748  14.873  0.00  0.00    +0.000 A 
ATOM     15  C   UNL     1       7.227   5.039  15.720  0.00  0.00    +0.000 A 
ATOM     16  C   UNL     1       6.754   5.930  16.726  0.00  0.00    +0.000 A 
ATOM     17  C   UNL     1       7.559   6.472  17.851  0.00  0.00    +0.000 C 
ATOM     18  C   UNL     1       5.415   6.158  16.451  0.00  0.00    +0.000 A 
ATOM     19  N   UNL     1       5.087   5.444  15.326  0.00  0.00    +0.000 N 
ATOM     20  H   UNL     1       4.166   5.408  14.910  0.00  0.00    +0.000 HD
ENDBRANCH   1  18
BRANCH   9  21
ATOM     21  C   UNL     1       0.637  10.490  19.398  0.00  0.00    +0.000 C 
ATOM     22  O   UNL     1      -0.124  10.741  18.470  0.00  0.00    +0.000 OA
ATOM     23  N   UNL     1       0.946  11.435  20.361  0.00  0.00    +0.000 N 
ATOM     24  H   UNL     1       1.638  11.276  21.075  0.00  0.00    +0.000 HD
BRANCH  23  25
ATOM     25  CA  UNL     1       0.255  12.734  20.395  0.00  0.00    +0.000 C 
BRANCH  25  26
ATOM     26  C   UNL     1      -0.929  12.690  21.361  0.00  0.00    +0.000 A 
ATOM     27  C   UNL     1      -2.062  13.511  21.229  0.00  0.00    +0.000 A 
ATOM     28  C   UNL     1      -3.157  13.382  22.090  0.00  0.00    +0.000 A 
ATOM     29  C   UNL     1      -3.141  12.431  23.106  0.00  0.00    +0.000 A 
ATOM     30  C   UNL     1      -2.025  11.613  23.264  0.00  0.00    +0.000 A 
ATOM     31  C   UNL     1      -0.933  11.740  22.400  0.00  0.00    +0.000 A 
ENDBRANCH  25  26
BRANCH  25  32
ATOM     32  C   UNL     1       1.263  13.896  20.600  0.00  0.00    +0.000 C 
BRANCH  32  33
ATOM     33  O   UNL     1       1.541  14.144  21.982  0.00  0.00    +0.000 OA
ATOM     34  H   UNL     1       0.706  14.447  22.378  0.00  0.00    +0.000 HD
ENDBRANCH  32  33
ENDBRANCH  25  32
ENDBRANCH  23  25
ENDBRANCH   9  21
TORSDOF 6
ENDMDL
MODEL 4
REMARK VINA RESULT:      -8.6      1.951      3.104
REMARK  Name = 
REMARK  8 active torsions:
REMARK  status: ('A' for Active; 'I' for Inactive)
REMARK    1  A    between atoms: C_1  and  C_2
REMARK    2  A    between atoms: C_4  and  C_5
REMARK    3  A    between atoms: C_6  and  C_7
REMARK    4  A    between atoms: C_15  and  C_16
REMARK    5  A    between atoms: N_18  and  CA_19
REMARK    6  A    between atoms: CA_19  and  C_20
REMARK    7  A    between atoms: CA_19  and  C_22
REMARK    8  A    between atoms: C_20  and  O_21
REMARK                            x       y       z     vdW  Elec       q    Type
REMARK                         _______ _______ _______ _____ _____    ______ ____
ROOT
ATOM      1  C   UNL     1       4.441   6.795  17.319  0.00  0.00    +0.000 C 
ATOM      2  C   UNL     1       3.676   6.184  18.237  0.00  0.00    +0.000 C 
ATOM      3  C   UNL     1       3.750   4.745  18.697  0.00  0.00    +0.000 C 
ATOM      4  O   UNL     1       4.379   3.819  18.232  0.00  0.00    +0.000 OA
ATOM      5  N   UNL     1       2.906   4.689  19.797  0.00  0.00    +0.000 N 
ATOM      6  C   UNL     1       2.280   5.907  20.031  0.00  0.00    +0.000 A 
ATOM      7  C   UNL     1       1.403   6.210  21.045  0.00  0.00    +0.000 A 
ATOM      8  C   UNL     1       0.897   7.516  21.088  0.00  0.00    +0.000 A 
ATOM      9  C   UNL     1       1.245   8.486  20.109  0.00  0.00    +0.000 A 
ATOM     10  C   UNL     1       2.132   8.136  19.078  0.00  0.00    +0.000 A 
ATOM     11  C   UNL     1       2.670   6.853  19.074  0.00  0.00    +0.000 A 
ATOM     12  H   UNL     1       2.777   3.839  20.332  0.00  0.00    +0.000 HD
ENDROOT
BRANCH   1  18
ATOM     13  C   UNL     1       6.048   3.941  13.728  0.00  0.00    +0.000 C 
ATOM     14  C   UNL     1       6.175   4.823  14.912  0.00  0.00    +0.000 A 
ATOM     15  C   UNL     1       7.277   5.212  15.642  0.00  0.00    +0.000 A 
ATOM     16  C   UNL     1       6.833   6.040  16.713  0.00  0.00    +0.000 A 
ATOM     17  C   UNL     1       7.702   6.650  17.752  0.00  0.00    +0.000 C 
ATOM     18  C   UNL     1       5.456   6.131  16.595  0.00  0.00    +0.000 A 
ATOM     19  N   UNL     1       5.075   5.398  15.499  0.00  0.00    +0.000 N 
ATOM     20  H   UNL     1       4.122   5.271  15.188  0.00  0.00    +0.000 HD
ENDBRANCH   1  18
BRANCH   9  21
ATOM     21  C   UNL     1       0.697   9.876  20.286  0.00  0.00    +0.000 C 
ATOM     22  O   UNL     1       0.808  10.434  21.372  0.00  0.00    +0.000 OA
ATOM     23  N   UNL     1       0.101  10.499  19.203  0.00  0.00    +0.000 N 
ATOM     24  H   UNL     1      -0.081  10.023  18.335  0.00  0.00    +0.000 HD
BRANCH  23  25
ATOM     25  CA  UNL     1      -0.289  11.917  19.269  0.00  0.00    +0.000 C 
BRANCH  25  26
ATOM     26  C   UNL     1       0.901  12.820  18.940  0.00  0.00    +0.000 A 
ATOM     27  C   UNL     1       2.071  12.355  18.317  0.00  0.00    +0.000 A 
ATOM     28  C   UNL     1       3.103  13.231  17.965  0.00  0.00    +0.000 A 
ATOM     29  C   UNL     1       2.988  14.592  18.231  0.00  0.00    +0.000 A 
ATOM     30  C   UNL     1       1.843  15.075  18.859  0.00  0.00    +0.000 A 
ATOM     31  C   UNL     1       0.810  14.199  19.207  0.00  0.00    +0.000 A 
ENDBRANCH  25  26
BRANCH  25  32
ATOM     32  C   UNL     1      -1.587  12.175  18.459  0.00  0.00    +0.000 C 
BRANCH  32  33
ATOM     33  O   UNL     1      -1.326  12.499  17.090  0.00  0.00    +0.000 OA
ATOM     34  H   UNL     1      -0.481  12.981  17.080  0.00  0.00    +0.000 HD
ENDBRANCH  32  33
ENDBRANCH  25  32
ENDBRANCH  23  25
ENDBRANCH   9  21
TORSDOF 6
ENDMDL
MODEL 5
REMARK VINA RESULT:      -8.6      0.809      1.264
REMARK  Name = 
REMARK  8 active torsions:
REMARK  status: ('A' for Active; 'I' for Inactive)
REMARK    1  A    between atoms: C_1  and  C_2
REMARK    2  A    between atoms: C_4  and  C_5
REMARK    3  A    between atoms: C_6  and  C_7
REMARK    4  A    between atoms: C_15  and  C_16
REMARK    5  A    between atoms: N_18  and  CA_19
REMARK    6  A    between atoms: CA_19  and  C_20
REMARK    7  A    between atoms: CA_19  and  C_22
REMARK    8  A    between atoms: C_20  and  O_21
REMARK                            x       y       z     vdW  Elec       q    Type
REMARK                         _______ _______ _______ _____ _____    ______ ____
ROOT
ATOM      1  C   UNL     1       4.245   7.289  17.213  0.00  0.00    +0.000 C 
ATOM      2  C   UNL     1       3.521   6.918  18.281  0.00  0.00    +0.000 C 
ATOM      3  C   UNL     1       3.690   5.677  19.130  0.00  0.00    +0.000 C 
ATOM      4  O   UNL     1       4.380   4.699  18.936  0.00  0.00    +0.000 OA
ATOM      5  N   UNL     1       2.851   5.884  20.215  0.00  0.00    +0.000 N 
ATOM      6  C   UNL     1       2.146   7.076  20.105  0.00  0.00    +0.000 A 
ATOM      7  C   UNL     1       1.250   7.599  21.007  0.00  0.00    +0.000 A 
ATOM      8  C   UNL     1       0.659   8.829  20.685  0.00  0.00    +0.000 A 
ATOM      9  C   UNL     1       0.943   9.499  19.465  0.00  0.00    +0.000 A 
ATOM     10  C   UNL     1       1.852   8.927  18.560  0.00  0.00    +0.000 A 
ATOM     11  C   UNL     1       2.473   7.732  18.911  0.00  0.00    +0.000 A 
ATOM     12  H   UNL     1       2.778   5.215  20.973  0.00  0.00    +0.000 HD
ENDROOT
BRANCH   1  18
ATOM     13  C   UNL     1       6.064   3.813  14.344  0.00  0.00    +0.000 C 
ATOM     14  C   UNL     1       6.120   4.911  15.337  0.00  0.00    +0.000 A 
ATOM     15  C   UNL     1       7.178   5.452  16.035  0.00  0.00    +0.000 A 
ATOM     16  C   UNL     1       6.671   6.466  16.898  0.00  0.00    +0.000 A 
ATOM     17  C   UNL     1       7.478   7.281  17.843  0.00  0.00    +0.000 C 
ATOM     18  C   UNL     1       5.302   6.512  16.689  0.00  0.00    +0.000 A 
ATOM     19  N   UNL     1       4.987   5.573  15.739  0.00  0.00    +0.000 N 
ATOM     20  H   UNL     1       4.053   5.373  15.408  0.00  0.00    +0.000 HD
ENDBRANCH   1  18
BRANCH   9  21
ATOM     21  C   UNL     1       0.305  10.844  19.249  0.00  0.00    +0.000 C 
ATOM     22  O   UNL     1       0.867  11.671  18.540  0.00  0.00    +0.000 OA
ATOM     23  N   UNL     1      -0.920  11.103  19.840  0.00  0.00    +0.000 N 
ATOM     24  H   UNL     1      -1.350  10.472  20.496  0.00  0.00    +0.000 HD
BRANCH  23  25
ATOM     25  CA  UNL     1      -1.670  12.328  19.518  0.00  0.00    +0.000 C 
BRANCH  25  26
ATOM     26  C   UNL     1      -2.983  11.987  18.813  0.00  0.00    +0.000 A 
ATOM     27  C   UNL     1      -4.246  12.311  19.337  0.00  0.00    +0.000 A 
ATOM     28  C   UNL     1      -5.418  12.050  18.620  0.00  0.00    +0.000 A 
ATOM     29  C   UNL     1      -5.354  11.455  17.364  0.00  0.00    +0.000 A 
ATOM     30  C   UNL     1      -4.115  11.115  16.828  0.00  0.00    +0.000 A 
ATOM     31  C   UNL     1      -2.943  11.380  17.544  0.00  0.00    +0.000 A 
ENDBRANCH  25  26
BRANCH  25  32
ATOM     32  C   UNL     1      -1.779  13.255  20.758  0.00  0.00    +0.000 C 
BRANCH  32  33
ATOM     33  O   UNL     1      -1.682  12.536  21.991  0.00  0.00    +0.000 OA
ATOM     34  H   UNL     1      -0.733  12.396  22.151  0.00  0.00    +0.000 HD
ENDBRANCH  32  33
ENDBRANCH  25  32
ENDBRANCH  23  25
ENDBRANCH   9  21
TORSDOF 6
ENDMDL
MODEL 6
REMARK VINA RESULT:      -8.5      2.462      3.643
REMARK  Name = 
REMARK  8 active torsions:
REMARK  status: ('A' for Active; 'I' for Inactive)
REMARK    1  A    between atoms: C_1  and  C_2
REMARK    2  A    between atoms: C_4  and  C_5
REMARK    3  A    between atoms: C_6  and  C_7
REMARK    4  A    between atoms: C_15  and  C_16
REMARK    5  A    between atoms: N_18  and  CA_19
REMARK    6  A    between atoms: CA_19  and  C_20
REMARK    7  A    between atoms: CA_19  and  C_22
REMARK    8  A    between atoms: C_20  and  O_21
REMARK                            x       y       z     vdW  Elec       q    Type
REMARK                         _______ _______ _______ _____ _____    ______ ____
ROOT
ATOM      1  C   UNL     1       4.314   7.029  17.092  0.00  0.00    +0.000 C 
ATOM      2  C   UNL     1       3.637   6.630  18.180  0.00  0.00    +0.000 C 
ATOM      3  C   UNL     1       3.848   5.373  18.995  0.00  0.00    +0.000 C 
ATOM      4  O   UNL     1       4.535   4.405  18.752  0.00  0.00    +0.000 OA
ATOM      5  N   UNL     1       3.053   5.551  20.118  0.00  0.00    +0.000 N 
ATOM      6  C   UNL     1       2.336   6.740  20.062  0.00  0.00    +0.000 A 
ATOM      7  C   UNL     1       1.475   7.238  21.011  0.00  0.00    +0.000 A 
ATOM      8  C   UNL     1       0.864   8.470  20.740  0.00  0.00    +0.000 A 
ATOM      9  C   UNL     1       1.093   9.168  19.524  0.00  0.00    +0.000 A 
ATOM     10  C   UNL     1       1.968   8.621  18.571  0.00  0.00    +0.000 A 
ATOM     11  C   UNL     1       2.610   7.424  18.871  0.00  0.00    +0.000 A 
ATOM     12  H   UNL     1       3.016   4.866  20.864  0.00  0.00    +0.000 HD
ENDROOT
BRANCH   1  18
ATOM     13  C   UNL     1       6.097   3.913  13.816  0.00  0.00    +0.000 C 
ATOM     14  C   UNL     1       6.157   4.842  14.968  0.00  0.00    +0.000 A 
ATOM     15  C   UNL     1       7.200   5.197  15.796  0.00  0.00    +0.000 A 
ATOM     16  C   UNL     1       6.702   6.101  16.778  0.00  0.00    +0.000 A 
ATOM     17  C   UNL     1       7.495   6.706  17.879  0.00  0.00    +0.000 C 
ATOM     18  C   UNL     1       5.353   6.270  16.509  0.00  0.00    +0.000 A 
ATOM     19  N   UNL     1       5.042   5.510  15.410  0.00  0.00    +0.000 N 
ATOM     20  H   UNL     1       4.120   5.427  15.004  0.00  0.00    +0.000 HD
ENDBRANCH   1  18
BRANCH   9  21
ATOM     21  C   UNL     1       0.438  10.512  19.362  0.00  0.00    +0.000 C 
ATOM     22  O   UNL     1      -0.756  10.635  19.610  0.00  0.00    +0.000 OA
ATOM     23  N   UNL     1       1.213  11.587  18.959  0.00  0.00    +0.000 N 
ATOM     24  H   UNL     1       2.170  11.485  18.665  0.00  0.00    +0.000 HD
BRANCH  23  25
ATOM     25  CA  UNL     1       0.667  12.953  18.958  0.00  0.00    +0.000 C 
BRANCH  25  26
ATOM     26  C   UNL     1       1.762  13.972  18.638  0.00  0.00    +0.000 A 
ATOM     27  C   UNL     1       1.549  15.360  18.649  0.00  0.00    +0.000 A 
ATOM     28  C   UNL     1       2.599  16.257  18.427  0.00  0.00    +0.000 A 
ATOM     29  C   UNL     1       3.885  15.785  18.185  0.00  0.00    +0.000 A 
ATOM     30  C   UNL     1       4.119  14.412  18.158  0.00  0.00    +0.000 A 
ATOM     31  C   UNL     1       3.069  13.516  18.384  0.00  0.00    +0.000 A 
ENDBRANCH  25  26
BRANCH  25  32
ATOM     32  C   UNL     1      -0.619  13.037  18.095  0.00  0.00    +0.000 C 
BRANCH  32  33
ATOM     33  O   UNL     1      -1.796  13.249  18.881  0.00  0.00    +0.000 OA
ATOM     34  H   UNL     1      -1.658  12.767  19.714  0.00  0.00    +0.000 HD
ENDBRANCH  32  33
ENDBRANCH  25  32
ENDBRANCH  23  25
ENDBRANCH   9  21
TORSDOF 6
ENDMDL
MODEL 7
REMARK VINA RESULT:      -8.4      2.187      2.999
REMARK  Name = 
REMARK  8 active torsions:
REMARK  status: ('A' for Active; 'I' for Inactive)
REMARK    1  A    between atoms: C_1  and  C_2
REMARK    2  A    between atoms: C_4  and  C_5
REMARK    3  A    between atoms: C_6  and  C_7
REMARK    4  A    between atoms: C_15  and  C_16
REMARK    5  A    between atoms: N_18  and  CA_19
REMARK    6  A    between atoms: CA_19  and  C_20
REMARK    7  A    between atoms: CA_19  and  C_22
REMARK    8  A    between atoms: C_20  and  O_21
REMARK                            x       y       z     vdW  Elec       q    Type
REMARK                         _______ _______ _______ _____ _____    ______ ____
ROOT
ATOM      1  C   UNL     1       4.368   6.961  16.961  0.00  0.00    +0.000 C 
ATOM      2  C   UNL     1       3.692   6.596  18.061  0.00  0.00    +0.000 C 
ATOM      3  C   UNL     1       3.907   5.366  18.916  0.00  0.00    +0.000 C 
ATOM      4  O   UNL     1       4.596   4.391  18.703  0.00  0.00    +0.000 OA
ATOM      5  N   UNL     1       3.112   5.578  20.033  0.00  0.00    +0.000 N 
ATOM      6  C   UNL     1       2.393   6.763  19.940  0.00  0.00    +0.000 A 
ATOM      7  C   UNL     1       1.532   7.289  20.873  0.00  0.00    +0.000 A 
ATOM      8  C   UNL     1       0.918   8.511  20.563  0.00  0.00    +0.000 A 
ATOM      9  C   UNL     1       1.145   9.170  19.326  0.00  0.00    +0.000 A 
ATOM     10  C   UNL     1       2.020   8.595  18.390  0.00  0.00    +0.000 A 
ATOM     11  C   UNL     1       2.665   7.409  18.727  0.00  0.00    +0.000 A 
ATOM     12  H   UNL     1       3.077   4.917  20.800  0.00  0.00    +0.000 HD
ENDROOT
BRANCH   1  18
ATOM     13  C   UNL     1       6.187   3.853  13.697  0.00  0.00    +0.000 C 
ATOM     14  C   UNL     1       6.230   4.762  14.866  0.00  0.00    +0.000 A 
ATOM     15  C   UNL     1       7.252   5.079  15.734  0.00  0.00    +0.000 A 
ATOM     16  C   UNL     1       6.742   5.980  16.713  0.00  0.00    +0.000 A 
ATOM     17  C   UNL     1       7.512   6.549  17.850  0.00  0.00    +0.000 C 
ATOM     18  C   UNL     1       5.408   6.186  16.401  0.00  0.00    +0.000 A 
ATOM     19  N   UNL     1       5.117   5.450  15.280  0.00  0.00    +0.000 N 
ATOM     20  H   UNL     1       4.208   5.396  14.842  0.00  0.00    +0.000 HD
ENDBRANCH   1  18
BRANCH   9  21
ATOM     21  C   UNL     1       0.487  10.507  19.122  0.00  0.00    +0.000 C 
ATOM     22  O   UNL     1      -0.430  10.612  18.315  0.00  0.00    +0.000 OA
ATOM     23  N   UNL     1       0.923  11.585  19.874  0.00  0.00    +0.000 N 
ATOM     24  H   UNL     1       1.732  11.539  20.471  0.00  0.00    +0.000 HD
BRANCH  23  25
ATOM     25  CA  UNL     1       0.200  12.867  19.845  0.00  0.00    +0.000 C 
BRANCH  25  26
ATOM     26  C   UNL     1      -0.699  13.007  21.074  0.00  0.00    +0.000 A 
ATOM     27  C   UNL     1      -0.324  13.719  22.226  0.00  0.00    +0.000 A 
ATOM     28  C   UNL     1      -1.210  13.887  23.296  0.00  0.00    +0.000 A 
ATOM     29  C   UNL     1      -2.489  13.344  23.238  0.00  0.00    +0.000 A 
ATOM     30  C   UNL     1      -2.880  12.625  22.112  0.00  0.00    +0.000 A 
ATOM     31  C   UNL     1      -1.996  12.461  21.041  0.00  0.00    +0.000 A 
ENDBRANCH  25  26
BRANCH  25  32
ATOM     32  C   UNL     1       1.170  14.046  19.569  0.00  0.00    +0.000 C 
BRANCH  32  33
ATOM     33  O   UNL     1       0.488  15.231  19.147  0.00  0.00    +0.000 OA
ATOM     34  H   UNL     1       0.535  15.853  19.892  0.00  0.00    +0.000 HD
ENDBRANCH  32  33
ENDBRANCH  25  32
ENDBRANCH  23  25
ENDBRANCH   9  21
TORSDOF 6
ENDMDL
MODEL 8
REMARK VINA RESULT:      -8.2      2.490      3.841
REMARK  Name = 
REMARK  8 active torsions:
REMARK  status: ('A' for Active; 'I' for Inactive)
REMARK    1  A    between atoms: C_1  and  C_2
REMARK    2  A    between atoms: C_4  and  C_5
REMARK    3  A    between atoms: C_6  and  C_7
REMARK    4  A    between atoms: C_15  and  C_16
REMARK    5  A    between atoms: N_18  and  CA_19
REMARK    6  A    between atoms: CA_19  and  C_20
REMARK    7  A    between atoms: CA_19  and  C_22
REMARK    8  A    between atoms: C_20  and  O_21
REMARK                            x       y       z     vdW  Elec       q    Type
REMARK                         _______ _______ _______ _____ _____    ______ ____
ROOT
ATOM      1  C   UNL     1       4.280   7.115  17.194  0.00  0.00    +0.000 C 
ATOM      2  C   UNL     1       3.590   6.689  18.263  0.00  0.00    +0.000 C 
ATOM      3  C   UNL     1       3.798   5.416  19.054  0.00  0.00    +0.000 C 
ATOM      4  O   UNL     1       4.495   4.457  18.800  0.00  0.00    +0.000 OA
ATOM      5  N   UNL     1       2.986   5.564  20.169  0.00  0.00    +0.000 N 
ATOM      6  C   UNL     1       2.262   6.750  20.127  0.00  0.00    +0.000 A 
ATOM      7  C   UNL     1       1.384   7.221  21.075  0.00  0.00    +0.000 A 
ATOM      8  C   UNL     1       0.769   8.455  20.821  0.00  0.00    +0.000 A 
ATOM      9  C   UNL     1       1.011   9.180  19.624  0.00  0.00    +0.000 A 
ATOM     10  C   UNL     1       1.903   8.660  18.672  0.00  0.00    +0.000 A 
ATOM     11  C   UNL     1       2.549   7.460  18.955  0.00  0.00    +0.000 A 
ATOM     12  H   UNL     1       2.943   4.863  20.898  0.00  0.00    +0.000 HD
ENDROOT
BRANCH   1  18
ATOM     13  C   UNL     1       6.078   3.859  14.065  0.00  0.00    +0.000 C 
ATOM     14  C   UNL     1       6.141   4.879  15.138  0.00  0.00    +0.000 A 
ATOM     15  C   UNL     1       7.203   5.362  15.872  0.00  0.00    +0.000 A 
ATOM     16  C   UNL     1       6.702   6.310  16.810  0.00  0.00    +0.000 A 
ATOM     17  C   UNL     1       7.514   7.048  17.811  0.00  0.00    +0.000 C 
ATOM     18  C   UNL     1       5.332   6.376  16.609  0.00  0.00    +0.000 A 
ATOM     19  N   UNL     1       5.012   5.512  15.592  0.00  0.00    +0.000 N 
ATOM     20  H   UNL     1       4.076   5.342  15.249  0.00  0.00    +0.000 HD
ENDBRANCH   1  18
BRANCH   9  21
ATOM     21  C   UNL     1       0.349  10.524  19.482  0.00  0.00    +0.000 C 
ATOM     22  O   UNL     1      -0.874  10.597  19.485  0.00  0.00    +0.000 OA
ATOM     23  N   UNL     1       1.146  11.651  19.375  0.00  0.00    +0.000 N 
ATOM     24  H   UNL     1       2.147  11.601  19.279  0.00  0.00    +0.000 HD
BRANCH  23  25
ATOM     25  CA  UNL     1       0.557  12.999  19.414  0.00  0.00    +0.000 C 
BRANCH  25  26
ATOM     26  C   UNL     1       1.463  13.962  20.183  0.00  0.00    +0.000 A 
ATOM     27  C   UNL     1       2.637  13.556  20.840  0.00  0.00    +0.000 A 
ATOM     28  C   UNL     1       3.477  14.484  21.464  0.00  0.00    +0.000 A 
ATOM     29  C   UNL     1       3.159  15.838  21.449  0.00  0.00    +0.000 A 
ATOM     30  C   UNL     1       1.995  16.264  20.815  0.00  0.00    +0.000 A 
ATOM     31  C   UNL     1       1.158  15.336  20.187  0.00  0.00    +0.000 A 
ENDBRANCH  25  26
BRANCH  25  32
ATOM     32  C   UNL     1       0.119  13.456  17.998  0.00  0.00    +0.000 C 
BRANCH  32  33
ATOM     33  O   UNL     1      -1.134  12.890  17.601  0.00  0.00    +0.000 OA
ATOM     34  H   UNL     1      -0.938  11.996  17.274  0.00  0.00    +0.000 HD
ENDBRANCH  32  33
ENDBRANCH  25  32
ENDBRANCH  23  25
ENDBRANCH   9  21
TORSDOF 6
ENDMDL
MODEL 9
REMARK VINA RESULT:      -8.2      1.693      3.045
REMARK  Name = 
REMARK  8 active torsions:
REMARK  status: ('A' for Active; 'I' for Inactive)
REMARK    1  A    between atoms: C_1  and  C_2
REMARK    2  A    between atoms: C_4  and  C_5
REMARK    3  A    between atoms: C_6  and  C_7
REMARK    4  A    between atoms: C_15  and  C_16
REMARK    5  A    between atoms: N_18  and  CA_19
REMARK    6  A    between atoms: CA_19  and  C_20
REMARK    7  A    between atoms: CA_19  and  C_22
REMARK    8  A    between atoms: C_20  and  O_21
REMARK                            x       y       z     vdW  Elec       q    Type
REMARK                         _______ _______ _______ _____ _____    ______ ____
ROOT
ATOM      1  C   UNL     1       4.411   6.840  17.073  0.00  0.00    +0.000 C 
ATOM      2  C   UNL     1       3.674   6.380  18.096  0.00  0.00    +0.000 C 
ATOM      3  C   UNL     1       3.788   5.042  18.794  0.00  0.00    +0.000 C 
ATOM      4  O   UNL     1       4.431   4.063  18.481  0.00  0.00    +0.000 OA
ATOM      5  N   UNL     1       2.963   5.159  19.903  0.00  0.00    +0.000 N 
ATOM      6  C   UNL     1       2.313   6.387  19.937  0.00  0.00    +0.000 A 
ATOM      7  C   UNL     1       1.445   6.841  20.902  0.00  0.00    +0.000 A 
ATOM      8  C   UNL     1       0.911   8.125  20.730  0.00  0.00    +0.000 A 
ATOM      9  C   UNL     1       1.221   8.920  19.595  0.00  0.00    +0.000 A 
ATOM     10  C   UNL     1       2.100   8.416  18.622  0.00  0.00    +0.000 A 
ATOM     11  C   UNL     1       2.667   7.162  18.826  0.00  0.00    +0.000 A 
ATOM     12  H   UNL     1       2.862   4.410  20.577  0.00  0.00    +0.000 HD
ENDROOT
BRANCH   1  18
ATOM     13  C   UNL     1       6.119   3.866  13.629  0.00  0.00    +0.000 C 
ATOM     14  C   UNL     1       6.199   4.721  14.836  0.00  0.00    +0.000 A 
ATOM     15  C   UNL     1       7.246   4.990  15.692  0.00  0.00    +0.000 A 
ATOM     16  C   UNL     1       6.769   5.850  16.723  0.00  0.00    +0.000 A 
ATOM     17  C   UNL     1       7.572   6.360  17.864  0.00  0.00    +0.000 C 
ATOM     18  C   UNL     1       5.430   6.082  16.454  0.00  0.00    +0.000 A 
ATOM     19  N   UNL     1       5.104   5.400  15.308  0.00  0.00    +0.000 N 
ATOM     20  H   UNL     1       4.184   5.374  14.891  0.00  0.00    +0.000 HD
ENDBRANCH   1  18
BRANCH   9  21
ATOM     21  C   UNL     1       0.645  10.308  19.542  0.00  0.00    +0.000 C 
ATOM     22  O   UNL     1       1.381  11.257  19.294  0.00  0.00    +0.000 OA
ATOM     23  N   UNL     1      -0.713  10.475  19.751  0.00  0.00    +0.000 N 
ATOM     24  H   UNL     1      -1.313   9.721  20.045  0.00  0.00    +0.000 HD
BRANCH  23  25
ATOM     25  CA  UNL     1      -1.357  11.781  19.536  0.00  0.00    +0.000 C 
BRANCH  25  26
ATOM     26  C   UNL     1      -1.236  12.654  20.785  0.00  0.00    +0.000 A 
ATOM     27  C   UNL     1      -1.673  12.244  22.056  0.00  0.00    +0.000 A 
ATOM     28  C   UNL     1      -1.471  13.045  23.186  0.00  0.00    +0.000 A 
ATOM     29  C   UNL     1      -0.832  14.275  23.068  0.00  0.00    +0.000 A 
ATOM     30  C   UNL     1      -0.400  14.708  21.817  0.00  0.00    +0.000 A 
ATOM     31  C   UNL     1      -0.598  13.905  20.689  0.00  0.00    +0.000 A 
ENDBRANCH  25  26
BRANCH  25  32
ATOM     32  C   UNL     1      -0.882  12.421  18.205  0.00  0.00    +0.000 C 
BRANCH  32  33
ATOM     33  O   UNL     1      -1.808  12.212  17.134  0.00  0.00    +0.000 OA
ATOM     34  H   UNL     1      -2.429  12.959  17.160  0.00  0.00    +0.000 HD
ENDBRANCH  32  33
ENDBRANCH  25  32
ENDBRANCH  23  25
ENDBRANCH   9  21
TORSDOF 6
ENDMDL
