MODEL 1
REMARK VINA RESULT:      -8.7      0.000      0.000
REMARK  Name = 
REMARK  6 active torsions:
REMARK  status: ('A' for Active; 'I' for Inactive)
REMARK    1  A    between atoms: C_1  and  C_2
REMARK    2  A    between atoms: C_5  and  C_6
REMARK    3  A    between atoms: N_8  and  C_9
REMARK    4  A    between atoms: C_16  and  S_17
REMARK    5  A    between atoms: S_17  and  N_20
REMARK    6  A    between atoms: N_20  and  C_21
REMARK                            x       y       z     vdW  Elec       q    Type
REMARK                         _______ _______ _______ _____ _____    ______ ____
ROOT
ATOM      1  C   UNL     1       5.232   6.208  15.685  0.00  0.00    +0.000 C 
ATOM      2  C   UNL     1       4.390   6.503  16.894  0.00  0.00    +0.000 A 
ATOM      3  C   UNL     1       3.617   7.673  16.857  0.00  0.00    +0.000 A 
ATOM      4  C   UNL     1       2.818   8.038  17.936  0.00  0.00    +0.000 A 
ATOM      5  C   UNL     1       2.756   7.253  19.096  0.00  0.00    +0.000 A 
ATOM      6  C   UNL     1       3.518   6.083  19.152  0.00  0.00    +0.000 A 
ATOM      7  C   UNL     1       4.329   5.704  18.056  0.00  0.00    +0.000 A 
ENDROOT
BRANCH   5   8
ATOM      8  C   UNL     1       1.846   7.743  20.178  0.00  0.00    +0.000 C 
ATOM      9  O   UNL     1       1.461   6.901  20.989  0.00  0.00    +0.000 OA
ATOM     10  N   UNL     1       1.467   9.075  20.179  0.00  0.00    +0.000 N 
ATOM     11  H   UNL     1       1.687   9.648  19.376  0.00  0.00    +0.000 HD
BRANCH  10  12
ATOM     12  C   UNL     1       0.620   9.669  21.150  0.00  0.00    +0.000 A 
ATOM     13  C   UNL     1       0.552   9.230  22.476  0.00  0.00    +0.000 A 
ATOM     14  C   UNL     1      -0.346   9.800  23.380  0.00  0.00    +0.000 A 
ATOM     15  C   UNL     1      -1.179  10.834  22.971  0.00  0.00    +0.000 A 
ATOM     16  C   UNL     1      -1.095  11.311  21.664  0.00  0.00    +0.000 A 
ATOM     17  C   UNL     1      -0.192  10.739  20.759  0.00  0.00    +0.000 A 
ENDBRANCH  10  12
ENDBRANCH   5   8
BRANCH   7  18
ATOM     18  S   UNL     1       5.333   4.227  18.279  0.00  0.00    +0.000 S 
ATOM     19  O   UNL     1       6.204   4.078  17.131  0.00  0.00    +0.000 OA
ATOM     20  O   UNL     1       5.882   4.286  19.616  0.00  0.00    +0.000 OA
BRANCH  18  21
ATOM     21  N   UNL     1       4.229   2.958  18.200  0.00  0.00    +0.000 N 
ATOM     22  H   UNL     1       4.050   2.631  17.253  0.00  0.00    +0.000 HD
BRANCH  21  23
ATOM     23  C   UNL     1       3.183   2.870  19.152  0.00  0.00    +0.000 A 
ATOM     24  C   UNL     1       1.861   2.981  18.727  0.00  0.00    +0.000 A 
ATOM     25  C   UNL     1       0.824   2.934  19.658  0.00  0.00    +0.000 A 
ATOM     26  C   UNL     1       1.110   2.758  21.012  0.00  0.00    +0.000 A 
ATOM     27  C   UNL     1       2.434   2.641  21.436  0.00  0.00    +0.000 A 
ATOM     28  C   UNL     1       3.473   2.710  20.507  0.00  0.00    +0.000 A 
ENDBRANCH  21  23
ENDBRANCH  18  21
ENDBRANCH   7  18
TORSDOF 5
ENDMDL
MODEL 2
REMARK VINA RESULT:      -8.6      0.759      1.061
REMARK  Name = 
REMARK  6 active torsions:
REMARK  status: ('A' for Active; 'I' for Inactive)
REMARK    1  A    between atoms: C_1  and  C_2
REMARK    2  A    between atoms: C_5  and  C_6
REMARK    3  A    between atoms: N_8  and  C_9
REMARK    4  A    between atoms: C_16  and  S_17
REMARK    5  A    between atoms: S_17  and  N_20
REMARK    6  A    between atoms: N_20  and  C_21
REMARK                            x       y       z     vdW  Elec       q    Type
REMARK                         _______ _______ _______ _____ _____    ______ ____
ROOT
ATOM      1  C   UNL     1       5.355   5.905  15.862  0.00  0.00    +0.000 C 
ATOM      2  C   UNL     1       4.525   6.271  17.059  0.00  0.00    +0.000 A 
ATOM      3  C   UNL     1       3.462   7.161  16.845  0.00  0.00    +0.000 A 
ATOM      4  C   UNL     1       2.648   7.571  17.896  0.00  0.00    +0.000 A 
ATOM      5  C   UNL     1       2.859   7.112  19.205  0.00  0.00    +0.000 A 
ATOM      6  C   UNL     1       3.912   6.224  19.438  0.00  0.00    +0.000 A 
ATOM      7  C   UNL     1       4.741   5.800  18.372  0.00  0.00    +0.000 A 
ENDROOT
BRANCH   5   8
ATOM      8  C   UNL     1       1.905   7.611  20.243  0.00  0.00    +0.000 C 
ATOM      9  O   UNL     1       1.404   6.760  20.978  0.00  0.00    +0.000 OA
ATOM     10  N   UNL     1       1.615   8.965  20.287  0.00  0.00    +0.000 N 
ATOM     11  H   UNL     1       1.932   9.559  19.534  0.00  0.00    +0.000 HD
BRANCH  10  12
ATOM     12  C   UNL     1       0.739   9.569  21.225  0.00  0.00    +0.000 A 
ATOM     13  C   UNL     1       0.634   9.148  22.555  0.00  0.00    +0.000 A 
ATOM     14  C   UNL     1      -0.292   9.728  23.425  0.00  0.00    +0.000 A 
ATOM     15  C   UNL     1      -1.117  10.751  22.977  0.00  0.00    +0.000 A 
ATOM     16  C   UNL     1      -0.997  11.210  21.667  0.00  0.00    +0.000 A 
ATOM     17  C   UNL     1      -0.066  10.629  20.796  0.00  0.00    +0.000 A 
ENDBRANCH  10  12
ENDBRANCH   5   8
BRANCH   7  18
ATOM     18  S   UNL     1       6.119   4.728  18.810  0.00  0.00    +0.000 S 
ATOM     19  O   UNL     1       6.798   4.323  17.597  0.00  0.00    +0.000 OA
ATOM     20  O   UNL     1       6.845   5.385  19.876  0.00  0.00    +0.000 OA
BRANCH  18  21
ATOM     21  N   UNL     1       5.388   3.341  19.426  0.00  0.00    +0.000 N 
ATOM     22  H   UNL     1       6.022   2.550  19.515  0.00  0.00    +0.000 HD
BRANCH  21  23
ATOM     23  C   UNL     1       4.021   3.082  19.154  0.00  0.00    +0.000 A 
ATOM     24  C   UNL     1       3.628   2.794  17.848  0.00  0.00    +0.000 A 
ATOM     25  C   UNL     1       2.281   2.575  17.560  0.00  0.00    +0.000 A 
ATOM     26  C   UNL     1       1.331   2.626  18.581  0.00  0.00    +0.000 A 
ATOM     27  C   UNL     1       1.727   2.908  19.889  0.00  0.00    +0.000 A 
ATOM     28  C   UNL     1       3.073   3.150  20.174  0.00  0.00    +0.000 A 
ENDBRANCH  21  23
ENDBRANCH  18  21
ENDBRANCH   7  18
TORSDOF 5
ENDMDL
MODEL 3
REMARK VINA RESULT:      -8.5      0.450      1.398
REMARK  Name = 
REMARK  6 active torsions:
REMARK  status: ('A' for Active; 'I' for Inactive)
REMARK    1  A    between atoms: C_1  and  C_2
REMARK    2  A    between atoms: C_5  and  C_6
REMARK    3  A    between atoms: N_8  and  C_9
REMARK    4  A    between atoms: C_16  and  S_17
REMARK    5  A    between atoms: S_17  and  N_20
REMARK    6  A    between atoms: N_20  and  C_21
REMARK                            x       y       z     vdW  Elec       q    Type
REMARK                         _______ _______ _______ _____ _____    ______ ____
ROOT
ATOM      1  C   UNL     1       5.252   6.138  15.747  0.00  0.00    +0.000 C 
ATOM      2  C   UNL     1       4.418   6.483  16.948  0.00  0.00    +0.000 A 
ATOM      3  C   UNL     1       3.511   7.543  16.805  0.00  0.00    +0.000 A 
ATOM      4  C   UNL     1       2.707   7.946  17.868  0.00  0.00    +0.000 A 
ATOM      5  C   UNL     1       2.775   7.310  19.116  0.00  0.00    +0.000 A 
ATOM      6  C   UNL     1       3.672   6.251  19.277  0.00  0.00    +0.000 A 
ATOM      7  C   UNL     1       4.488   5.834  18.199  0.00  0.00    +0.000 A 
ENDROOT
BRANCH   5   8
ATOM      8  C   UNL     1       1.847   7.823  20.171  0.00  0.00    +0.000 C 
ATOM      9  O   UNL     1       1.517   7.022  21.044  0.00  0.00    +0.000 OA
ATOM     10  N   UNL     1       1.390   9.128  20.081  0.00  0.00    +0.000 N 
ATOM     11  H   UNL     1       1.570   9.653  19.237  0.00  0.00    +0.000 HD
BRANCH  10  12
ATOM     12  C   UNL     1       0.519   9.741  21.017  0.00  0.00    +0.000 A 
ATOM     13  C   UNL     1       0.009  11.034  20.856  0.00  0.00    +0.000 A 
ATOM     14  C   UNL     1      -0.792  11.622  21.836  0.00  0.00    +0.000 A 
ATOM     15  C   UNL     1      -1.108  10.914  22.989  0.00  0.00    +0.000 A 
ATOM     16  C   UNL     1      -0.643   9.610  23.147  0.00  0.00    +0.000 A 
ATOM     17  C   UNL     1       0.159   9.020  22.161  0.00  0.00    +0.000 A 
ENDBRANCH  10  12
ENDBRANCH   5   8
BRANCH   7  18
ATOM     18  S   UNL     1       5.668   4.521  18.553  0.00  0.00    +0.000 S 
ATOM     19  O   UNL     1       6.695   4.529  17.532  0.00  0.00    +0.000 OA
ATOM     20  O   UNL     1       6.021   4.634  19.952  0.00  0.00    +0.000 OA
BRANCH  18  21
ATOM     21  N   UNL     1       4.791   3.102  18.326  0.00  0.00    +0.000 N 
ATOM     22  H   UNL     1       5.013   2.619  17.458  0.00  0.00    +0.000 HD
BRANCH  21  23
ATOM     23  C   UNL     1       3.474   2.994  18.840  0.00  0.00    +0.000 A 
ATOM     24  C   UNL     1       3.288   2.828  20.212  0.00  0.00    +0.000 A 
ATOM     25  C   UNL     1       2.000   2.682  20.726  0.00  0.00    +0.000 A 
ATOM     26  C   UNL     1       0.899   2.720  19.871  0.00  0.00    +0.000 A 
ATOM     27  C   UNL     1       1.086   2.892  18.499  0.00  0.00    +0.000 A 
ATOM     28  C   UNL     1       2.376   3.016  17.981  0.00  0.00    +0.000 A 
ENDBRANCH  21  23
ENDBRANCH  18  21
ENDBRANCH   7  18
TORSDOF 5
ENDMDL
MODEL 4
REMARK VINA RESULT:      -8.5      2.602      4.548
REMARK  Name = 
REMARK  6 active torsions:
REMARK  status: ('A' for Active; 'I' for Inactive)
REMARK    1  A    between atoms: C_1  and  C_2
REMARK    2  A    between atoms: C_5  and  C_6
REMARK    3  A    between atoms: N_8  and  C_9
REMARK    4  A    between atoms: C_16  and  S_17
REMARK    5  A    between atoms: S_17  and  N_20
REMARK    6  A    between atoms: N_20  and  C_21
REMARK                            x       y       z     vdW  Elec       q    Type
REMARK                         _______ _______ _______ _____ _____    ______ ____
ROOT
ATOM      1  C   UNL     1       4.153   3.267  19.856  0.00  0.00    +0.000 C 
ATOM      2  C   UNL     1       3.670   4.584  19.319  0.00  0.00    +0.000 A 
ATOM      3  C   UNL     1       2.937   5.396  20.197  0.00  0.00    +0.000 A 
ATOM      4  C   UNL     1       2.435   6.626  19.784  0.00  0.00    +0.000 A 
ATOM      5  C   UNL     1       2.642   7.098  18.479  0.00  0.00    +0.000 A 
ATOM      6  C   UNL     1       3.371   6.304  17.590  0.00  0.00    +0.000 A 
ATOM      7  C   UNL     1       3.888   5.054  18.006  0.00  0.00    +0.000 A 
ENDROOT
BRANCH   5   8
ATOM      8  C   UNL     1       2.068   8.443  18.164  0.00  0.00    +0.000 C 
ATOM      9  O   UNL     1       2.457   8.972  17.123  0.00  0.00    +0.000 OA
ATOM     10  N   UNL     1       1.185   9.019  19.062  0.00  0.00    +0.000 N 
ATOM     11  H   UNL     1       1.062   8.594  19.970  0.00  0.00    +0.000 HD
BRANCH  10  12
ATOM     12  C   UNL     1       0.562  10.280  18.880  0.00  0.00    +0.000 A 
ATOM     13  C   UNL     1      -0.765  10.425  18.459  0.00  0.00    +0.000 A 
ATOM     14  C   UNL     1      -1.315  11.686  18.228  0.00  0.00    +0.000 A 
ATOM     15  C   UNL     1      -0.546  12.826  18.431  0.00  0.00    +0.000 A 
ATOM     16  C   UNL     1       0.764  12.701  18.889  0.00  0.00    +0.000 A 
ATOM     17  C   UNL     1       1.314  11.434  19.123  0.00  0.00    +0.000 A 
ENDBRANCH  10  12
ENDBRANCH   5   8
BRANCH   7  18
ATOM     18  S   UNL     1       4.731   4.081  16.748  0.00  0.00    +0.000 S 
ATOM     19  O   UNL     1       4.251   2.716  16.814  0.00  0.00    +0.000 OA
ATOM     20  O   UNL     1       4.654   4.828  15.511  0.00  0.00    +0.000 OA
BRANCH  18  21
ATOM     21  N   UNL     1       6.335   4.040  17.260  0.00  0.00    +0.000 N 
ATOM     22  H   UNL     1       6.594   3.173  17.726  0.00  0.00    +0.000 HD
BRANCH  21  23
ATOM     23  C   UNL     1       6.982   5.238  17.657  0.00  0.00    +0.000 A 
ATOM     24  C   UNL     1       7.598   5.299  18.906  0.00  0.00    +0.000 A 
ATOM     25  C   UNL     1       8.204   6.483  19.324  0.00  0.00    +0.000 A 
ATOM     26  C   UNL     1       8.209   7.599  18.488  0.00  0.00    +0.000 A 
ATOM     27  C   UNL     1       7.597   7.534  17.235  0.00  0.00    +0.000 A 
ATOM     28  C   UNL     1       6.971   6.356  16.824  0.00  0.00    +0.000 A 
ENDBRANCH  21  23
ENDBRANCH  18  21
ENDBRANCH   7  18
TORSDOF 5
ENDMDL
MODEL 5
REMARK VINA RESULT:      -8.4      2.487      4.924
REMARK  Name = 
REMARK  6 active torsions:
REMARK  status: ('A' for Active; 'I' for Inactive)
REMARK    1  A    between atoms: C_1  and  C_2
REMARK    2  A    between atoms: C_5  and  C_6
REMARK    3  A    between atoms: N_8  and  C_9
REMARK    4  A    between atoms: C_16  and  S_17
REMARK    5  A    between atoms: S_17  and  N_20
REMARK    6  A    between atoms: N_20  and  C_21
REMARK                            x       y       z     vdW  Elec       q    Type
REMARK                         _______ _______ _______ _____ _____    ______ ____
ROOT
ATOM      1  C   UNL     1       4.075   3.224  19.899  0.00  0.00    +0.000 C 
ATOM      2  C   UNL     1       3.644   4.567  19.382  0.00  0.00    +0.000 A 
ATOM      3  C   UNL     1       2.693   5.264  20.143  0.00  0.00    +0.000 A 
ATOM      4  C   UNL     1       2.222   6.508  19.736  0.00  0.00    +0.000 A 
ATOM      5  C   UNL     1       2.677   7.108  18.553  0.00  0.00    +0.000 A 
ATOM      6  C   UNL     1       3.624   6.431  17.782  0.00  0.00    +0.000 A 
ATOM      7  C   UNL     1       4.111   5.168  18.193  0.00  0.00    +0.000 A 
ENDROOT
BRANCH   5   8
ATOM      8  C   UNL     1       2.107   8.455  18.234  0.00  0.00    +0.000 C 
ATOM      9  O   UNL     1       2.438   8.945  17.155  0.00  0.00    +0.000 OA
ATOM     10  N   UNL     1       1.293   9.074  19.168  0.00  0.00    +0.000 N 
ATOM     11  H   UNL     1       1.221   8.677  20.095  0.00  0.00    +0.000 HD
BRANCH  10  12
ATOM     12  C   UNL     1       0.682  10.340  18.988  0.00  0.00    +0.000 A 
ATOM     13  C   UNL     1       1.402  11.540  18.955  0.00  0.00    +0.000 A 
ATOM     14  C   UNL     1       0.751  12.770  18.843  0.00  0.00    +0.000 A 
ATOM     15  C   UNL     1      -0.634  12.815  18.746  0.00  0.00    +0.000 A 
ATOM     16  C   UNL     1      -1.364  11.628  18.735  0.00  0.00    +0.000 A 
ATOM     17  C   UNL     1      -0.709  10.394  18.845  0.00  0.00    +0.000 A 
ENDBRANCH  10  12
ENDBRANCH   5   8
BRANCH   7  18
ATOM     18  S   UNL     1       5.259   4.351  17.073  0.00  0.00    +0.000 S 
ATOM     19  O   UNL     1       6.595   4.444  17.624  0.00  0.00    +0.000 OA
ATOM     20  O   UNL     1       4.687   3.063  16.745  0.00  0.00    +0.000 OA
BRANCH  18  21
ATOM     21  N   UNL     1       5.251   5.317  15.693  0.00  0.00    +0.000 N 
ATOM     22  H   UNL     1       4.426   5.907  15.613  0.00  0.00    +0.000 HD
BRANCH  21  23
ATOM     23  C   UNL     1       5.869   4.856  14.504  0.00  0.00    +0.000 A 
ATOM     24  C   UNL     1       5.192   3.951  13.689  0.00  0.00    +0.000 A 
ATOM     25  C   UNL     1       5.805   3.461  12.536  0.00  0.00    +0.000 A 
ATOM     26  C   UNL     1       7.086   3.890  12.189  0.00  0.00    +0.000 A 
ATOM     27  C   UNL     1       7.760   4.801  13.003  0.00  0.00    +0.000 A 
ATOM     28  C   UNL     1       7.157   5.275  14.169  0.00  0.00    +0.000 A 
ENDBRANCH  21  23
ENDBRANCH  18  21
ENDBRANCH   7  18
TORSDOF 5
ENDMDL
MODEL 6
REMARK VINA RESULT:      -8.4      2.544      4.369
REMARK  Name = 
REMARK  6 active torsions:
REMARK  status: ('A' for Active; 'I' for Inactive)
REMARK    1  A    between atoms: C_1  and  C_2
REMARK    2  A    between atoms: C_5  and  C_6
REMARK    3  A    between atoms: N_8  and  C_9
REMARK    4  A    between atoms: C_16  and  S_17
REMARK    5  A    between atoms: S_17  and  N_20
REMARK    6  A    between atoms: N_20  and  C_21
REMARK                            x       y       z     vdW  Elec       q    Type
REMARK                         _______ _______ _______ _____ _____    ______ ____
ROOT
ATOM      1  C   UNL     1       2.602   3.045  20.921  0.00  0.00    +0.000 C 
ATOM      2  C   UNL     1       2.453   4.350  20.192  0.00  0.00    +0.000 A 
ATOM      3  C   UNL     1       2.195   5.486  20.974  0.00  0.00    +0.000 A 
ATOM      4  C   UNL     1       2.026   6.736  20.387  0.00  0.00    +0.000 A 
ATOM      5  C   UNL     1       2.106   6.907  18.998  0.00  0.00    +0.000 A 
ATOM      6  C   UNL     1       2.364   5.788  18.202  0.00  0.00    +0.000 A 
ATOM      7  C   UNL     1       2.541   4.514  18.793  0.00  0.00    +0.000 A 
ENDROOT
BRANCH   5   8
ATOM      8  C   UNL     1       1.924   8.303  18.491  0.00  0.00    +0.000 C 
ATOM      9  O   UNL     1       2.453   8.564  17.411  0.00  0.00    +0.000 OA
ATOM     10  N   UNL     1       1.224   9.210  19.270  0.00  0.00    +0.000 N 
ATOM     11  H   UNL     1       0.982   8.958  20.218  0.00  0.00    +0.000 HD
BRANCH  10  12
ATOM     12  C   UNL     1       0.972  10.556  18.904  0.00  0.00    +0.000 A 
ATOM     13  C   UNL     1       1.988  11.477  18.626  0.00  0.00    +0.000 A 
ATOM     14  C   UNL     1       1.695  12.811  18.336  0.00  0.00    +0.000 A 
ATOM     15  C   UNL     1       0.373  13.238  18.304  0.00  0.00    +0.000 A 
ATOM     16  C   UNL     1      -0.653  12.325  18.538  0.00  0.00    +0.000 A 
ATOM     17  C   UNL     1      -0.357  10.987  18.827  0.00  0.00    +0.000 A 
ENDBRANCH  10  12
ENDBRANCH   5   8
BRANCH   7  18
ATOM     18  S   UNL     1       2.777   3.135  17.662  0.00  0.00    +0.000 S 
ATOM     19  O   UNL     1       2.334   1.918  18.310  0.00  0.00    +0.000 OA
ATOM     20  O   UNL     1       2.220   3.533  16.386  0.00  0.00    +0.000 OA
BRANCH  18  21
ATOM     21  N   UNL     1       4.449   3.004  17.508  0.00  0.00    +0.000 N 
ATOM     22  H   UNL     1       4.832   2.159  17.927  0.00  0.00    +0.000 HD
BRANCH  21  23
ATOM     23  C   UNL     1       5.251   4.172  17.491  0.00  0.00    +0.000 A 
ATOM     24  C   UNL     1       5.854   4.604  18.671  0.00  0.00    +0.000 A 
ATOM     25  C   UNL     1       6.614   5.773  18.676  0.00  0.00    +0.000 A 
ATOM     26  C   UNL     1       6.787   6.499  17.497  0.00  0.00    +0.000 A 
ATOM     27  C   UNL     1       6.188   6.062  16.315  0.00  0.00    +0.000 A 
ATOM     28  C   UNL     1       5.408   4.904  16.314  0.00  0.00    +0.000 A 
ENDBRANCH  21  23
ENDBRANCH  18  21
ENDBRANCH   7  18
TORSDOF 5
ENDMDL
MODEL 7
REMARK VINA RESULT:      -8.4      2.556      4.824
REMARK  Name = 
REMARK  6 active torsions:
REMARK  status: ('A' for Active; 'I' for Inactive)
REMARK    1  A    between atoms: C_1  and  C_2
REMARK    2  A    between atoms: C_5  and  C_6
REMARK    3  A    between atoms: N_8  and  C_9
REMARK    4  A    between atoms: C_16  and  S_17
REMARK    5  A    between atoms: S_17  and  N_20
REMARK    6  A    between atoms: N_20  and  C_21
REMARK                            x       y       z     vdW  Elec       q    Type
REMARK                         _______ _______ _______ _____ _____    ______ ____
ROOT
ATOM      1  C   UNL     1       4.904   3.947  18.709  0.00  0.00    +0.000 C 
ATOM      2  C   UNL     1       4.162   5.247  18.576  0.00  0.00    +0.000 A 
ATOM      3  C   UNL     1       3.121   5.477  19.487  0.00  0.00    +0.000 A 
ATOM      4  C   UNL     1       2.367   6.645  19.432  0.00  0.00    +0.000 A 
ATOM      5  C   UNL     1       2.618   7.631  18.467  0.00  0.00    +0.000 A 
ATOM      6  C   UNL     1       3.651   7.420  17.551  0.00  0.00    +0.000 A 
ATOM      7  C   UNL     1       4.425   6.237  17.605  0.00  0.00    +0.000 A 
ENDROOT
BRANCH   5   8
ATOM      8  C   UNL     1       1.750   8.848  18.524  0.00  0.00    +0.000 C 
ATOM      9  O   UNL     1       1.744   9.561  17.521  0.00  0.00    +0.000 OA
ATOM     10  N   UNL     1       1.054   9.118  19.691  0.00  0.00    +0.000 N 
ATOM     11  H   UNL     1       1.259   8.577  20.520  0.00  0.00    +0.000 HD
BRANCH  10  12
ATOM     12  C   UNL     1       0.191  10.228  19.874  0.00  0.00    +0.000 A 
ATOM     13  C   UNL     1      -1.034  10.363  19.210  0.00  0.00    +0.000 A 
ATOM     14  C   UNL     1      -1.819  11.506  19.369  0.00  0.00    +0.000 A 
ATOM     15  C   UNL     1      -1.395  12.526  20.211  0.00  0.00    +0.000 A 
ATOM     16  C   UNL     1      -0.198  12.390  20.911  0.00  0.00    +0.000 A 
ATOM     17  C   UNL     1       0.588  11.242  20.752  0.00  0.00    +0.000 A 
ENDBRANCH  10  12
ENDBRANCH   5   8
BRANCH   7  18
ATOM     18  S   UNL     1       5.668   6.036  16.318  0.00  0.00    +0.000 S 
ATOM     19  O   UNL     1       5.439   7.029  15.290  0.00  0.00    +0.000 OA
ATOM     20  O   UNL     1       6.952   5.944  16.979  0.00  0.00    +0.000 OA
BRANCH  18  21
ATOM     21  N   UNL     1       5.307   4.546  15.621  0.00  0.00    +0.000 N 
ATOM     22  H   UNL     1       5.221   3.789  16.297  0.00  0.00    +0.000 HD
BRANCH  21  23
ATOM     23  C   UNL     1       5.783   4.239  14.322  0.00  0.00    +0.000 A 
ATOM     24  C   UNL     1       7.061   4.650  13.948  0.00  0.00    +0.000 A 
ATOM     25  C   UNL     1       7.526   4.388  12.660  0.00  0.00    +0.000 A 
ATOM     26  C   UNL     1       6.721   3.699  11.753  0.00  0.00    +0.000 A 
ATOM     27  C   UNL     1       5.445   3.282  12.131  0.00  0.00    +0.000 A 
ATOM     28  C   UNL     1       4.969   3.564  13.413  0.00  0.00    +0.000 A 
ENDBRANCH  21  23
ENDBRANCH  18  21
ENDBRANCH   7  18
TORSDOF 5
ENDMDL
MODEL 8
REMARK VINA RESULT:      -8.3      2.607      4.844
REMARK  Name = 
REMARK  6 active torsions:
REMARK  status: ('A' for Active; 'I' for Inactive)
REMARK    1  A    between atoms: C_1  and  C_2
REMARK    2  A    between atoms: C_5  and  C_6
REMARK    3  A    between atoms: N_8  and  C_9
REMARK    4  A    between atoms: C_16  and  S_17
REMARK    5  A    between atoms: S_17  and  N_20
REMARK    6  A    between atoms: N_20  and  C_21
REMARK                            x       y       z     vdW  Elec       q    Type
REMARK                         _______ _______ _______ _____ _____    ______ ____
ROOT
ATOM      1  C   UNL     1       4.764   4.031  18.855  0.00  0.00    +0.000 C 
ATOM      2  C   UNL     1       4.062   5.343  18.648  0.00  0.00    +0.000 A 
ATOM      3  C   UNL     1       2.977   5.621  19.492  0.00  0.00    +0.000 A 
ATOM      4  C   UNL     1       2.255   6.803  19.365  0.00  0.00    +0.000 A 
ATOM      5  C   UNL     1       2.583   7.757  18.391  0.00  0.00    +0.000 A 
ATOM      6  C   UNL     1       3.661   7.499  17.541  0.00  0.00    +0.000 A 
ATOM      7  C   UNL     1       4.402   6.301  17.668  0.00  0.00    +0.000 A 
ENDROOT
BRANCH   5   8
ATOM      8  C   UNL     1       1.743   8.994  18.368  0.00  0.00    +0.000 C 
ATOM      9  O   UNL     1       2.049   9.847  17.536  0.00  0.00    +0.000 OA
ATOM     10  N   UNL     1       0.718   9.123  19.292  0.00  0.00    +0.000 N 
ATOM     11  H   UNL     1       0.655   8.457  20.049  0.00  0.00    +0.000 HD
BRANCH  10  12
ATOM     12  C   UNL     1      -0.156  10.236  19.372  0.00  0.00    +0.000 A 
ATOM     13  C   UNL     1       0.072  11.331  20.213  0.00  0.00    +0.000 A 
ATOM     14  C   UNL     1      -0.852  12.373  20.309  0.00  0.00    +0.000 A 
ATOM     15  C   UNL     1      -2.013  12.341  19.548  0.00  0.00    +0.000 A 
ATOM     16  C   UNL     1      -2.237  11.279  18.674  0.00  0.00    +0.000 A 
ATOM     17  C   UNL     1      -1.308  10.235  18.578  0.00  0.00    +0.000 A 
ENDBRANCH  10  12
ENDBRANCH   5   8
BRANCH   7  18
ATOM     18  S   UNL     1       5.710   6.038  16.459  0.00  0.00    +0.000 S 
ATOM     19  O   UNL     1       5.614   7.061  15.439  0.00  0.00    +0.000 OA
ATOM     20  O   UNL     1       6.939   5.849  17.198  0.00  0.00    +0.000 OA
BRANCH  18  21
ATOM     21  N   UNL     1       5.298   4.587  15.710  0.00  0.00    +0.000 N 
ATOM     22  H   UNL     1       5.155   3.817  16.361  0.00  0.00    +0.000 HD
BRANCH  21  23
ATOM     23  C   UNL     1       5.795   4.292  14.416  0.00  0.00    +0.000 A 
ATOM     24  C   UNL     1       7.065   4.738  14.055  0.00  0.00    +0.000 A 
ATOM     25  C   UNL     1       7.551   4.488  12.772  0.00  0.00    +0.000 A 
ATOM     26  C   UNL     1       6.775   3.777  11.858  0.00  0.00    +0.000 A 
ATOM     27  C   UNL     1       5.506   3.325  12.222  0.00  0.00    +0.000 A 
ATOM     28  C   UNL     1       5.009   3.595  13.499  0.00  0.00    +0.000 A 
ENDBRANCH  21  23
ENDBRANCH  18  21
ENDBRANCH   7  18
TORSDOF 5
ENDMDL
MODEL 9
REMARK VINA RESULT:      -8.2      2.547      4.919
REMARK  Name = 
REMARK  6 active torsions:
REMARK  status: ('A' for Active; 'I' for Inactive)
REMARK    1  A    between atoms: C_1  and  C_2
REMARK    2  A    between atoms: C_5  and  C_6
REMARK    3  A    between atoms: N_8  and  C_9
REMARK    4  A    between atoms: C_16  and  S_17
REMARK    5  A    between atoms: S_17  and  N_20
REMARK    6  A    between atoms: N_20  and  C_21
REMARK                            x       y       z     vdW  Elec       q    Type
REMARK                         _______ _______ _______ _____ _____    ______ ____
ROOT
ATOM      1  C   UNL     1       4.634   3.459  19.046  0.00  0.00    +0.000 C 
ATOM      2  C   UNL     1       4.063   4.817  18.750  0.00  0.00    +0.000 A 
ATOM      3  C   UNL     1       2.878   5.164  19.415  0.00  0.00    +0.000 A 
ATOM      4  C   UNL     1       2.266   6.394  19.193  0.00  0.00    +0.000 A 
ATOM      5  C   UNL     1       2.810   7.328  18.299  0.00  0.00    +0.000 A 
ATOM      6  C   UNL     1       3.990   7.001  17.629  0.00  0.00    +0.000 A 
ATOM      7  C   UNL     1       4.620   5.754  17.854  0.00  0.00    +0.000 A 
ENDROOT
BRANCH   5   8
ATOM      8  C   UNL     1       2.068   8.620  18.162  0.00  0.00    +0.000 C 
ATOM      9  O   UNL     1       2.217   9.225  17.100  0.00  0.00    +0.000 OA
ATOM     10  N   UNL     1       1.308   9.071  19.229  0.00  0.00    +0.000 N 
ATOM     11  H   UNL     1       1.387   8.601  20.120  0.00  0.00    +0.000 HD
BRANCH  10  12
ATOM     12  C   UNL     1       0.550  10.269  19.226  0.00  0.00    +0.000 A 
ATOM     13  C   UNL     1      -0.744  10.355  18.701  0.00  0.00    +0.000 A 
ATOM     14  C   UNL     1      -1.426  11.572  18.658  0.00  0.00    +0.000 A 
ATOM     15  C   UNL     1      -0.826  12.721  19.158  0.00  0.00    +0.000 A 
ATOM     16  C   UNL     1       0.446  12.646  19.722  0.00  0.00    +0.000 A 
ATOM     17  C   UNL     1       1.129  11.423  19.766  0.00  0.00    +0.000 A 
ENDBRANCH  10  12
ENDBRANCH   5   8
BRANCH   7  18
ATOM     18  S   UNL     1       6.085   5.409  16.866  0.00  0.00    +0.000 S 
ATOM     19  O   UNL     1       6.435   6.599  16.120  0.00  0.00    +0.000 OA
ATOM     20  O   UNL     1       7.049   4.779  17.742  0.00  0.00    +0.000 OA
BRANCH  18  21
ATOM     21  N   UNL     1       5.563   4.279  15.731  0.00  0.00    +0.000 N 
ATOM     22  H   UNL     1       5.289   3.388  16.138  0.00  0.00    +0.000 HD
BRANCH  21  23
ATOM     23  C   UNL     1       6.113   4.283  14.424  0.00  0.00    +0.000 A 
ATOM     24  C   UNL     1       5.603   3.408  13.466  0.00  0.00    +0.000 A 
ATOM     25  C   UNL     1       6.161   3.375  12.189  0.00  0.00    +0.000 A 
ATOM     26  C   UNL     1       7.215   4.228  11.864  0.00  0.00    +0.000 A 
ATOM     27  C   UNL     1       7.721   5.108  12.822  0.00  0.00    +0.000 A 
ATOM     28  C   UNL     1       7.178   5.126  14.109  0.00  0.00    +0.000 A 
ENDBRANCH  21  23
ENDBRANCH  18  21
ENDBRANCH   7  18
TORSDOF 5
ENDMDL
