MODEL 1
REMARK VINA RESULT:      -7.3      0.000      0.000
REMARK  Name = 
REMARK  16 active torsions:
REMARK  status: ('A' for Active; 'I' for Inactive)
REMARK    1  A    between atoms: C_1  and  C_2
REMARK    2  A    between atoms: C_2  and  O_3
REMARK    3  A    between atoms: O_3  and  C_4
REMARK    4  A    between atoms: C_4  and  C_6
REMARK    5  A    between atoms: C_6  and  C_24
REMARK    6  A    between atoms: N_7  and  N_8
REMARK    7  A    between atoms: N_8  and  C_9
REMARK    8  A    between atoms: C_11  and  C_12
REMARK    9  A    between atoms: C_12  and  O_14
REMARK   10  A    between atoms: O_14  and  C_15
REMARK   11  A    between atoms: C_16  and  C_17
REMARK   12  A    between atoms: C_18  and  C_19
REMARK   13  A    between atoms: C_19  and  O_21
REMARK   14  A    between atoms: O_21  and  C_22
REMARK   15  A    between atoms: C_22  and  C_23
REMARK   16  A    between atoms: C_24  and  C_26
REMARK                            x       y       z     vdW  Elec       q    Type
REMARK                         _______ _______ _______ _____ _____    ______ ____
ROOT
ATOM      1  C   UNL     1       4.086   4.816  18.212  0.00  0.00    +0.000 A 
ATOM      2  S   UNL     1       3.938   6.375  17.543  0.00  0.00    +0.000 S 
ATOM      3  C   UNL     1       2.706   6.876  18.645  0.00  0.00    +0.000 A 
ATOM      4  C   UNL     1       2.419   5.866  19.565  0.00  0.00    +0.000 A 
ATOM      5  C   UNL     1       1.419   5.935  20.689  0.00  0.00    +0.000 C 
ATOM      6  C   UNL     1       3.240   4.680  19.315  0.00  0.00    +0.000 A 
ENDROOT
BRANCH   1   7
ATOM      7  N   UNL     1       4.880   3.826  17.670  0.00  0.00    +0.000 N 
ATOM      8  H   UNL     1       5.595   3.475  18.323  0.00  0.00    +0.000 HD
BRANCH   7  10
ATOM      9  C   UNL     1       6.442   4.359  16.025  0.00  0.00    +0.000 C 
ATOM     10  N   UNL     1       5.294   3.802  16.355  0.00  0.00    +0.000 NA
BRANCH   9  11
ATOM     11  C   UNL     1       6.708   4.583  14.541  0.00  0.00    +0.000 C 
ATOM     12  O   UNL     1       7.657   5.251  14.186  0.00  0.00    +0.000 OA
BRANCH  11  13
ATOM     13  O   UNL     1       5.730   4.087  13.763  0.00  0.00    +0.000 OA
BRANCH  13  15
ATOM     14  C   UNL     1       4.973   3.129  11.715  0.00  0.00    +0.000 C 
ATOM     15  C   UNL     1       6.193   3.478  12.548  0.00  0.00    +0.000 C 
ENDBRANCH  13  15
ENDBRANCH  11  13
ENDBRANCH   9  11
BRANCH   9  16
ATOM     16  C   UNL     1       7.481   4.884  17.018  0.00  0.00    +0.000 C 
ATOM     17  O   UNL     1       8.229   4.106  17.603  0.00  0.00    +0.000 OA
BRANCH  16  18
ATOM     18  C   UNL     1       7.454   6.368  17.330  0.00  0.00    +0.000 C 
ATOM     19 CL   UNL     1       8.146   6.679  18.928  0.00  0.00    +0.000 Cl
ENDBRANCH  16  18
ENDBRANCH   9  16
ENDBRANCH   7  10
ENDBRANCH   1   7
BRANCH   3  20
ATOM     20  C   UNL     1       2.128   8.218  18.514  0.00  0.00    +0.000 C 
ATOM     21  O   UNL     1       1.982   8.839  17.469  0.00  0.00    +0.000 OA
BRANCH  20  22
ATOM     22  O   UNL     1       1.760   8.708  19.736  0.00  0.00    +0.000 OA
ATOM     23  C   UNL     1       0.679   9.639  19.759  0.00  0.00    +0.000 C 
ENDBRANCH  20  22
ENDBRANCH   3  20
BRANCH   6  24
ATOM     24  C   UNL     1       3.212   3.418  20.059  0.00  0.00    +0.000 C 
ATOM     25  O   UNL     1       4.235   2.813  20.373  0.00  0.00    +0.000 OA
BRANCH  24  26
ATOM     26  O   UNL     1       1.954   2.912  20.214  0.00  0.00    +0.000 OA
BRANCH  26  27
ATOM     27  C   UNL     1       1.269   2.618  18.987  0.00  0.00    +0.000 C 
ATOM     28  C   UNL     1       2.143   1.671  18.181  0.00  0.00    +0.000 C 
ENDBRANCH  26  27
ENDBRANCH  24  26
ENDBRANCH   6  24
TORSDOF 12
ENDMDL
MODEL 2
REMARK VINA RESULT:      -7.3      0.839      1.099
REMARK  Name = 
REMARK  16 active torsions:
REMARK  status: ('A' for Active; 'I' for Inactive)
REMARK    1  A    between atoms: C_1  and  C_2
REMARK    2  A    between atoms: C_2  and  O_3
REMARK    3  A    between atoms: O_3  and  C_4
REMARK    4  A    between atoms: C_4  and  C_6
REMARK    5  A    between atoms: C_6  and  C_24
REMARK    6  A    between atoms: N_7  and  N_8
REMARK    7  A    between atoms: N_8  and  C_9
REMARK    8  A    between atoms: C_11  and  C_12
REMARK    9  A    between atoms: C_12  and  O_14
REMARK   10  A    between atoms: O_14  and  C_15
REMARK   11  A    between atoms: C_16  and  C_17
REMARK   12  A    between atoms: C_18  and  C_19
REMARK   13  A    between atoms: C_19  and  O_21
REMARK   14  A    between atoms: O_21  and  C_22
REMARK   15  A    between atoms: C_22  and  C_23
REMARK   16  A    between atoms: C_24  and  C_26
REMARK                            x       y       z     vdW  Elec       q    Type
REMARK                         _______ _______ _______ _____ _____    ______ ____
ROOT
ATOM      1  C   UNL     1       4.266   4.414  18.501  0.00  0.00    +0.000 A 
ATOM      2  S   UNL     1       4.016   6.038  18.050  0.00  0.00    +0.000 S 
ATOM      3  C   UNL     1       2.842   6.338  19.280  0.00  0.00    +0.000 A 
ATOM      4  C   UNL     1       2.653   5.207  20.076  0.00  0.00    +0.000 A 
ATOM      5  C   UNL     1       1.727   5.087  21.258  0.00  0.00    +0.000 C 
ATOM      6  C   UNL     1       3.500   4.101  19.625  0.00  0.00    +0.000 A 
ENDROOT
BRANCH   1   7
ATOM      7  N   UNL     1       5.060   3.540  17.787  0.00  0.00    +0.000 N 
ATOM      8  H   UNL     1       5.867   3.192  18.325  0.00  0.00    +0.000 HD
BRANCH   7  10
ATOM      9  C   UNL     1       6.373   4.346  16.040  0.00  0.00    +0.000 C 
ATOM     10  N   UNL     1       5.322   3.657  16.440  0.00  0.00    +0.000 NA
BRANCH   9  11
ATOM     11  C   UNL     1       6.448   4.709  14.561  0.00  0.00    +0.000 C 
ATOM     12  O   UNL     1       6.285   5.859  14.208  0.00  0.00    +0.000 OA
BRANCH  11  13
ATOM     13  O   UNL     1       6.568   3.627  13.772  0.00  0.00    +0.000 OA
BRANCH  13  15
ATOM     14  C   UNL     1       6.029   2.516  11.733  0.00  0.00    +0.000 C 
ATOM     15  C   UNL     1       5.542   3.507  12.775  0.00  0.00    +0.000 C 
ENDBRANCH  13  15
ENDBRANCH  11  13
ENDBRANCH   9  11
BRANCH   9  16
ATOM     16  C   UNL     1       7.469   4.888  16.959  0.00  0.00    +0.000 C 
ATOM     17  O   UNL     1       8.234   4.118  17.534  0.00  0.00    +0.000 OA
BRANCH  16  18
ATOM     18  C   UNL     1       7.480   6.382  17.218  0.00  0.00    +0.000 C 
ATOM     19 CL   UNL     1       8.141   6.729  18.822  0.00  0.00    +0.000 Cl
ENDBRANCH  16  18
ENDBRANCH   9  16
ENDBRANCH   7  10
ENDBRANCH   1   7
BRANCH   3  20
ATOM     20  C   UNL     1       2.206   7.658  19.359  0.00  0.00    +0.000 C 
ATOM     21  O   UNL     1       1.563   8.091  20.306  0.00  0.00    +0.000 OA
BRANCH  20  22
ATOM     22  O   UNL     1       2.423   8.368  18.211  0.00  0.00    +0.000 OA
ATOM     23  C   UNL     1       1.501   9.416  17.916  0.00  0.00    +0.000 C 
ENDBRANCH  20  22
ENDBRANCH   3  20
BRANCH   6  24
ATOM     24  C   UNL     1       3.568   2.755  20.199  0.00  0.00    +0.000 C 
ATOM     25  O   UNL     1       4.632   2.219  20.505  0.00  0.00    +0.000 OA
BRANCH  24  26
ATOM     26  O   UNL     1       2.367   2.108  20.200  0.00  0.00    +0.000 OA
BRANCH  26  27
ATOM     27  C   UNL     1       1.857   1.785  18.897  0.00  0.00    +0.000 C 
ATOM     28  C   UNL     1       0.483   2.421  18.765  0.00  0.00    +0.000 C 
ENDBRANCH  26  27
ENDBRANCH  24  26
ENDBRANCH   6  24
TORSDOF 12
ENDMDL
MODEL 3
REMARK VINA RESULT:      -7.1      3.045      7.089
REMARK  Name = 
REMARK  16 active torsions:
REMARK  status: ('A' for Active; 'I' for Inactive)
REMARK    1  A    between atoms: C_1  and  C_2
REMARK    2  A    between atoms: C_2  and  O_3
REMARK    3  A    between atoms: O_3  and  C_4
REMARK    4  A    between atoms: C_4  and  C_6
REMARK    5  A    between atoms: C_6  and  C_24
REMARK    6  A    between atoms: N_7  and  N_8
REMARK    7  A    between atoms: N_8  and  C_9
REMARK    8  A    between atoms: C_11  and  C_12
REMARK    9  A    between atoms: C_12  and  O_14
REMARK   10  A    between atoms: O_14  and  C_15
REMARK   11  A    between atoms: C_16  and  C_17
REMARK   12  A    between atoms: C_18  and  C_19
REMARK   13  A    between atoms: C_19  and  O_21
REMARK   14  A    between atoms: O_21  and  C_22
REMARK   15  A    between atoms: C_22  and  C_23
REMARK   16  A    between atoms: C_24  and  C_26
REMARK                            x       y       z     vdW  Elec       q    Type
REMARK                         _______ _______ _______ _____ _____    ______ ____
ROOT
ATOM      1  C   UNL     1       3.202   6.531  18.183  0.00  0.00    +0.000 A 
ATOM      2  S   UNL     1       4.637   7.123  17.479  0.00  0.00    +0.000 S 
ATOM      3  C   UNL     1       5.136   5.581  16.881  0.00  0.00    +0.000 A 
ATOM      4  C   UNL     1       4.190   4.600  17.181  0.00  0.00    +0.000 A 
ATOM      5  C   UNL     1       4.262   3.141  16.808  0.00  0.00    +0.000 C 
ATOM      6  C   UNL     1       3.062   5.167  17.922  0.00  0.00    +0.000 A 
ENDROOT
BRANCH   1   7
ATOM      7  N   UNL     1       2.361   7.302  18.960  0.00  0.00    +0.000 N 
ATOM      8  H   UNL     1       1.653   6.749  19.463  0.00  0.00    +0.000 HD
BRANCH   7  10
ATOM      9  C   UNL     1       1.196   9.256  19.459  0.00  0.00    +0.000 C 
ATOM     10  N   UNL     1       1.913   8.555  18.603  0.00  0.00    +0.000 NA
BRANCH   9  11
ATOM     11  C   UNL     1       0.468  10.482  18.921  0.00  0.00    +0.000 C 
ATOM     12  O   UNL     1       1.099  11.450  18.547  0.00  0.00    +0.000 OA
BRANCH  11  13
ATOM     13  O   UNL     1      -0.867  10.385  19.049  0.00  0.00    +0.000 OA
BRANCH  13  15
ATOM     14  C   UNL     1      -2.010   9.922  17.009  0.00  0.00    +0.000 C 
ATOM     15  C   UNL     1      -1.608  11.009  17.990  0.00  0.00    +0.000 C 
ENDBRANCH  13  15
ENDBRANCH  11  13
ENDBRANCH   9  11
BRANCH   9  16
ATOM     16  C   UNL     1       0.961   8.879  20.924  0.00  0.00    +0.000 C 
ATOM     17  O   UNL     1       0.813   7.704  21.247  0.00  0.00    +0.000 OA
BRANCH  16  18
ATOM     18  C   UNL     1       0.798  10.016  21.914  0.00  0.00    +0.000 C 
ATOM     19 CL   UNL     1      -0.565   9.703  22.998  0.00  0.00    +0.000 Cl
ENDBRANCH  16  18
ENDBRANCH   9  16
ENDBRANCH   7  10
ENDBRANCH   1   7
BRANCH   3  20
ATOM     20  C   UNL     1       6.413   5.468  16.167  0.00  0.00    +0.000 C 
ATOM     21  O   UNL     1       7.513   5.317  16.682  0.00  0.00    +0.000 OA
BRANCH  20  22
ATOM     22  O   UNL     1       6.222   5.554  14.817  0.00  0.00    +0.000 OA
ATOM     23  C   UNL     1       6.485   4.380  14.051  0.00  0.00    +0.000 C 
ENDBRANCH  20  22
ENDBRANCH   3  20
BRANCH   6  24
ATOM     24  C   UNL     1       1.888   4.448  18.422  0.00  0.00    +0.000 C 
ATOM     25  O   UNL     1       1.114   3.847  17.678  0.00  0.00    +0.000 OA
BRANCH  24  26
ATOM     26  O   UNL     1       1.655   4.653  19.751  0.00  0.00    +0.000 OA
BRANCH  26  27
ATOM     27  C   UNL     1       1.057   3.541  20.435  0.00  0.00    +0.000 C 
ATOM     28  C   UNL     1       2.065   3.018  21.444  0.00  0.00    +0.000 C 
ENDBRANCH  26  27
ENDBRANCH  24  26
ENDBRANCH   6  24
TORSDOF 12
ENDMDL
MODEL 4
REMARK VINA RESULT:      -7.0      1.388      4.028
REMARK  Name = 
REMARK  16 active torsions:
REMARK  status: ('A' for Active; 'I' for Inactive)
REMARK    1  A    between atoms: C_1  and  C_2
REMARK    2  A    between atoms: C_2  and  O_3
REMARK    3  A    between atoms: O_3  and  C_4
REMARK    4  A    between atoms: C_4  and  C_6
REMARK    5  A    between atoms: C_6  and  C_24
REMARK    6  A    between atoms: N_7  and  N_8
REMARK    7  A    between atoms: N_8  and  C_9
REMARK    8  A    between atoms: C_11  and  C_12
REMARK    9  A    between atoms: C_12  and  O_14
REMARK   10  A    between atoms: O_14  and  C_15
REMARK   11  A    between atoms: C_16  and  C_17
REMARK   12  A    between atoms: C_18  and  C_19
REMARK   13  A    between atoms: C_19  and  O_21
REMARK   14  A    between atoms: O_21  and  C_22
REMARK   15  A    between atoms: C_22  and  C_23
REMARK   16  A    between atoms: C_24  and  C_26
REMARK                            x       y       z     vdW  Elec       q    Type
REMARK                         _______ _______ _______ _____ _____    ______ ____
ROOT
ATOM      1  C   UNL     1       3.613   5.501  17.460  0.00  0.00    +0.000 A 
ATOM      2  S   UNL     1       3.655   3.825  17.765  0.00  0.00    +0.000 S 
ATOM      3  C   UNL     1       2.567   3.906  19.103  0.00  0.00    +0.000 A 
ATOM      4  C   UNL     1       2.128   5.215  19.311  0.00  0.00    +0.000 A 
ATOM      5  C   UNL     1       1.161   5.679  20.368  0.00  0.00    +0.000 C 
ATOM      6  C   UNL     1       2.728   6.130  18.338  0.00  0.00    +0.000 A 
ENDROOT
BRANCH   1   7
ATOM      7  N   UNL     1       4.411   6.125  16.523  0.00  0.00    +0.000 N 
ATOM      8  H   UNL     1       4.043   7.038  16.219  0.00  0.00    +0.000 HD
BRANCH   7  10
ATOM      9  C   UNL     1       6.412   5.397  15.579  0.00  0.00    +0.000 C 
ATOM     10  N   UNL     1       5.096   5.462  15.528  0.00  0.00    +0.000 NA
BRANCH   9  11
ATOM     11  C   UNL     1       7.137   4.936  14.320  0.00  0.00    +0.000 C 
ATOM     12  O   UNL     1       8.001   5.631  13.826  0.00  0.00    +0.000 OA
BRANCH  11  13
ATOM     13  O   UNL     1       6.614   3.808  13.808  0.00  0.00    +0.000 OA
BRANCH  13  15
ATOM     14  C   UNL     1       5.196   3.254  11.974  0.00  0.00    +0.000 C 
ATOM     15  C   UNL     1       6.564   3.778  12.374  0.00  0.00    +0.000 C 
ENDBRANCH  13  15
ENDBRANCH  11  13
ENDBRANCH   9  11
BRANCH   9  16
ATOM     16  C   UNL     1       7.268   5.837  16.768  0.00  0.00    +0.000 C 
ATOM     17  O   UNL     1       7.696   6.986  16.833  0.00  0.00    +0.000 OA
BRANCH  16  18
ATOM     18  C   UNL     1       7.658   4.771  17.773  0.00  0.00    +0.000 C 
ATOM     19 CL   UNL     1       8.012   5.501  19.346  0.00  0.00    +0.000 Cl
ENDBRANCH  16  18
ENDBRANCH   9  16
ENDBRANCH   7  10
ENDBRANCH   1   7
BRANCH   3  20
ATOM     20  C   UNL     1       2.237   2.678  19.835  0.00  0.00    +0.000 C 
ATOM     21  O   UNL     1       1.690   1.688  19.368  0.00  0.00    +0.000 OA
BRANCH  20  22
ATOM     22  O   UNL     1       2.625   2.775  21.142  0.00  0.00    +0.000 OA
ATOM     23  C   UNL     1       1.619   2.564  22.132  0.00  0.00    +0.000 C 
ENDBRANCH  20  22
ENDBRANCH   3  20
BRANCH   6  24
ATOM     24  C   UNL     1       2.521   7.577  18.249  0.00  0.00    +0.000 C 
ATOM     25  O   UNL     1       2.819   8.227  17.248  0.00  0.00    +0.000 OA
BRANCH  24  26
ATOM     26  O   UNL     1       2.132   8.140  19.429  0.00  0.00    +0.000 OA
BRANCH  26  27
ATOM     27  C   UNL     1       1.247   9.263  19.297  0.00  0.00    +0.000 C 
ATOM     28  C   UNL     1       0.856   9.715  20.694  0.00  0.00    +0.000 C 
ENDBRANCH  26  27
ENDBRANCH  24  26
ENDBRANCH   6  24
TORSDOF 12
ENDMDL
MODEL 5
REMARK VINA RESULT:      -7.0      1.103      1.545
REMARK  Name = 
REMARK  16 active torsions:
REMARK  status: ('A' for Active; 'I' for Inactive)
REMARK    1  A    between atoms: C_1  and  C_2
REMARK    2  A    between atoms: C_2  and  O_3
REMARK    3  A    between atoms: O_3  and  C_4
REMARK    4  A    between atoms: C_4  and  C_6
REMARK    5  A    between atoms: C_6  and  C_24
REMARK    6  A    between atoms: N_7  and  N_8
REMARK    7  A    between atoms: N_8  and  C_9
REMARK    8  A    between atoms: C_11  and  C_12
REMARK    9  A    between atoms: C_12  and  O_14
REMARK   10  A    between atoms: O_14  and  C_15
REMARK   11  A    between atoms: C_16  and  C_17
REMARK   12  A    between atoms: C_18  and  C_19
REMARK   13  A    between atoms: C_19  and  O_21
REMARK   14  A    between atoms: O_21  and  C_22
REMARK   15  A    between atoms: C_22  and  C_23
REMARK   16  A    between atoms: C_24  and  C_26
REMARK                            x       y       z     vdW  Elec       q    Type
REMARK                         _______ _______ _______ _____ _____    ______ ____
ROOT
ATOM      1  C   UNL     1       4.203   4.542  18.509  0.00  0.00    +0.000 A 
ATOM      2  S   UNL     1       4.090   6.210  18.180  0.00  0.00    +0.000 S 
ATOM      3  C   UNL     1       2.759   6.466  19.250  0.00  0.00    +0.000 A 
ATOM      4  C   UNL     1       2.408   5.283  19.902  0.00  0.00    +0.000 A 
ATOM      5  C   UNL     1       1.311   5.112  20.921  0.00  0.00    +0.000 C 
ATOM      6  C   UNL     1       3.266   4.175  19.477  0.00  0.00    +0.000 A 
ENDROOT
BRANCH   1   7
ATOM      7  N   UNL     1       5.058   3.690  17.840  0.00  0.00    +0.000 N 
ATOM      8  H   UNL     1       5.909   3.466  18.374  0.00  0.00    +0.000 HD
BRANCH   7  10
ATOM      9  C   UNL     1       6.314   4.365  15.997  0.00  0.00    +0.000 C 
ATOM     10  N   UNL     1       5.269   3.720  16.478  0.00  0.00    +0.000 NA
BRANCH   9  11
ATOM     11  C   UNL     1       6.337   4.635  14.498  0.00  0.00    +0.000 C 
ATOM     12  O   UNL     1       5.424   4.251  13.795  0.00  0.00    +0.000 OA
BRANCH  11  13
ATOM     13  O   UNL     1       7.494   5.188  14.093  0.00  0.00    +0.000 OA
BRANCH  13  15
ATOM     14  C   UNL     1       8.091   6.160  11.999  0.00  0.00    +0.000 C 
ATOM     15  C   UNL     1       7.867   4.857  12.747  0.00  0.00    +0.000 C 
ENDBRANCH  13  15
ENDBRANCH  11  13
ENDBRANCH   9  11
BRANCH   9  16
ATOM     16  C   UNL     1       7.453   4.943  16.839  0.00  0.00    +0.000 C 
ATOM     17  O   UNL     1       8.295   4.201  17.337  0.00  0.00    +0.000 OA
BRANCH  16  18
ATOM     18  C   UNL     1       7.415   6.431  17.126  0.00  0.00    +0.000 C 
ATOM     19 CL   UNL     1       8.044   6.767  18.746  0.00  0.00    +0.000 Cl
ENDBRANCH  16  18
ENDBRANCH   9  16
ENDBRANCH   7  10
ENDBRANCH   1   7
BRANCH   3  20
ATOM     20  C   UNL     1       2.174   7.807  19.359  0.00  0.00    +0.000 C 
ATOM     21  O   UNL     1       1.553   8.245  20.319  0.00  0.00    +0.000 OA
BRANCH  20  22
ATOM     22  O   UNL     1       2.411   8.532  18.225  0.00  0.00    +0.000 OA
ATOM     23  C   UNL     1       1.325   9.299  17.709  0.00  0.00    +0.000 C 
ENDBRANCH  20  22
ENDBRANCH   3  20
BRANCH   6  24
ATOM     24  C   UNL     1       3.192   2.783  19.927  0.00  0.00    +0.000 C 
ATOM     25  O   UNL     1       3.436   2.448  21.085  0.00  0.00    +0.000 OA
BRANCH  24  26
ATOM     26  O   UNL     1       2.995   1.897  18.908  0.00  0.00    +0.000 OA
BRANCH  26  27
ATOM     27  C   UNL     1       1.883   2.202  18.052  0.00  0.00    +0.000 C 
ATOM     28  C   UNL     1       0.618   2.140  18.893  0.00  0.00    +0.000 C 
ENDBRANCH  26  27
ENDBRANCH  24  26
ENDBRANCH   6  24
TORSDOF 12
ENDMDL
MODEL 6
REMARK VINA RESULT:      -6.9      2.935      7.162
REMARK  Name = 
REMARK  16 active torsions:
REMARK  status: ('A' for Active; 'I' for Inactive)
REMARK    1  A    between atoms: C_1  and  C_2
REMARK    2  A    between atoms: C_2  and  O_3
REMARK    3  A    between atoms: O_3  and  C_4
REMARK    4  A    between atoms: C_4  and  C_6
REMARK    5  A    between atoms: C_6  and  C_24
REMARK    6  A    between atoms: N_7  and  N_8
REMARK    7  A    between atoms: N_8  and  C_9
REMARK    8  A    between atoms: C_11  and  C_12
REMARK    9  A    between atoms: C_12  and  O_14
REMARK   10  A    between atoms: O_14  and  C_15
REMARK   11  A    between atoms: C_16  and  C_17
REMARK   12  A    between atoms: C_18  and  C_19
REMARK   13  A    between atoms: C_19  and  O_21
REMARK   14  A    between atoms: O_21  and  C_22
REMARK   15  A    between atoms: C_22  and  C_23
REMARK   16  A    between atoms: C_24  and  C_26
REMARK                            x       y       z     vdW  Elec       q    Type
REMARK                         _______ _______ _______ _____ _____    ______ ____
ROOT
ATOM      1  C   UNL     1       3.186   6.340  18.088  0.00  0.00    +0.000 A 
ATOM      2  S   UNL     1       4.632   6.885  17.371  0.00  0.00    +0.000 S 
ATOM      3  C   UNL     1       5.151   5.306  16.901  0.00  0.00    +0.000 A 
ATOM      4  C   UNL     1       4.203   4.344  17.256  0.00  0.00    +0.000 A 
ATOM      5  C   UNL     1       4.290   2.863  16.996  0.00  0.00    +0.000 C 
ATOM      6  C   UNL     1       3.058   4.959  17.928  0.00  0.00    +0.000 A 
ENDROOT
BRANCH   1   7
ATOM      7  N   UNL     1       2.326   7.162  18.786  0.00  0.00    +0.000 N 
ATOM      8  H   UNL     1       1.524   6.660  19.193  0.00  0.00    +0.000 HD
BRANCH   7  10
ATOM      9  C   UNL     1       1.368   9.233  19.256  0.00  0.00    +0.000 C 
ATOM     10  N   UNL     1       2.020   8.454  18.416  0.00  0.00    +0.000 NA
BRANCH   9  11
ATOM     11  C   UNL     1       0.784  10.526  18.699  0.00  0.00    +0.000 C 
ATOM     12  O   UNL     1      -0.387  10.580  18.384  0.00  0.00    +0.000 OA
BRANCH  11  13
ATOM     13  O   UNL     1       1.722  11.469  18.496  0.00  0.00    +0.000 OA
BRANCH  13  15
ATOM     14  C   UNL     1       2.075  13.167  20.132  0.00  0.00    +0.000 C 
ATOM     15  C   UNL     1       1.317  12.794  18.870  0.00  0.00    +0.000 C 
ENDBRANCH  13  15
ENDBRANCH  11  13
ENDBRANCH   9  11
BRANCH   9  16
ATOM     16  C   UNL     1       1.073   8.895  20.719  0.00  0.00    +0.000 C 
ATOM     17  O   UNL     1       1.017   7.725  21.086  0.00  0.00    +0.000 OA
BRANCH  16  18
ATOM     18  C   UNL     1       0.735  10.049  21.642  0.00  0.00    +0.000 C 
ATOM     19 CL   UNL     1       0.025   9.452  23.149  0.00  0.00    +0.000 Cl
ENDBRANCH  16  18
ENDBRANCH   9  16
ENDBRANCH   7  10
ENDBRANCH   1   7
BRANCH   3  20
ATOM     20  C   UNL     1       6.443   5.147  16.225  0.00  0.00    +0.000 C 
ATOM     21  O   UNL     1       7.504   4.854  16.761  0.00  0.00    +0.000 OA
BRANCH  20  22
ATOM     22  O   UNL     1       6.317   5.373  14.883  0.00  0.00    +0.000 OA
ATOM     23  C   UNL     1       6.270   4.225  14.036  0.00  0.00    +0.000 C 
ENDBRANCH  20  22
ENDBRANCH   3  20
BRANCH   6  24
ATOM     24  C   UNL     1       1.876   4.273  18.457  0.00  0.00    +0.000 C 
ATOM     25  O   UNL     1       1.139   3.587  17.751  0.00  0.00    +0.000 OA
BRANCH  24  26
ATOM     26  O   UNL     1       1.593   4.606  19.750  0.00  0.00    +0.000 OA
BRANCH  26  27
ATOM     27  C   UNL     1       2.304   3.843  20.737  0.00  0.00    +0.000 C 
ATOM     28  C   UNL     1       1.370   2.759  21.248  0.00  0.00    +0.000 C 
ENDBRANCH  26  27
ENDBRANCH  24  26
ENDBRANCH   6  24
TORSDOF 12
ENDMDL
MODEL 7
REMARK VINA RESULT:      -6.9      1.366      4.107
REMARK  Name = 
REMARK  16 active torsions:
REMARK  status: ('A' for Active; 'I' for Inactive)
REMARK    1  A    between atoms: C_1  and  C_2
REMARK    2  A    between atoms: C_2  and  O_3
REMARK    3  A    between atoms: O_3  and  C_4
REMARK    4  A    between atoms: C_4  and  C_6
REMARK    5  A    between atoms: C_6  and  C_24
REMARK    6  A    between atoms: N_7  and  N_8
REMARK    7  A    between atoms: N_8  and  C_9
REMARK    8  A    between atoms: C_11  and  C_12
REMARK    9  A    between atoms: C_12  and  O_14
REMARK   10  A    between atoms: O_14  and  C_15
REMARK   11  A    between atoms: C_16  and  C_17
REMARK   12  A    between atoms: C_18  and  C_19
REMARK   13  A    between atoms: C_19  and  O_21
REMARK   14  A    between atoms: O_21  and  C_22
REMARK   15  A    between atoms: C_22  and  C_23
REMARK   16  A    between atoms: C_24  and  C_26
REMARK                            x       y       z     vdW  Elec       q    Type
REMARK                         _______ _______ _______ _____ _____    ______ ____
ROOT
ATOM      1  C   UNL     1       3.627   5.645  17.869  0.00  0.00    +0.000 A 
ATOM      2  S   UNL     1       3.714   4.004  18.319  0.00  0.00    +0.000 S 
ATOM      3  C   UNL     1       2.692   4.189  19.698  0.00  0.00    +0.000 A 
ATOM      4  C   UNL     1       2.240   5.505  19.811  0.00  0.00    +0.000 A 
ATOM      5  C   UNL     1       1.317   6.049  20.871  0.00  0.00    +0.000 C 
ATOM      6  C   UNL     1       2.775   6.338  18.732  0.00  0.00    +0.000 A 
ENDROOT
BRANCH   1   7
ATOM      7  N   UNL     1       4.366   6.193  16.841  0.00  0.00    +0.000 N 
ATOM      8  H   UNL     1       3.981   7.083  16.494  0.00  0.00    +0.000 HD
BRANCH   7  10
ATOM      9  C   UNL     1       6.304   5.395  15.825  0.00  0.00    +0.000 C 
ATOM     10  N   UNL     1       4.988   5.455  15.858  0.00  0.00    +0.000 NA
BRANCH   9  11
ATOM     11  C   UNL     1       6.947   4.837  14.561  0.00  0.00    +0.000 C 
ATOM     12  O   UNL     1       7.774   5.491  13.958  0.00  0.00    +0.000 OA
BRANCH  11  13
ATOM     13  O   UNL     1       6.396   3.673  14.174  0.00  0.00    +0.000 OA
BRANCH  13  15
ATOM     14  C   UNL     1       6.506   2.855  11.938  0.00  0.00    +0.000 C 
ATOM     15  C   UNL     1       5.728   3.729  12.905  0.00  0.00    +0.000 C 
ENDBRANCH  13  15
ENDBRANCH  11  13
ENDBRANCH   9  11
BRANCH   9  16
ATOM     16  C   UNL     1       7.235   5.929  16.916  0.00  0.00    +0.000 C 
ATOM     17  O   UNL     1       7.710   7.058  16.829  0.00  0.00    +0.000 OA
BRANCH  16  18
ATOM     18  C   UNL     1       7.632   4.968  18.020  0.00  0.00    +0.000 C 
ATOM     19 CL   UNL     1       6.909   5.457  19.559  0.00  0.00    +0.000 Cl
ENDBRANCH  16  18
ENDBRANCH   9  16
ENDBRANCH   7  10
ENDBRANCH   1   7
BRANCH   3  20
ATOM     20  C   UNL     1       2.420   3.027  20.552  0.00  0.00    +0.000 C 
ATOM     21  O   UNL     1       2.640   2.951  21.753  0.00  0.00    +0.000 OA
BRANCH  20  22
ATOM     22  O   UNL     1       1.876   2.008  19.822  0.00  0.00    +0.000 OA
ATOM     23  C   UNL     1       0.681   2.298  19.099  0.00  0.00    +0.000 C 
ENDBRANCH  20  22
ENDBRANCH   3  20
BRANCH   6  24
ATOM     24  C   UNL     1       2.538   7.769  18.525  0.00  0.00    +0.000 C 
ATOM     25  O   UNL     1       3.209   8.444  17.747  0.00  0.00    +0.000 OA
BRANCH  24  26
ATOM     26  O   UNL     1       1.625   8.295  19.392  0.00  0.00    +0.000 OA
BRANCH  26  27
ATOM     27  C   UNL     1       1.082   9.563  18.997  0.00  0.00    +0.000 C 
ATOM     28  C   UNL     1       0.782  10.355  20.259  0.00  0.00    +0.000 C 
ENDBRANCH  26  27
ENDBRANCH  24  26
ENDBRANCH   6  24
TORSDOF 12
ENDMDL
MODEL 8
REMARK VINA RESULT:      -6.9      3.014      7.511
REMARK  Name = 
REMARK  16 active torsions:
REMARK  status: ('A' for Active; 'I' for Inactive)
REMARK    1  A    between atoms: C_1  and  C_2
REMARK    2  A    between atoms: C_2  and  O_3
REMARK    3  A    between atoms: O_3  and  C_4
REMARK    4  A    between atoms: C_4  and  C_6
REMARK    5  A    between atoms: C_6  and  C_24
REMARK    6  A    between atoms: N_7  and  N_8
REMARK    7  A    between atoms: N_8  and  C_9
REMARK    8  A    between atoms: C_11  and  C_12
REMARK    9  A    between atoms: C_12  and  O_14
REMARK   10  A    between atoms: O_14  and  C_15
REMARK   11  A    between atoms: C_16  and  C_17
REMARK   12  A    between atoms: C_18  and  C_19
REMARK   13  A    between atoms: C_19  and  O_21
REMARK   14  A    between atoms: O_21  and  C_22
REMARK   15  A    between atoms: C_22  and  C_23
REMARK   16  A    between atoms: C_24  and  C_26
REMARK                            x       y       z     vdW  Elec       q    Type
REMARK                         _______ _______ _______ _____ _____    ______ ____
ROOT
ATOM      1  C   UNL     1       3.339   6.362  18.042  0.00  0.00    +0.000 A 
ATOM      2  S   UNL     1       4.994   6.640  17.745  0.00  0.00    +0.000 S 
ATOM      3  C   UNL     1       5.387   4.964  17.609  0.00  0.00    +0.000 A 
ATOM      4  C   UNL     1       4.248   4.171  17.752  0.00  0.00    +0.000 A 
ATOM      5  C   UNL     1       4.187   2.667  17.676  0.00  0.00    +0.000 C 
ATOM      6  C   UNL     1       3.061   4.995  17.985  0.00  0.00    +0.000 A 
ENDROOT
BRANCH   1   7
ATOM      7  N   UNL     1       2.445   7.362  18.365  0.00  0.00    +0.000 N 
ATOM      8  H   UNL     1       2.594   8.229  17.831  0.00  0.00    +0.000 HD
BRANCH   7  10
ATOM      9  C   UNL     1       1.337   8.716  19.903  0.00  0.00    +0.000 C 
ATOM     10  N   UNL     1       1.968   7.589  19.638  0.00  0.00    +0.000 NA
BRANCH   9  11
ATOM     11  C   UNL     1       1.106   9.059  21.370  0.00  0.00    +0.000 C 
ATOM     12  O   UNL     1       2.008   8.933  22.174  0.00  0.00    +0.000 OA
BRANCH  11  13
ATOM     13  O   UNL     1      -0.178   9.357  21.633  0.00  0.00    +0.000 OA
BRANCH  13  15
ATOM     14  C   UNL     1      -1.205  11.063  22.944  0.00  0.00    +0.000 C 
ATOM     15  C   UNL     1      -0.425   9.761  22.988  0.00  0.00    +0.000 C 
ENDBRANCH  13  15
ENDBRANCH  11  13
ENDBRANCH   9  11
BRANCH   9  16
ATOM     16  C   UNL     1       0.906   9.748  18.858  0.00  0.00    +0.000 C 
ATOM     17  O   UNL     1       0.402   9.386  17.799  0.00  0.00    +0.000 OA
BRANCH  16  18
ATOM     18  C   UNL     1       1.243  11.200  19.138  0.00  0.00    +0.000 C 
ATOM     19 CL   UNL     1      -0.222  12.114  19.524  0.00  0.00    +0.000 Cl
ENDBRANCH  16  18
ENDBRANCH   9  16
ENDBRANCH   7  10
ENDBRANCH   1   7
BRANCH   3  20
ATOM     20  C   UNL     1       6.781   4.571  17.372  0.00  0.00    +0.000 C 
ATOM     21  O   UNL     1       7.708   4.700  18.161  0.00  0.00    +0.000 OA
BRANCH  20  22
ATOM     22  O   UNL     1       6.925   4.027  16.127  0.00  0.00    +0.000 OA
ATOM     23  C   UNL     1       6.958   4.934  15.026  0.00  0.00    +0.000 C 
ENDBRANCH  20  22
ENDBRANCH   3  20
BRANCH   6  24
ATOM     24  C   UNL     1       1.690   4.523  18.197  0.00  0.00    +0.000 C 
ATOM     25  O   UNL     1       0.923   4.278  17.267  0.00  0.00    +0.000 OA
BRANCH  24  26
ATOM     26  O   UNL     1       1.308   4.545  19.507  0.00  0.00    +0.000 OA
BRANCH  26  27
ATOM     27  C   UNL     1       0.928   3.269  20.044  0.00  0.00    +0.000 C 
ATOM     28  C   UNL     1       1.961   2.877  21.087  0.00  0.00    +0.000 C 
ENDBRANCH  26  27
ENDBRANCH  24  26
ENDBRANCH   6  24
TORSDOF 12
ENDMDL
MODEL 9
REMARK VINA RESULT:      -6.9      1.195      1.589
REMARK  Name = 
REMARK  16 active torsions:
REMARK  status: ('A' for Active; 'I' for Inactive)
REMARK    1  A    between atoms: C_1  and  C_2
REMARK    2  A    between atoms: C_2  and  O_3
REMARK    3  A    between atoms: O_3  and  C_4
REMARK    4  A    between atoms: C_4  and  C_6
REMARK    5  A    between atoms: C_6  and  C_24
REMARK    6  A    between atoms: N_7  and  N_8
REMARK    7  A    between atoms: N_8  and  C_9
REMARK    8  A    between atoms: C_11  and  C_12
REMARK    9  A    between atoms: C_12  and  O_14
REMARK   10  A    between atoms: O_14  and  C_15
REMARK   11  A    between atoms: C_16  and  C_17
REMARK   12  A    between atoms: C_18  and  C_19
REMARK   13  A    between atoms: C_19  and  O_21
REMARK   14  A    between atoms: O_21  and  C_22
REMARK   15  A    between atoms: C_22  and  C_23
REMARK   16  A    between atoms: C_24  and  C_26
REMARK                            x       y       z     vdW  Elec       q    Type
REMARK                         _______ _______ _______ _____ _____    ______ ____
ROOT
ATOM      1  C   UNL     1       4.140   4.192  18.260  0.00  0.00    +0.000 A 
ATOM      2  S   UNL     1       4.136   5.895  18.225  0.00  0.00    +0.000 S 
ATOM      3  C   UNL     1       2.651   6.042  19.094  0.00  0.00    +0.000 A 
ATOM      4  C   UNL     1       2.157   4.787  19.455  0.00  0.00    +0.000 A 
ATOM      5  C   UNL     1       0.899   4.509  20.235  0.00  0.00    +0.000 C 
ATOM      6  C   UNL     1       3.041   3.720  18.981  0.00  0.00    +0.000 A 
ENDROOT
BRANCH   1   7
ATOM      7  N   UNL     1       5.069   3.419  17.595  0.00  0.00    +0.000 N 
ATOM      8  H   UNL     1       5.866   3.142  18.186  0.00  0.00    +0.000 HD
BRANCH   7  10
ATOM      9  C   UNL     1       6.499   4.283  15.971  0.00  0.00    +0.000 C 
ATOM     10  N   UNL     1       5.415   3.594  16.273  0.00  0.00    +0.000 NA
BRANCH   9  11
ATOM     11  C   UNL     1       6.671   4.713  14.519  0.00  0.00    +0.000 C 
ATOM     12  O   UNL     1       7.472   5.579  14.231  0.00  0.00    +0.000 OA
BRANCH  11  13
ATOM     13  O   UNL     1       5.772   4.136  13.702  0.00  0.00    +0.000 OA
BRANCH  13  15
ATOM     14  C   UNL     1       5.217   2.831  11.786  0.00  0.00    +0.000 C 
ATOM     15  C   UNL     1       6.346   3.498  12.551  0.00  0.00    +0.000 C 
ENDBRANCH  13  15
ENDBRANCH  11  13
ENDBRANCH   9  11
BRANCH   9  16
ATOM     16  C   UNL     1       7.543   4.764  16.981  0.00  0.00    +0.000 C 
ATOM     17  O   UNL     1       8.298   3.961  17.523  0.00  0.00    +0.000 OA
BRANCH  16  18
ATOM     18  C   UNL     1       7.513   6.230  17.364  0.00  0.00    +0.000 C 
ATOM     19 CL   UNL     1       7.994   6.441  19.054  0.00  0.00    +0.000 Cl
ENDBRANCH  16  18
ENDBRANCH   9  16
ENDBRANCH   7  10
ENDBRANCH   1   7
BRANCH   3  20
ATOM     20  C   UNL     1       2.097   7.377  19.348  0.00  0.00    +0.000 C 
ATOM     21  O   UNL     1       2.046   8.299  18.545  0.00  0.00    +0.000 OA
BRANCH  20  22
ATOM     22  O   UNL     1       1.631   7.471  20.630  0.00  0.00    +0.000 OA
ATOM     23  C   UNL     1       1.232   8.766  21.078  0.00  0.00    +0.000 C 
ENDBRANCH  20  22
ENDBRANCH   3  20
BRANCH   6  24
ATOM     24  C   UNL     1       2.849   2.278  19.153  0.00  0.00    +0.000 C 
ATOM     25  O   UNL     1       1.741   1.747  19.094  0.00  0.00    +0.000 OA
BRANCH  24  26
ATOM     26  O   UNL     1       3.981   1.626  19.545  0.00  0.00    +0.000 OA
BRANCH  26  27
ATOM     27  C   UNL     1       4.427   1.942  20.872  0.00  0.00    +0.000 C 
ATOM     28  C   UNL     1       5.415   0.868  21.299  0.00  0.00    +0.000 C 
ENDBRANCH  26  27
ENDBRANCH  24  26
ENDBRANCH   6  24
TORSDOF 12
ENDMDL
