MODEL 1
REMARK VINA RESULT:      -9.4      0.000      0.000
REMARK  Name = 
REMARK  5 active torsions:
REMARK  status: ('A' for Active; 'I' for Inactive)
REMARK    1  A    between atoms: C_1  and  C_2
REMARK    2  A    between atoms: C_4  and  C_5
REMARK    3  A    between atoms: C_7  and  N_8
REMARK    4  A    between atoms: C_9  and  C_11
REMARK    5  A    between atoms: N_19  and  C_20
REMARK                            x       y       z     vdW  Elec       q    Type
REMARK                         _______ _______ _______ _____ _____    ______ ____
ROOT
ATOM      1  C   UNL     1       7.252   6.529  17.771  0.00  0.00    +0.000 A 
ATOM      2  C   UNL     1       7.565   5.973  16.528  0.00  0.00    +0.000 A 
ATOM      3  C   UNL     1       6.518   5.741  15.632  0.00  0.00    +0.000 A 
ATOM      4  C   UNL     1       5.205   6.082  15.993  0.00  0.00    +0.000 A 
ATOM      5  C   UNL     1       4.939   6.441  17.317  0.00  0.00    +0.000 A 
ATOM      6  C   UNL     1       5.957   6.264  18.241  0.00  0.00    +0.000 A 
ATOM      7  C   UNL     1       5.400   4.963  18.897  0.00  0.00    +0.000 C 
ATOM      8  O   UNL     1       6.089   4.084  19.391  0.00  0.00    +0.000 OA
ATOM      9  N   UNL     1       3.997   4.949  18.673  0.00  0.00    +0.000 N 
ATOM     10  C   UNL     1       3.652   6.180  18.011  0.00  0.00    +0.000 C 
ENDROOT
BRANCH   9  11
ATOM     11  C   UNL     1       2.945   3.903  18.740  0.00  0.00    +0.000 C 
ATOM     12  C   UNL     1       3.278   2.650  19.566  0.00  0.00    +0.000 C 
ATOM     13  C   UNL     1       2.909   2.754  21.040  0.00  0.00    +0.000 C 
ATOM     14  C   UNL     1       1.485   3.262  21.257  0.00  0.00    +0.000 C 
ATOM     15  C   UNL     1       1.182   4.532  20.468  0.00  0.00    +0.000 C 
ATOM     16  C   UNL     1       1.520   4.387  18.995  0.00  0.00    +0.000 C 
ENDBRANCH   9  11
BRANCH   1  18
ATOM     17  N   UNL     1       8.572   8.462  18.799  0.00  0.00    +0.000 N 
ATOM     18  C   UNL     1       7.596   8.047  17.872  0.00  0.00    +0.000 C 
ATOM     19  O   UNL     1       7.029   8.808  17.091  0.00  0.00    +0.000 OA
ATOM     20  H   UNL     1       8.924   7.775  19.449  0.00  0.00    +0.000 HD
BRANCH  17  27
ATOM     21  C   UNL     1       9.406  12.299  21.872  0.00  0.00    +0.000 C 
ATOM     22  C   UNL     1       9.526  11.669  20.508  0.00  0.00    +0.000 A 
ATOM     23  C   UNL     1      10.064  12.420  19.461  0.00  0.00    +0.000 A 
ATOM     24  C   UNL     1      10.146  11.859  18.182  0.00  0.00    +0.000 A 
ATOM     25  C   UNL     1      10.736  12.673  17.058  0.00  0.00    +0.000 C 
ATOM     26  C   UNL     1       9.695  10.546  17.953  0.00  0.00    +0.000 A 
ATOM     27  C   UNL     1       9.126   9.778  18.974  0.00  0.00    +0.000 A 
ATOM     28  C   UNL     1       9.083  10.350  20.265  0.00  0.00    +0.000 A 
ENDBRANCH  17  27
ENDBRANCH   1  18
TORSDOF 3
ENDMDL
MODEL 2
REMARK VINA RESULT:      -9.2      0.157      1.652
REMARK  Name = 
REMARK  5 active torsions:
REMARK  status: ('A' for Active; 'I' for Inactive)
REMARK    1  A    between atoms: C_1  and  C_2
REMARK    2  A    between atoms: C_4  and  C_5
REMARK    3  A    between atoms: C_7  and  N_8
REMARK    4  A    between atoms: C_9  and  C_11
REMARK    5  A    between atoms: N_19  and  C_20
REMARK                            x       y       z     vdW  Elec       q    Type
REMARK                         _______ _______ _______ _____ _____    ______ ____
ROOT
ATOM      1  C   UNL     1       7.275   6.579  17.768  0.00  0.00    +0.000 A 
ATOM      2  C   UNL     1       7.565   6.076  16.497  0.00  0.00    +0.000 A 
ATOM      3  C   UNL     1       6.500   5.867  15.617  0.00  0.00    +0.000 A 
ATOM      4  C   UNL     1       5.193   6.179  16.020  0.00  0.00    +0.000 A 
ATOM      5  C   UNL     1       4.953   6.485  17.363  0.00  0.00    +0.000 A 
ATOM      6  C   UNL     1       5.994   6.283  18.256  0.00  0.00    +0.000 A 
ATOM      7  C   UNL     1       5.465   4.952  18.873  0.00  0.00    +0.000 C 
ATOM      8  O   UNL     1       6.174   4.061  19.317  0.00  0.00    +0.000 OA
ATOM      9  N   UNL     1       4.058   4.932  18.680  0.00  0.00    +0.000 N 
ATOM     10  C   UNL     1       3.686   6.183  18.075  0.00  0.00    +0.000 C 
ENDROOT
BRANCH   9  11
ATOM     11  C   UNL     1       3.017   3.872  18.730  0.00  0.00    +0.000 C 
ATOM     12  C   UNL     1       3.340   2.637  19.586  0.00  0.00    +0.000 C 
ATOM     13  C   UNL     1       2.924   2.758  21.046  0.00  0.00    +0.000 C 
ATOM     14  C   UNL     1       1.487   3.249  21.210  0.00  0.00    +0.000 C 
ATOM     15  C   UNL     1       1.193   4.504  20.392  0.00  0.00    +0.000 C 
ATOM     16  C   UNL     1       1.579   4.341  18.933  0.00  0.00    +0.000 C 
ENDBRANCH   9  11
BRANCH   1  18
ATOM     17  N   UNL     1       8.556   8.490  18.882  0.00  0.00    +0.000 N 
ATOM     18  C   UNL     1       7.607   8.096  17.920  0.00  0.00    +0.000 C 
ATOM     19  O   UNL     1       7.054   8.875  17.146  0.00  0.00    +0.000 OA
ATOM     20  H   UNL     1       8.896   7.787  19.521  0.00  0.00    +0.000 HD
BRANCH  17  27
ATOM     21  C   UNL     1      11.114  12.358  17.050  0.00  0.00    +0.000 C 
ATOM     22  C   UNL     1      10.368  11.707  18.186  0.00  0.00    +0.000 A 
ATOM     23  C   UNL     1      10.328  12.350  19.425  0.00  0.00    +0.000 A 
ATOM     24  C   UNL     1       9.671  11.738  20.498  0.00  0.00    +0.000 A 
ATOM     25  C   UNL     1       9.624  12.442  21.830  0.00  0.00    +0.000 C 
ATOM     26  C   UNL     1       9.050  10.486  20.328  0.00  0.00    +0.000 A 
ATOM     27  C   UNL     1       9.097   9.804  19.108  0.00  0.00    +0.000 A 
ATOM     28  C   UNL     1       9.736  10.455  18.029  0.00  0.00    +0.000 A 
ENDBRANCH  17  27
ENDBRANCH   1  18
TORSDOF 3
ENDMDL
MODEL 3
REMARK VINA RESULT:      -9.0      0.959      1.501
REMARK  Name = 
REMARK  5 active torsions:
REMARK  status: ('A' for Active; 'I' for Inactive)
REMARK    1  A    between atoms: C_1  and  C_2
REMARK    2  A    between atoms: C_4  and  C_5
REMARK    3  A    between atoms: C_7  and  N_8
REMARK    4  A    between atoms: C_9  and  C_11
REMARK    5  A    between atoms: N_19  and  C_20
REMARK                            x       y       z     vdW  Elec       q    Type
REMARK                         _______ _______ _______ _____ _____    ______ ____
ROOT
ATOM      1  C   UNL     1       7.129   6.152  17.822  0.00  0.00    +0.000 A 
ATOM      2  C   UNL     1       7.606   5.426  16.727  0.00  0.00    +0.000 A 
ATOM      3  C   UNL     1       6.682   5.011  15.765  0.00  0.00    +0.000 A 
ATOM      4  C   UNL     1       5.327   5.342  15.913  0.00  0.00    +0.000 A 
ATOM      5  C   UNL     1       4.892   5.888  17.123  0.00  0.00    +0.000 A 
ATOM      6  C   UNL     1       5.794   5.904  18.175  0.00  0.00    +0.000 A 
ATOM      7  C   UNL     1       5.199   4.695  18.960  0.00  0.00    +0.000 C 
ATOM      8  O   UNL     1       5.846   3.935  19.664  0.00  0.00    +0.000 OA
ATOM      9  N   UNL     1       3.834   4.582  18.580  0.00  0.00    +0.000 N 
ATOM     10  C   UNL     1       3.538   5.679  17.696  0.00  0.00    +0.000 C 
ENDROOT
BRANCH   9  11
ATOM     11  C   UNL     1       2.810   3.511  18.691  0.00  0.00    +0.000 C 
ATOM     12  C   UNL     1       3.157   2.325  19.605  0.00  0.00    +0.000 C 
ATOM     13  C   UNL     1       2.747   2.514  21.060  0.00  0.00    +0.000 C 
ATOM     14  C   UNL     1       1.304   2.991  21.208  0.00  0.00    +0.000 C 
ATOM     15  C   UNL     1       0.986   4.198  20.330  0.00  0.00    +0.000 C 
ATOM     16  C   UNL     1       1.366   3.968  18.879  0.00  0.00    +0.000 C 
ENDBRANCH   9  11
BRANCH   1  18
ATOM     17  N   UNL     1       8.300   8.270  18.646  0.00  0.00    +0.000 N 
ATOM     18  C   UNL     1       7.417   7.682  17.720  0.00  0.00    +0.000 C 
ATOM     19  O   UNL     1       6.892   8.294  16.792  0.00  0.00    +0.000 OA
ATOM     20  H   UNL     1       8.618   7.702  19.417  0.00  0.00    +0.000 HD
BRANCH  17  27
ATOM     21  C   UNL     1       7.808  12.954  17.009  0.00  0.00    +0.000 C 
ATOM     22  C   UNL     1       8.540  11.931  17.840  0.00  0.00    +0.000 A 
ATOM     23  C   UNL     1       9.715  12.308  18.494  0.00  0.00    +0.000 A 
ATOM     24  C   UNL     1      10.424  11.359  19.238  0.00  0.00    +0.000 A 
ATOM     25  C   UNL     1      11.687  11.774  19.949  0.00  0.00    +0.000 C 
ATOM     26  C   UNL     1       9.954  10.035  19.329  0.00  0.00    +0.000 A 
ATOM     27  C   UNL     1       8.797   9.620  18.663  0.00  0.00    +0.000 A 
ATOM     28  C   UNL     1       8.077  10.602  17.946  0.00  0.00    +0.000 A 
ENDBRANCH  17  27
ENDBRANCH   1  18
TORSDOF 3
ENDMDL
MODEL 4
REMARK VINA RESULT:      -9.0      0.783      1.542
REMARK  Name = 
REMARK  5 active torsions:
REMARK  status: ('A' for Active; 'I' for Inactive)
REMARK    1  A    between atoms: C_1  and  C_2
REMARK    2  A    between atoms: C_4  and  C_5
REMARK    3  A    between atoms: C_7  and  N_8
REMARK    4  A    between atoms: C_9  and  C_11
REMARK    5  A    between atoms: N_19  and  C_20
REMARK                            x       y       z     vdW  Elec       q    Type
REMARK                         _______ _______ _______ _____ _____    ______ ____
ROOT
ATOM      1  C   UNL     1       7.312   6.671  17.810  0.00  0.00    +0.000 A 
ATOM      2  C   UNL     1       7.353   6.117  16.528  0.00  0.00    +0.000 A 
ATOM      3  C   UNL     1       6.141   5.929  15.857  0.00  0.00    +0.000 A 
ATOM      4  C   UNL     1       4.939   6.310  16.472  0.00  0.00    +0.000 A 
ATOM      5  C   UNL     1       4.953   6.666  17.823  0.00  0.00    +0.000 A 
ATOM      6  C   UNL     1       6.127   6.446  18.527  0.00  0.00    +0.000 A 
ATOM      7  C   UNL     1       5.666   5.159  19.276  0.00  0.00    +0.000 C 
ATOM      8  O   UNL     1       6.408   4.252  19.622  0.00  0.00    +0.000 OA
ATOM      9  N   UNL     1       4.246   5.195  19.335  0.00  0.00    +0.000 N 
ATOM     10  C   UNL     1       3.821   6.443  18.758  0.00  0.00    +0.000 C 
ENDROOT
BRANCH   9  11
ATOM     11  C   UNL     1       3.192   4.184  19.606  0.00  0.00    +0.000 C 
ATOM     12  C   UNL     1       1.872   4.350  18.837  0.00  0.00    +0.000 C 
ATOM     13  C   UNL     1       1.839   3.648  17.486  0.00  0.00    +0.000 C 
ATOM     14  C   UNL     1       2.316   2.199  17.565  0.00  0.00    +0.000 C 
ATOM     15  C   UNL     1       3.651   2.053  18.289  0.00  0.00    +0.000 C 
ATOM     16  C   UNL     1       3.642   2.726  19.649  0.00  0.00    +0.000 C 
ENDBRANCH   9  11
BRANCH   1  18
ATOM     17  N   UNL     1       8.610   8.615  18.846  0.00  0.00    +0.000 N 
ATOM     18  C   UNL     1       7.722   8.176  17.845  0.00  0.00    +0.000 C 
ATOM     19  O   UNL     1       7.286   8.901  16.953  0.00  0.00    +0.000 OA
ATOM     20  H   UNL     1       8.851   7.963  19.578  0.00  0.00    +0.000 HD
BRANCH  17  27
ATOM     21  C   UNL     1       9.566  12.494  21.828  0.00  0.00    +0.000 C 
ATOM     22  C   UNL     1       9.670  11.827  20.481  0.00  0.00    +0.000 A 
ATOM     23  C   UNL     1      10.239  12.532  19.419  0.00  0.00    +0.000 A 
ATOM     24  C   UNL     1      10.307  11.938  18.154  0.00  0.00    +0.000 A 
ATOM     25  C   UNL     1      10.930  12.702  17.014  0.00  0.00    +0.000 C 
ATOM     26  C   UNL     1       9.810  10.636  17.956  0.00  0.00    +0.000 A 
ATOM     27  C   UNL     1       9.210   9.914  18.992  0.00  0.00    +0.000 A 
ATOM     28  C   UNL     1       9.181  10.520  20.269  0.00  0.00    +0.000 A 
ENDBRANCH  17  27
ENDBRANCH   1  18
TORSDOF 3
ENDMDL
MODEL 5
REMARK VINA RESULT:      -8.6      1.442      2.017
REMARK  Name = 
REMARK  5 active torsions:
REMARK  status: ('A' for Active; 'I' for Inactive)
REMARK    1  A    between atoms: C_1  and  C_2
REMARK    2  A    between atoms: C_4  and  C_5
REMARK    3  A    between atoms: C_7  and  N_8
REMARK    4  A    between atoms: C_9  and  C_11
REMARK    5  A    between atoms: N_19  and  C_20
REMARK                            x       y       z     vdW  Elec       q    Type
REMARK                         _______ _______ _______ _____ _____    ______ ____
ROOT
ATOM      1  C   UNL     1       7.032   5.925  17.893  0.00  0.00    +0.000 A 
ATOM      2  C   UNL     1       7.117   5.656  16.525  0.00  0.00    +0.000 A 
ATOM      3  C   UNL     1       6.044   6.037  15.715  0.00  0.00    +0.000 A 
ATOM      4  C   UNL     1       4.937   6.683  16.285  0.00  0.00    +0.000 A 
ATOM      5  C   UNL     1       4.828   6.738  17.678  0.00  0.00    +0.000 A 
ATOM      6  C   UNL     1       5.732   5.990  18.416  0.00  0.00    +0.000 A 
ATOM      7  C   UNL     1       4.765   4.822  18.781  0.00  0.00    +0.000 C 
ATOM      8  O   UNL     1       5.111   3.664  18.965  0.00  0.00    +0.000 OA
ATOM      9  N   UNL     1       3.443   5.336  18.709  0.00  0.00    +0.000 N 
ATOM     10  C   UNL     1       3.540   6.742  18.416  0.00  0.00    +0.000 C 
ENDROOT
BRANCH   9  11
ATOM     11  C   UNL     1       2.092   4.723  18.623  0.00  0.00    +0.000 C 
ATOM     12  C   UNL     1       1.886   3.677  17.516  0.00  0.00    +0.000 C 
ATOM     13  C   UNL     1       2.228   2.251  17.928  0.00  0.00    +0.000 C 
ATOM     14  C   UNL     1       1.596   1.855  19.260  0.00  0.00    +0.000 C 
ATOM     15  C   UNL     1       1.848   2.878  20.363  0.00  0.00    +0.000 C 
ATOM     16  C   UNL     1       1.460   4.284  19.941  0.00  0.00    +0.000 C 
ENDBRANCH   9  11
BRANCH   1  18
ATOM     17  N   UNL     1       7.691   8.386  17.677  0.00  0.00    +0.000 N 
ATOM     18  C   UNL     1       7.886   7.155  18.333  0.00  0.00    +0.000 C 
ATOM     19  O   UNL     1       8.656   6.999  19.278  0.00  0.00    +0.000 OA
ATOM     20  H   UNL     1       7.094   8.395  16.863  0.00  0.00    +0.000 HD
BRANCH  17  27
ATOM     21  C   UNL     1       7.543  13.336  17.102  0.00  0.00    +0.000 C 
ATOM     22  C   UNL     1       8.187  12.110  17.696  0.00  0.00    +0.000 A 
ATOM     23  C   UNL     1       9.367  12.253  18.429  0.00  0.00    +0.000 A 
ATOM     24  C   UNL     1       9.994  11.118  18.954  0.00  0.00    +0.000 A 
ATOM     25  C   UNL     1      11.263  11.281  19.752  0.00  0.00    +0.000 C 
ATOM     26  C   UNL     1       9.438   9.842  18.748  0.00  0.00    +0.000 A 
ATOM     27  C   UNL     1       8.273   9.663  17.995  0.00  0.00    +0.000 A 
ATOM     28  C   UNL     1       7.637  10.824  17.503  0.00  0.00    +0.000 A 
ENDBRANCH  17  27
ENDBRANCH   1  18
TORSDOF 3
ENDMDL
MODEL 6
REMARK VINA RESULT:      -8.6      0.781      2.124
REMARK  Name = 
REMARK  5 active torsions:
REMARK  status: ('A' for Active; 'I' for Inactive)
REMARK    1  A    between atoms: C_1  and  C_2
REMARK    2  A    between atoms: C_4  and  C_5
REMARK    3  A    between atoms: C_7  and  N_8
REMARK    4  A    between atoms: C_9  and  C_11
REMARK    5  A    between atoms: N_19  and  C_20
REMARK                            x       y       z     vdW  Elec       q    Type
REMARK                         _______ _______ _______ _____ _____    ______ ____
ROOT
ATOM      1  C   UNL     1       7.388   6.791  17.548  0.00  0.00    +0.000 A 
ATOM      2  C   UNL     1       7.227   6.469  16.198  0.00  0.00    +0.000 A 
ATOM      3  C   UNL     1       5.928   6.259  15.726  0.00  0.00    +0.000 A 
ATOM      4  C   UNL     1       4.840   6.391  16.601  0.00  0.00    +0.000 A 
ATOM      5  C   UNL     1       5.084   6.514  17.971  0.00  0.00    +0.000 A 
ATOM      6  C   UNL     1       6.385   6.315  18.406  0.00  0.00    +0.000 A 
ATOM      7  C   UNL     1       6.183   4.876  18.971  0.00  0.00    +0.000 C 
ATOM      8  O   UNL     1       7.050   4.014  19.007  0.00  0.00    +0.000 OA
ATOM      9  N   UNL     1       4.804   4.738  19.282  0.00  0.00    +0.000 N 
ATOM     10  C   UNL     1       4.175   6.008  19.031  0.00  0.00    +0.000 C 
ENDROOT
BRANCH   9  11
ATOM     11  C   UNL     1       3.907   3.581  19.540  0.00  0.00    +0.000 C 
ATOM     12  C   UNL     1       2.614   3.880  20.316  0.00  0.00    +0.000 C 
ATOM     13  C   UNL     1       1.432   4.273  19.439  0.00  0.00    +0.000 C 
ATOM     14  C   UNL     1       1.227   3.320  18.264  0.00  0.00    +0.000 C 
ATOM     15  C   UNL     1       2.508   3.070  17.474  0.00  0.00    +0.000 C 
ATOM     16  C   UNL     1       3.658   2.639  18.366  0.00  0.00    +0.000 C 
ENDBRANCH   9  11
BRANCH   1  18
ATOM     17  N   UNL     1       8.645   8.670  18.742  0.00  0.00    +0.000 N 
ATOM     18  C   UNL     1       7.673   8.306  17.790  0.00  0.00    +0.000 C 
ATOM     19  O   UNL     1       7.065   9.114  17.091  0.00  0.00    +0.000 OA
ATOM     20  H   UNL     1       9.033   7.939  19.320  0.00  0.00    +0.000 HD
BRANCH  17  27
ATOM     21  C   UNL     1      11.086  12.701  17.114  0.00  0.00    +0.000 C 
ATOM     22  C   UNL     1      10.362  11.969  18.215  0.00  0.00    +0.000 A 
ATOM     23  C   UNL     1      10.307  12.544  19.487  0.00  0.00    +0.000 A 
ATOM     24  C   UNL     1       9.671  11.858  20.526  0.00  0.00    +0.000 A 
ATOM     25  C   UNL     1       9.608  12.489  21.894  0.00  0.00    +0.000 C 
ATOM     26  C   UNL     1       9.086  10.600  20.291  0.00  0.00    +0.000 A 
ATOM     27  C   UNL     1       9.149   9.985  19.037  0.00  0.00    +0.000 A 
ATOM     28  C   UNL     1       9.766  10.710  17.992  0.00  0.00    +0.000 A 
ENDBRANCH  17  27
ENDBRANCH   1  18
TORSDOF 3
ENDMDL
MODEL 7
REMARK VINA RESULT:      -8.6      0.714      2.106
REMARK  Name = 
REMARK  5 active torsions:
REMARK  status: ('A' for Active; 'I' for Inactive)
REMARK    1  A    between atoms: C_1  and  C_2
REMARK    2  A    between atoms: C_4  and  C_5
REMARK    3  A    between atoms: C_7  and  N_8
REMARK    4  A    between atoms: C_9  and  C_11
REMARK    5  A    between atoms: N_19  and  C_20
REMARK                            x       y       z     vdW  Elec       q    Type
REMARK                         _______ _______ _______ _____ _____    ______ ____
ROOT
ATOM      1  C   UNL     1       7.300   6.773  17.804  0.00  0.00    +0.000 A 
ATOM      2  C   UNL     1       7.585   6.208  16.558  0.00  0.00    +0.000 A 
ATOM      3  C   UNL     1       6.527   6.034  15.661  0.00  0.00    +0.000 A 
ATOM      4  C   UNL     1       5.234   6.439  16.024  0.00  0.00    +0.000 A 
ATOM      5  C   UNL     1       4.986   6.805  17.350  0.00  0.00    +0.000 A 
ATOM      6  C   UNL     1       5.994   6.573  18.273  0.00  0.00    +0.000 A 
ATOM      7  C   UNL     1       5.372   5.299  18.922  0.00  0.00    +0.000 C 
ATOM      8  O   UNL     1       6.015   4.383  19.413  0.00  0.00    +0.000 OA
ATOM      9  N   UNL     1       3.970   5.357  18.699  0.00  0.00    +0.000 N 
ATOM     10  C   UNL     1       3.688   6.607  18.043  0.00  0.00    +0.000 C 
ENDROOT
BRANCH   9  11
ATOM     11  C   UNL     1       2.865   4.365  18.761  0.00  0.00    +0.000 C 
ATOM     12  C   UNL     1       2.694   3.455  17.534  0.00  0.00    +0.000 C 
ATOM     13  C   UNL     1       3.510   2.170  17.587  0.00  0.00    +0.000 C 
ATOM     14  C   UNL     1       3.358   1.431  18.915  0.00  0.00    +0.000 C 
ATOM     15  C   UNL     1       3.578   2.335  20.125  0.00  0.00    +0.000 C 
ATOM     16  C   UNL     1       2.723   3.588  20.067  0.00  0.00    +0.000 C 
ENDBRANCH   9  11
BRANCH   1  18
ATOM     17  N   UNL     1       8.597   8.658  18.944  0.00  0.00    +0.000 N 
ATOM     18  C   UNL     1       7.721   8.272  17.911  0.00  0.00    +0.000 C 
ATOM     19  O   UNL     1       7.304   9.039  17.047  0.00  0.00    +0.000 OA
ATOM     20  H   UNL     1       8.822   7.973  19.650  0.00  0.00    +0.000 HD
BRANCH  17  27
ATOM     21  C   UNL     1      11.485  12.298  17.134  0.00  0.00    +0.000 C 
ATOM     22  C   UNL     1      10.638  11.734  18.247  0.00  0.00    +0.000 A 
ATOM     23  C   UNL     1      10.569  12.424  19.459  0.00  0.00    +0.000 A 
ATOM     24  C   UNL     1       9.817  11.892  20.513  0.00  0.00    +0.000 A 
ATOM     25  C   UNL     1       9.739  12.646  21.816  0.00  0.00    +0.000 C 
ATOM     26  C   UNL     1       9.131  10.673  20.349  0.00  0.00    +0.000 A 
ATOM     27  C   UNL     1       9.204   9.946  19.157  0.00  0.00    +0.000 A 
ATOM     28  C   UNL     1       9.941  10.517  18.095  0.00  0.00    +0.000 A 
ENDBRANCH  17  27
ENDBRANCH   1  18
TORSDOF 3
ENDMDL
MODEL 8
REMARK VINA RESULT:      -8.5      3.981      7.268
REMARK  Name = 
REMARK  5 active torsions:
REMARK  status: ('A' for Active; 'I' for Inactive)
REMARK    1  A    between atoms: C_1  and  C_2
REMARK    2  A    between atoms: C_4  and  C_5
REMARK    3  A    between atoms: C_7  and  N_8
REMARK    4  A    between atoms: C_9  and  C_11
REMARK    5  A    between atoms: N_19  and  C_20
REMARK                            x       y       z     vdW  Elec       q    Type
REMARK                         _______ _______ _______ _____ _____    ______ ____
ROOT
ATOM      1  C   UNL     1       5.792   6.066  16.493  0.00  0.00    +0.000 A 
ATOM      2  C   UNL     1       6.874   6.329  17.337  0.00  0.00    +0.000 A 
ATOM      3  C   UNL     1       7.040   5.515  18.461  0.00  0.00    +0.000 A 
ATOM      4  C   UNL     1       6.142   4.464  18.699  0.00  0.00    +0.000 A 
ATOM      5  C   UNL     1       4.976   4.385  17.933  0.00  0.00    +0.000 A 
ATOM      6  C   UNL     1       4.685   5.457  17.103  0.00  0.00    +0.000 A 
ATOM      7  C   UNL     1       3.584   6.103  17.998  0.00  0.00    +0.000 C 
ATOM      8  O   UNL     1       3.338   7.299  18.045  0.00  0.00    +0.000 OA
ATOM      9  N   UNL     1       3.053   5.071  18.818  0.00  0.00    +0.000 N 
ATOM     10  C   UNL     1       3.687   3.839  18.427  0.00  0.00    +0.000 C 
ENDROOT
BRANCH   9  11
ATOM     11  C   UNL     1       2.243   5.046  20.064  0.00  0.00    +0.000 C 
ATOM     12  C   UNL     1       0.795   4.548  19.927  0.00  0.00    +0.000 C 
ATOM     13  C   UNL     1       0.630   3.043  20.093  0.00  0.00    +0.000 C 
ATOM     14  C   UNL     1       1.341   2.507  21.334  0.00  0.00    +0.000 C 
ATOM     15  C   UNL     1       2.791   2.969  21.433  0.00  0.00    +0.000 C 
ATOM     16  C   UNL     1       2.923   4.476  21.306  0.00  0.00    +0.000 C 
ENDBRANCH   9  11
BRANCH   1  18
ATOM     17  N   UNL     1       5.244   4.521  14.532  0.00  0.00    +0.000 N 
ATOM     18  C   UNL     1       6.200   5.325  15.182  0.00  0.00    +0.000 C 
ATOM     19  O   UNL     1       7.333   5.525  14.749  0.00  0.00    +0.000 OA
ATOM     20  H   UNL     1       4.368   4.357  15.005  0.00  0.00    +0.000 HD
BRANCH  17  27
ATOM     21  C   UNL     1       3.037   3.152  10.275  0.00  0.00    +0.000 C 
ATOM     22  C   UNL     1       4.254   3.180  11.165  0.00  0.00    +0.000 A 
ATOM     23  C   UNL     1       5.393   2.474  10.774  0.00  0.00    +0.000 A 
ATOM     24  C   UNL     1       6.516   2.461  11.609  0.00  0.00    +0.000 A 
ATOM     25  C   UNL     1       7.745   1.704  11.177  0.00  0.00    +0.000 C 
ATOM     26  C   UNL     1       6.498   3.159  12.831  0.00  0.00    +0.000 A 
ATOM     27  C   UNL     1       5.363   3.852  13.263  0.00  0.00    +0.000 A 
ATOM     28  C   UNL     1       4.252   3.881  12.390  0.00  0.00    +0.000 A 
ENDBRANCH  17  27
ENDBRANCH   1  18
TORSDOF 3
ENDMDL
MODEL 9
REMARK VINA RESULT:      -8.5      1.437      1.766
REMARK  Name = 
REMARK  5 active torsions:
REMARK  status: ('A' for Active; 'I' for Inactive)
REMARK    1  A    between atoms: C_1  and  C_2
REMARK    2  A    between atoms: C_4  and  C_5
REMARK    3  A    between atoms: C_7  and  N_8
REMARK    4  A    between atoms: C_9  and  C_11
REMARK    5  A    between atoms: N_19  and  C_20
REMARK                            x       y       z     vdW  Elec       q    Type
REMARK                         _______ _______ _______ _____ _____    ______ ____
ROOT
ATOM      1  C   UNL     1       7.046   6.022  17.853  0.00  0.00    +0.000 A 
ATOM      2  C   UNL     1       7.155   5.670  16.505  0.00  0.00    +0.000 A 
ATOM      3  C   UNL     1       6.084   5.975  15.661  0.00  0.00    +0.000 A 
ATOM      4  C   UNL     1       4.955   6.630  16.177  0.00  0.00    +0.000 A 
ATOM      5  C   UNL     1       4.827   6.769  17.562  0.00  0.00    +0.000 A 
ATOM      6  C   UNL     1       5.738   6.089  18.356  0.00  0.00    +0.000 A 
ATOM      7  C   UNL     1       4.793   4.924  18.781  0.00  0.00    +0.000 C 
ATOM      8  O   UNL     1       5.161   3.788  19.041  0.00  0.00    +0.000 OA
ATOM      9  N   UNL     1       3.460   5.402  18.662  0.00  0.00    +0.000 N 
ATOM     10  C   UNL     1       3.530   6.789  18.283  0.00  0.00    +0.000 C 
ENDROOT
BRANCH   9  11
ATOM     11  C   UNL     1       2.125   4.753  18.599  0.00  0.00    +0.000 C 
ATOM     12  C   UNL     1       1.937   3.680  17.515  0.00  0.00    +0.000 C 
ATOM     13  C   UNL     1       2.318   2.271  17.953  0.00  0.00    +0.000 C 
ATOM     14  C   UNL     1       1.705   1.887  19.298  0.00  0.00    +0.000 C 
ATOM     15  C   UNL     1       1.939   2.940  20.378  0.00  0.00    +0.000 C 
ATOM     16  C   UNL     1       1.513   4.326  19.931  0.00  0.00    +0.000 C 
ENDBRANCH   9  11
BRANCH   1  18
ATOM     17  N   UNL     1       7.615   8.493  17.526  0.00  0.00    +0.000 N 
ATOM     18  C   UNL     1       7.866   7.297  18.225  0.00  0.00    +0.000 C 
ATOM     19  O   UNL     1       8.662   7.204  19.157  0.00  0.00    +0.000 OA
ATOM     20  H   UNL     1       7.000   8.449  16.727  0.00  0.00    +0.000 HD
BRANCH  17  27
ATOM     21  C   UNL     1      11.113  11.221  19.802  0.00  0.00    +0.000 C 
ATOM     22  C   UNL     1       9.895  11.134  18.918  0.00  0.00    +0.000 A 
ATOM     23  C   UNL     1       9.292  12.315  18.480  0.00  0.00    +0.000 A 
ATOM     24  C   UNL     1       8.140  12.248  17.690  0.00  0.00    +0.000 A 
ATOM     25  C   UNL     1       7.499  13.526  17.213  0.00  0.00    +0.000 C 
ATOM     26  C   UNL     1       7.595  10.999  17.335  0.00  0.00    +0.000 A 
ATOM     27  C   UNL     1       8.159   9.800  17.781  0.00  0.00    +0.000 A 
ATOM     28  C   UNL     1       9.342   9.889  18.550  0.00  0.00    +0.000 A 
ENDBRANCH  17  27
ENDBRANCH   1  18
TORSDOF 3
ENDMDL
