MODEL 1
REMARK VINA RESULT:      -8.1      0.000      0.000
REMARK  Name = 
REMARK  8 active torsions:
REMARK  status: ('A' for Active; 'I' for Inactive)
REMARK    1  A    between atoms: C_1  and  O_2
REMARK    2  A    between atoms: O_2  and  C_3
REMARK    3  A    between atoms: N_5  and  C_6
REMARK    4  A    between atoms: C_8  and  C_9
REMARK    5  A    between atoms: C_15  and  O_16
REMARK    6  A    between atoms: O_16  and  C_17
REMARK    7  A    between atoms: C_19  and  C_20
REMARK    8  A    between atoms: C_22  and  C_23
REMARK                            x       y       z     vdW  Elec       q    Type
REMARK                         _______ _______ _______ _____ _____    ______ ____
ROOT
ATOM      1  C   UNL     1       1.968   5.330  20.195  0.00  0.00    +0.000 C 
ATOM      2  O   UNL     1       1.910   5.028  21.385  0.00  0.00    +0.000 OA
ATOM      3  N   UNL     1       1.943   4.339  19.203  0.00  0.00    +0.000 N 
ATOM      4  C   UNL     1       1.534   2.988  19.575  0.00  0.00    +0.000 C 
ATOM      5  C   UNL     1       2.641   1.981  19.291  0.00  0.00    +0.000 C 
ATOM      6  C   UNL     1       3.042   2.037  17.816  0.00  0.00    +0.000 C 
ATOM      7  C   UNL     1       3.458   3.452  17.405  0.00  0.00    +0.000 C 
ATOM      8  C   UNL     1       2.407   4.498  17.822  0.00  0.00    +0.000 C 
ENDROOT
BRANCH   1  14
ATOM      9  C   UNL     1       1.511   7.853  20.514  0.00  0.00    +0.000 A 
ATOM     10  N   UNL     1       1.644   9.008  19.853  0.00  0.00    +0.000 NA
ATOM     11  N   UNL     1       2.123   8.626  18.664  0.00  0.00    +0.000 N 
ATOM     12  C   UNL     1       2.339   9.599  17.624  0.00  0.00    +0.000 C 
ATOM     13  C   UNL     1       2.311   7.280  18.562  0.00  0.00    +0.000 A 
ATOM     14  C   UNL     1       1.983   6.731  19.792  0.00  0.00    +0.000 A 
BRANCH   9  16
ATOM     15  C   UNL     1       0.942   9.173  22.321  0.00  0.00    +0.000 C 
ATOM     16  O   UNL     1       0.983   7.867  21.757  0.00  0.00    +0.000 OA
ENDBRANCH   9  16
ENDBRANCH   1  14
BRANCH   7  17
ATOM     17  O   UNL     1       4.703   3.802  18.040  0.00  0.00    +0.000 OA
BRANCH  17  18
ATOM     18  C   UNL     1       5.548   4.569  17.261  0.00  0.00    +0.000 A 
ATOM     19  C   UNL     1       5.741   4.154  15.965  0.00  0.00    +0.000 A 
ATOM     20  C   UNL     1       6.630   4.905  15.224  0.00  0.00    +0.000 A 
ATOM     21  C   UNL     1       6.969   4.540  13.811  0.00  0.00    +0.000 C 
ATOM     22  N   UNL     1       7.258   5.988  15.729  0.00  0.00    +0.000 NA
ATOM     23  C   UNL     1       6.978   6.318  17.002  0.00  0.00    +0.000 A 
ATOM     24  C   UNL     1       7.662   7.510  17.595  0.00  0.00    +0.000 C 
ATOM     25  N   UNL     1       6.135   5.649  17.797  0.00  0.00    +0.000 NA
ENDBRANCH  17  18
ENDBRANCH   7  17
TORSDOF 4
ENDMDL
MODEL 2
REMARK VINA RESULT:      -8.1      0.617      1.693
REMARK  Name = 
REMARK  8 active torsions:
REMARK  status: ('A' for Active; 'I' for Inactive)
REMARK    1  A    between atoms: C_1  and  O_2
REMARK    2  A    between atoms: O_2  and  C_3
REMARK    3  A    between atoms: N_5  and  C_6
REMARK    4  A    between atoms: C_8  and  C_9
REMARK    5  A    between atoms: C_15  and  O_16
REMARK    6  A    between atoms: O_16  and  C_17
REMARK    7  A    between atoms: C_19  and  C_20
REMARK    8  A    between atoms: C_22  and  C_23
REMARK                            x       y       z     vdW  Elec       q    Type
REMARK                         _______ _______ _______ _____ _____    ______ ____
ROOT
ATOM      1  C   UNL     1       1.996   5.240  20.211  0.00  0.00    +0.000 C 
ATOM      2  O   UNL     1       1.921   4.940  21.401  0.00  0.00    +0.000 OA
ATOM      3  N   UNL     1       2.015   4.246  19.223  0.00  0.00    +0.000 N 
ATOM      4  C   UNL     1       1.631   2.887  19.591  0.00  0.00    +0.000 C 
ATOM      5  C   UNL     1       2.766   1.906  19.332  0.00  0.00    +0.000 C 
ATOM      6  C   UNL     1       3.196   1.967  17.866  0.00  0.00    +0.000 C 
ATOM      7  C   UNL     1       3.586   3.390  17.458  0.00  0.00    +0.000 C 
ATOM      8  C   UNL     1       2.504   4.412  17.850  0.00  0.00    +0.000 C 
ENDROOT
BRANCH   1  14
ATOM      9  C   UNL     1       1.427   7.745  20.489  0.00  0.00    +0.000 A 
ATOM     10  N   UNL     1       1.561   8.903  19.833  0.00  0.00    +0.000 NA
ATOM     11  N   UNL     1       2.132   8.537  18.680  0.00  0.00    +0.000 N 
ATOM     12  C   UNL     1       2.380   9.515  17.652  0.00  0.00    +0.000 C 
ATOM     13  C   UNL     1       2.375   7.199  18.597  0.00  0.00    +0.000 A 
ATOM     14  C   UNL     1       1.987   6.640  19.804  0.00  0.00    +0.000 A 
BRANCH   9  16
ATOM     15  C   UNL     1      -0.235   8.696  21.779  0.00  0.00    +0.000 C 
ATOM     16  O   UNL     1       0.818   7.743  21.694  0.00  0.00    +0.000 OA
ENDBRANCH   9  16
ENDBRANCH   1  14
BRANCH   7  17
ATOM     17  O   UNL     1       4.810   3.771  18.117  0.00  0.00    +0.000 OA
BRANCH  17  18
ATOM     18  C   UNL     1       5.673   4.517  17.337  0.00  0.00    +0.000 A 
ATOM     19  C   UNL     1       6.250   5.615  17.929  0.00  0.00    +0.000 A 
ATOM     20  C   UNL     1       7.065   6.373  17.115  0.00  0.00    +0.000 A 
ATOM     21  C   UNL     1       7.723   7.622  17.617  0.00  0.00    +0.000 C 
ATOM     22  N   UNL     1       7.299   6.052  15.824  0.00  0.00    +0.000 NA
ATOM     23  C   UNL     1       6.700   4.943  15.353  0.00  0.00    +0.000 A 
ATOM     24  C   UNL     1       6.933   4.562  13.925  0.00  0.00    +0.000 C 
ATOM     25  N   UNL     1       5.892   4.150  16.066  0.00  0.00    +0.000 NA
ENDBRANCH  17  18
ENDBRANCH   7  17
TORSDOF 4
ENDMDL
MODEL 3
REMARK VINA RESULT:      -7.9      1.587      6.667
REMARK  Name = 
REMARK  8 active torsions:
REMARK  status: ('A' for Active; 'I' for Inactive)
REMARK    1  A    between atoms: C_1  and  O_2
REMARK    2  A    between atoms: O_2  and  C_3
REMARK    3  A    between atoms: N_5  and  C_6
REMARK    4  A    between atoms: C_8  and  C_9
REMARK    5  A    between atoms: C_15  and  O_16
REMARK    6  A    between atoms: O_16  and  C_17
REMARK    7  A    between atoms: C_19  and  C_20
REMARK    8  A    between atoms: C_22  and  C_23
REMARK                            x       y       z     vdW  Elec       q    Type
REMARK                         _______ _______ _______ _____ _____    ______ ____
ROOT
ATOM      1  C   UNL     1       4.194   4.555  17.304  0.00  0.00    +0.000 C 
ATOM      2  O   UNL     1       3.709   3.904  16.380  0.00  0.00    +0.000 OA
ATOM      3  N   UNL     1       3.664   4.464  18.598  0.00  0.00    +0.000 N 
ATOM      4  C   UNL     1       2.749   3.368  18.905  0.00  0.00    +0.000 C 
ATOM      5  C   UNL     1       1.393   3.895  19.353  0.00  0.00    +0.000 C 
ATOM      6  C   UNL     1       1.556   4.816  20.563  0.00  0.00    +0.000 C 
ATOM      7  C   UNL     1       2.526   5.962  20.264  0.00  0.00    +0.000 C 
ATOM      8  C   UNL     1       3.850   5.447  19.670  0.00  0.00    +0.000 C 
ENDROOT
BRANCH   1  14
ATOM      9  C   UNL     1       6.525   5.060  16.310  0.00  0.00    +0.000 A 
ATOM     10  N   UNL     1       7.460   6.017  16.331  0.00  0.00    +0.000 NA
ATOM     11  N   UNL     1       6.959   6.914  17.187  0.00  0.00    +0.000 N 
ATOM     12  C   UNL     1       7.723   8.085  17.537  0.00  0.00    +0.000 C 
ATOM     13  C   UNL     1       5.742   6.565  17.689  0.00  0.00    +0.000 A 
ATOM     14  C   UNL     1       5.380   5.372  17.082  0.00  0.00    +0.000 A 
BRANCH   9  16
ATOM     15  C   UNL     1       6.372   4.114  14.210  0.00  0.00    +0.000 C 
ATOM     16  O   UNL     1       6.742   3.949  15.574  0.00  0.00    +0.000 OA
ENDBRANCH   9  16
ENDBRANCH   1  14
BRANCH   7  17
ATOM     17  O   UNL     1       1.938   6.867  19.310  0.00  0.00    +0.000 OA
BRANCH  17  18
ATOM     18  C   UNL     1       1.541   8.080  19.838  0.00  0.00    +0.000 A 
ATOM     19  C   UNL     1       1.186   8.089  21.166  0.00  0.00    +0.000 A 
ATOM     20  C   UNL     1       0.742   9.299  21.657  0.00  0.00    +0.000 A 
ATOM     21  C   UNL     1       0.280   9.443  23.075  0.00  0.00    +0.000 C 
ATOM     22  N   UNL     1       0.677  10.410  20.892  0.00  0.00    +0.000 NA
ATOM     23  C   UNL     1       1.071  10.293  19.611  0.00  0.00    +0.000 A 
ATOM     24  C   UNL     1       1.005  11.504  18.734  0.00  0.00    +0.000 C 
ATOM     25  N   UNL     1       1.511   9.162  19.047  0.00  0.00    +0.000 NA
ENDBRANCH  17  18
ENDBRANCH   7  17
TORSDOF 4
ENDMDL
MODEL 4
REMARK VINA RESULT:      -7.9      1.649      6.593
REMARK  Name = 
REMARK  8 active torsions:
REMARK  status: ('A' for Active; 'I' for Inactive)
REMARK    1  A    between atoms: C_1  and  O_2
REMARK    2  A    between atoms: O_2  and  C_3
REMARK    3  A    between atoms: N_5  and  C_6
REMARK    4  A    between atoms: C_8  and  C_9
REMARK    5  A    between atoms: C_15  and  O_16
REMARK    6  A    between atoms: O_16  and  C_17
REMARK    7  A    between atoms: C_19  and  C_20
REMARK    8  A    between atoms: C_22  and  C_23
REMARK                            x       y       z     vdW  Elec       q    Type
REMARK                         _______ _______ _______ _____ _____    ______ ____
ROOT
ATOM      1  C   UNL     1       4.208   4.575  17.286  0.00  0.00    +0.000 C 
ATOM      2  O   UNL     1       3.721   3.929  16.361  0.00  0.00    +0.000 OA
ATOM      3  N   UNL     1       3.673   4.489  18.579  0.00  0.00    +0.000 N 
ATOM      4  C   UNL     1       2.746   3.403  18.881  0.00  0.00    +0.000 C 
ATOM      5  C   UNL     1       1.393   3.942  19.324  0.00  0.00    +0.000 C 
ATOM      6  C   UNL     1       1.559   4.861  20.535  0.00  0.00    +0.000 C 
ATOM      7  C   UNL     1       2.541   5.998  20.240  0.00  0.00    +0.000 C 
ATOM      8  C   UNL     1       3.863   5.470  19.652  0.00  0.00    +0.000 C 
ENDROOT
BRANCH   1  14
ATOM      9  C   UNL     1       6.540   5.067  16.287  0.00  0.00    +0.000 A 
ATOM     10  N   UNL     1       7.486   6.012  16.316  0.00  0.00    +0.000 NA
ATOM     11  N   UNL     1       7.002   6.902  17.188  0.00  0.00    +0.000 N 
ATOM     12  C   UNL     1       7.782   8.059  17.550  0.00  0.00    +0.000 C 
ATOM     13  C   UNL     1       5.783   6.560  17.692  0.00  0.00    +0.000 A 
ATOM     14  C   UNL     1       5.403   5.382  17.070  0.00  0.00    +0.000 A 
BRANCH   9  16
ATOM     15  C   UNL     1       6.443   4.179  14.158  0.00  0.00    +0.000 C 
ATOM     16  O   UNL     1       6.739   3.964  15.533  0.00  0.00    +0.000 OA
ENDBRANCH   9  16
ENDBRANCH   1  14
BRANCH   7  17
ATOM     17  O   UNL     1       1.966   6.908  19.283  0.00  0.00    +0.000 OA
BRANCH  17  18
ATOM     18  C   UNL     1       1.514   8.097  19.823  0.00  0.00    +0.000 A 
ATOM     19  C   UNL     1       1.473   9.183  18.981  0.00  0.00    +0.000 A 
ATOM     20  C   UNL     1       1.069  10.369  19.556  0.00  0.00    +0.000 A 
ATOM     21  C   UNL     1       1.022  11.641  18.766  0.00  0.00    +0.000 C 
ATOM     22  N   UNL     1       0.718  10.460  20.858  0.00  0.00    +0.000 NA
ATOM     23  C   UNL     1       0.774   9.330  21.585  0.00  0.00    +0.000 A 
ATOM     24  C   UNL     1       0.397   9.397  23.031  0.00  0.00    +0.000 C 
ATOM     25  N   UNL     1       1.156   8.137  21.115  0.00  0.00    +0.000 NA
ENDBRANCH  17  18
ENDBRANCH   7  17
TORSDOF 4
ENDMDL
MODEL 5
REMARK VINA RESULT:      -7.6      2.049      6.331
REMARK  Name = 
REMARK  8 active torsions:
REMARK  status: ('A' for Active; 'I' for Inactive)
REMARK    1  A    between atoms: C_1  and  O_2
REMARK    2  A    between atoms: O_2  and  C_3
REMARK    3  A    between atoms: N_5  and  C_6
REMARK    4  A    between atoms: C_8  and  C_9
REMARK    5  A    between atoms: C_15  and  O_16
REMARK    6  A    between atoms: O_16  and  C_17
REMARK    7  A    between atoms: C_19  and  C_20
REMARK    8  A    between atoms: C_22  and  C_23
REMARK                            x       y       z     vdW  Elec       q    Type
REMARK                         _______ _______ _______ _____ _____    ______ ____
ROOT
ATOM      1  C   UNL     1       5.399   5.499  17.076  0.00  0.00    +0.000 C 
ATOM      2  O   UNL     1       5.345   5.084  15.920  0.00  0.00    +0.000 OA
ATOM      3  N   UNL     1       4.484   5.052  18.040  0.00  0.00    +0.000 N 
ATOM      4  C   UNL     1       3.679   3.870  17.745  0.00  0.00    +0.000 C 
ATOM      5  C   UNL     1       2.192   4.195  17.783  0.00  0.00    +0.000 C 
ATOM      6  C   UNL     1       1.813   4.781  19.143  0.00  0.00    +0.000 C 
ATOM      7  C   UNL     1       2.660   6.012  19.476  0.00  0.00    +0.000 C 
ATOM      8  C   UNL     1       4.163   5.734  19.297  0.00  0.00    +0.000 C 
ENDROOT
BRANCH   1  14
ATOM      9  C   UNL     1       7.535   6.149  18.376  0.00  0.00    +0.000 A 
ATOM     10  N   UNL     1       8.337   7.203  18.563  0.00  0.00    +0.000 NA
ATOM     11  N   UNL     1       7.740   8.170  17.858  0.00  0.00    +0.000 N 
ATOM     12  C   UNL     1       8.275   9.509  17.866  0.00  0.00    +0.000 C 
ATOM     13  C   UNL     1       6.606   7.759  17.224  0.00  0.00    +0.000 A 
ATOM     14  C   UNL     1       6.467   6.404  17.482  0.00  0.00    +0.000 A 
BRANCH   9  16
ATOM     15  C   UNL     1       8.333   5.195  20.321  0.00  0.00    +0.000 C 
ATOM     16  O   UNL     1       7.818   4.991  19.010  0.00  0.00    +0.000 OA
ENDBRANCH   9  16
ENDBRANCH   1  14
BRANCH   7  17
ATOM     17  O   UNL     1       2.307   7.102  18.602  0.00  0.00    +0.000 OA
BRANCH  17  18
ATOM     18  C   UNL     1       1.780   8.206  19.244  0.00  0.00    +0.000 A 
ATOM     19  C   UNL     1       1.620   9.343  18.490  0.00  0.00    +0.000 A 
ATOM     20  C   UNL     1       1.143  10.446  19.166  0.00  0.00    +0.000 A 
ATOM     21  C   UNL     1       0.962  11.764  18.478  0.00  0.00    +0.000 C 
ATOM     22  N   UNL     1       0.836  10.412  20.481  0.00  0.00    +0.000 NA
ATOM     23  C   UNL     1       1.010   9.240  21.118  0.00  0.00    +0.000 A 
ATOM     24  C   UNL     1       0.685   9.168  22.577  0.00  0.00    +0.000 C 
ATOM     25  N   UNL     1       1.470   8.121  20.546  0.00  0.00    +0.000 NA
ENDBRANCH  17  18
ENDBRANCH   7  17
TORSDOF 4
ENDMDL
MODEL 6
REMARK VINA RESULT:      -7.5      1.092      1.844
REMARK  Name = 
REMARK  8 active torsions:
REMARK  status: ('A' for Active; 'I' for Inactive)
REMARK    1  A    between atoms: C_1  and  O_2
REMARK    2  A    between atoms: O_2  and  C_3
REMARK    3  A    between atoms: N_5  and  C_6
REMARK    4  A    between atoms: C_8  and  C_9
REMARK    5  A    between atoms: C_15  and  O_16
REMARK    6  A    between atoms: O_16  and  C_17
REMARK    7  A    between atoms: C_19  and  C_20
REMARK    8  A    between atoms: C_22  and  C_23
REMARK                            x       y       z     vdW  Elec       q    Type
REMARK                         _______ _______ _______ _____ _____    ______ ____
ROOT
ATOM      1  C   UNL     1       1.750   4.672  20.565  0.00  0.00    +0.000 C 
ATOM      2  O   UNL     1       1.807   4.118  21.662  0.00  0.00    +0.000 OA
ATOM      3  N   UNL     1       1.744   3.918  19.383  0.00  0.00    +0.000 N 
ATOM      4  C   UNL     1       1.491   2.483  19.469  0.00  0.00    +0.000 C 
ATOM      5  C   UNL     1       2.661   1.684  18.914  0.00  0.00    +0.000 C 
ATOM      6  C   UNL     1       2.946   2.096  17.469  0.00  0.00    +0.000 C 
ATOM      7  C   UNL     1       3.198   3.602  17.358  0.00  0.00    +0.000 C 
ATOM      8  C   UNL     1       2.089   4.417  18.048  0.00  0.00    +0.000 C 
ENDROOT
BRANCH   1  14
ATOM      9  C   UNL     1       2.350   7.026  19.687  0.00  0.00    +0.000 A 
ATOM     10  N   UNL     1       1.990   8.304  19.857  0.00  0.00    +0.000 NA
ATOM     11  N   UNL     1       1.071   8.235  20.826  0.00  0.00    +0.000 N 
ATOM     12  C   UNL     1       0.482   9.441  21.351  0.00  0.00    +0.000 C 
ATOM     13  C   UNL     1       0.830   6.965  21.257  0.00  0.00    +0.000 A 
ATOM     14  C   UNL     1       1.606   6.120  20.480  0.00  0.00    +0.000 A 
BRANCH   9  16
ATOM     15  C   UNL     1       3.345   7.624  17.691  0.00  0.00    +0.000 C 
ATOM     16  O   UNL     1       3.326   6.734  18.801  0.00  0.00    +0.000 OA
ENDBRANCH   9  16
ENDBRANCH   1  14
BRANCH   7  17
ATOM     17  O   UNL     1       4.449   3.939  17.989  0.00  0.00    +0.000 OA
BRANCH  17  18
ATOM     18  C   UNL     1       5.348   4.591  17.168  0.00  0.00    +0.000 A 
ATOM     19  C   UNL     1       5.472   4.113  15.885  0.00  0.00    +0.000 A 
ATOM     20  C   UNL     1       6.414   4.746  15.101  0.00  0.00    +0.000 A 
ATOM     21  C   UNL     1       6.686   4.300  13.697  0.00  0.00    +0.000 C 
ATOM     22  N   UNL     1       7.157   5.780  15.554  0.00  0.00    +0.000 NA
ATOM     23  C   UNL     1       6.937   6.180  16.819  0.00  0.00    +0.000 A 
ATOM     24  C   UNL     1       7.746   7.319  17.355  0.00  0.00    +0.000 C 
ATOM     25  N   UNL     1       6.049   5.626  17.653  0.00  0.00    +0.000 NA
ENDBRANCH  17  18
ENDBRANCH   7  17
TORSDOF 4
ENDMDL
MODEL 7
REMARK VINA RESULT:      -7.4      2.089      6.548
REMARK  Name = 
REMARK  8 active torsions:
REMARK  status: ('A' for Active; 'I' for Inactive)
REMARK    1  A    between atoms: C_1  and  O_2
REMARK    2  A    between atoms: O_2  and  C_3
REMARK    3  A    between atoms: N_5  and  C_6
REMARK    4  A    between atoms: C_8  and  C_9
REMARK    5  A    between atoms: C_15  and  O_16
REMARK    6  A    between atoms: O_16  and  C_17
REMARK    7  A    between atoms: C_19  and  C_20
REMARK    8  A    between atoms: C_22  and  C_23
REMARK                            x       y       z     vdW  Elec       q    Type
REMARK                         _______ _______ _______ _____ _____    ______ ____
ROOT
ATOM      1  C   UNL     1       5.360   5.653  17.085  0.00  0.00    +0.000 C 
ATOM      2  O   UNL     1       5.282   5.284  15.914  0.00  0.00    +0.000 OA
ATOM      3  N   UNL     1       4.442   5.197  18.041  0.00  0.00    +0.000 N 
ATOM      4  C   UNL     1       3.598   4.053  17.710  0.00  0.00    +0.000 C 
ATOM      5  C   UNL     1       2.122   4.421  17.778  0.00  0.00    +0.000 C 
ATOM      6  C   UNL     1       1.774   4.966  19.163  0.00  0.00    +0.000 C 
ATOM      7  C   UNL     1       2.662   6.157  19.533  0.00  0.00    +0.000 C 
ATOM      8  C   UNL     1       4.155   5.840  19.327  0.00  0.00    +0.000 C 
ENDROOT
BRANCH   1  14
ATOM      9  C   UNL     1       7.489   6.211  18.440  0.00  0.00    +0.000 A 
ATOM     10  N   UNL     1       8.336   7.226  18.640  0.00  0.00    +0.000 NA
ATOM     11  N   UNL     1       7.807   8.214  17.911  0.00  0.00    +0.000 N 
ATOM     12  C   UNL     1       8.407   9.524  17.923  0.00  0.00    +0.000 C 
ATOM     13  C   UNL     1       6.672   7.852  17.249  0.00  0.00    +0.000 A 
ATOM     14  C   UNL     1       6.460   6.508  17.514  0.00  0.00    +0.000 A 
BRANCH   9  16
ATOM     15  C   UNL     1       8.363   5.225  20.336  0.00  0.00    +0.000 C 
ATOM     16  O   UNL     1       7.697   5.046  19.091  0.00  0.00    +0.000 OA
ENDBRANCH   9  16
ENDBRANCH   1  14
BRANCH   7  17
ATOM     17  O   UNL     1       2.335   7.290  18.705  0.00  0.00    +0.000 OA
BRANCH  17  18
ATOM     18  C   UNL     1       1.676   8.310  19.363  0.00  0.00    +0.000 A 
ATOM     19  C   UNL     1       1.548   8.185  20.726  0.00  0.00    +0.000 A 
ATOM     20  C   UNL     1       0.840   9.189  21.353  0.00  0.00    +0.000 A 
ATOM     21  C   UNL     1       0.585   9.157  22.829  0.00  0.00    +0.000 C 
ATOM     22  N   UNL     1       0.320  10.238  20.679  0.00  0.00    +0.000 NA
ATOM     23  C   UNL     1       0.525  10.272  19.351  0.00  0.00    +0.000 A 
ATOM     24  C   UNL     1      -0.042  11.417  18.572  0.00  0.00    +0.000 C 
ATOM     25  N   UNL     1       1.194   9.343  18.657  0.00  0.00    +0.000 NA
ENDBRANCH  17  18
ENDBRANCH   7  17
TORSDOF 4
ENDMDL
MODEL 8
REMARK VINA RESULT:      -7.3      1.195      2.477
REMARK  Name = 
REMARK  8 active torsions:
REMARK  status: ('A' for Active; 'I' for Inactive)
REMARK    1  A    between atoms: C_1  and  O_2
REMARK    2  A    between atoms: O_2  and  C_3
REMARK    3  A    between atoms: N_5  and  C_6
REMARK    4  A    between atoms: C_8  and  C_9
REMARK    5  A    between atoms: C_15  and  O_16
REMARK    6  A    between atoms: O_16  and  C_17
REMARK    7  A    between atoms: C_19  and  C_20
REMARK    8  A    between atoms: C_22  and  C_23
REMARK                            x       y       z     vdW  Elec       q    Type
REMARK                         _______ _______ _______ _____ _____    ______ ____
ROOT
ATOM      1  C   UNL     1       1.773   4.677  20.556  0.00  0.00    +0.000 C 
ATOM      2  O   UNL     1       1.794   4.118  21.651  0.00  0.00    +0.000 OA
ATOM      3  N   UNL     1       1.812   3.930  19.370  0.00  0.00    +0.000 N 
ATOM      4  C   UNL     1       1.563   2.494  19.440  0.00  0.00    +0.000 C 
ATOM      5  C   UNL     1       2.757   1.703  18.922  0.00  0.00    +0.000 C 
ATOM      6  C   UNL     1       3.091   2.124  17.491  0.00  0.00    +0.000 C 
ATOM      7  C   UNL     1       3.339   3.632  17.396  0.00  0.00    +0.000 C 
ATOM      8  C   UNL     1       2.202   4.438  18.051  0.00  0.00    +0.000 C 
ENDROOT
BRANCH   1  14
ATOM      9  C   UNL     1       2.346   7.032  19.659  0.00  0.00    +0.000 A 
ATOM     10  N   UNL     1       1.990   8.309  19.838  0.00  0.00    +0.000 NA
ATOM     11  N   UNL     1       1.097   8.240  20.832  0.00  0.00    +0.000 N 
ATOM     12  C   UNL     1       0.521   9.446  21.372  0.00  0.00    +0.000 C 
ATOM     13  C   UNL     1       0.869   6.970  21.270  0.00  0.00    +0.000 A 
ATOM     14  C   UNL     1       1.625   6.125  20.473  0.00  0.00    +0.000 A 
BRANCH   9  16
ATOM     15  C   UNL     1       3.339   7.676  17.677  0.00  0.00    +0.000 C 
ATOM     16  O   UNL     1       3.298   6.740  18.748  0.00  0.00    +0.000 OA
ENDBRANCH   9  16
ENDBRANCH   1  14
BRANCH   7  17
ATOM     17  O   UNL     1       4.565   3.971  18.073  0.00  0.00    +0.000 OA
BRANCH  17  18
ATOM     18  C   UNL     1       5.494   4.620  17.284  0.00  0.00    +0.000 A 
ATOM     19  C   UNL     1       6.161   5.677  17.856  0.00  0.00    +0.000 A 
ATOM     20  C   UNL     1       7.044   6.343  17.032  0.00  0.00    +0.000 A 
ATOM     21  C   UNL     1       7.805   7.541  17.511  0.00  0.00    +0.000 C 
ATOM     22  N   UNL     1       7.258   5.972  15.750  0.00  0.00    +0.000 NA
ATOM     23  C   UNL     1       6.568   4.909  15.300  0.00  0.00    +0.000 A 
ATOM     24  C   UNL     1       6.776   4.475  13.883  0.00  0.00    +0.000 C 
ATOM     25  N   UNL     1       5.689   4.206  16.023  0.00  0.00    +0.000 NA
ENDBRANCH  17  18
ENDBRANCH   7  17
TORSDOF 4
ENDMDL
MODEL 9
REMARK VINA RESULT:      -6.9      4.389      6.976
REMARK  Name = 
REMARK  8 active torsions:
REMARK  status: ('A' for Active; 'I' for Inactive)
REMARK    1  A    between atoms: C_1  and  O_2
REMARK    2  A    between atoms: O_2  and  C_3
REMARK    3  A    between atoms: N_5  and  C_6
REMARK    4  A    between atoms: C_8  and  C_9
REMARK    5  A    between atoms: C_15  and  O_16
REMARK    6  A    between atoms: O_16  and  C_17
REMARK    7  A    between atoms: C_19  and  C_20
REMARK    8  A    between atoms: C_22  and  C_23
REMARK                            x       y       z     vdW  Elec       q    Type
REMARK                         _______ _______ _______ _____ _____    ______ ____
ROOT
ATOM      1  C   UNL     1      -1.168  12.247  18.429  0.00  0.00    +0.000 C 
ATOM      2  O   UNL     1      -0.682  13.348  18.177  0.00  0.00    +0.000 OA
ATOM      3  N   UNL     1      -0.801  11.551  19.589  0.00  0.00    +0.000 N 
ATOM      4  C   UNL     1      -0.089  12.272  20.641  0.00  0.00    +0.000 C 
ATOM      5  C   UNL     1       1.271  11.645  20.913  0.00  0.00    +0.000 C 
ATOM      6  C   UNL     1       1.109  10.170  21.284  0.00  0.00    +0.000 C 
ATOM      7  C   UNL     1       0.350   9.402  20.199  0.00  0.00    +0.000 C 
ATOM      8  C   UNL     1      -0.961  10.111  19.811  0.00  0.00    +0.000 C 
ENDROOT
BRANCH   1  14
ATOM      9  C   UNL     1      -3.573  11.511  17.837  0.00  0.00    +0.000 A 
ATOM     10  N   UNL     1      -4.249  10.931  16.839  0.00  0.00    +0.000 NA
ATOM     11  N   UNL     1      -3.292  10.645  15.949  0.00  0.00    +0.000 N 
ATOM     12  C   UNL     1      -3.619   9.935  14.738  0.00  0.00    +0.000 C 
ATOM     13  C   UNL     1      -2.049  11.038  16.343  0.00  0.00    +0.000 A 
ATOM     14  C   UNL     1      -2.195  11.681  17.562  0.00  0.00    +0.000 A 
BRANCH   9  16
ATOM     15  C   UNL     1      -5.571  12.305  18.678  0.00  0.00    +0.000 C 
ATOM     16  O   UNL     1      -4.241  11.880  18.951  0.00  0.00    +0.000 OA
ENDBRANCH   9  16
ENDBRANCH   1  14
BRANCH   7  17
ATOM     17  O   UNL     1       1.161   9.298  19.012  0.00  0.00    +0.000 OA
BRANCH  17  18
ATOM     18  C   UNL     1       1.945   8.162  18.951  0.00  0.00    +0.000 A 
ATOM     19  C   UNL     1       2.850   8.090  17.920  0.00  0.00    +0.000 A 
ATOM     20  C   UNL     1       3.583   6.923  17.849  0.00  0.00    +0.000 A 
ATOM     21  C   UNL     1       4.574   6.691  16.750  0.00  0.00    +0.000 C 
ATOM     22  N   UNL     1       3.437   5.922  18.744  0.00  0.00    +0.000 NA
ATOM     23  C   UNL     1       2.538   6.108  19.727  0.00  0.00    +0.000 A 
ATOM     24  C   UNL     1       2.347   5.015  20.731  0.00  0.00    +0.000 C 
ATOM     25  N   UNL     1       1.781   7.201  19.873  0.00  0.00    +0.000 NA
ENDBRANCH  17  18
ENDBRANCH   7  17
TORSDOF 4
ENDMDL
