MODEL 1
REMARK VINA RESULT:      -9.3      0.000      0.000
REMARK  Name = 
REMARK  5 active torsions:
REMARK  status: ('A' for Active; 'I' for Inactive)
REMARK    1  A    between atoms: C_1  and  N_2
REMARK    2  A    between atoms: C_12  and  S_13
REMARK    3  A    between atoms: S_13  and  C_14
REMARK    4  A    between atoms: C_14  and  C_15
REMARK    5  A    between atoms: N_17  and  C_18
REMARK                            x       y       z     vdW  Elec       q    Type
REMARK                         _______ _______ _______ _____ _____    ______ ____
ROOT
ATOM      1  C   UNL     1       3.868   1.476  18.180  0.00  0.00    +0.000 C 
ATOM      2  N   UNL     1       3.739   2.920  18.511  0.00  0.00    +0.000 N 
ATOM      3  C   UNL     1       4.070   3.954  17.535  0.00  0.00    +0.000 A 
ATOM      4  C   UNL     1       4.961   3.654  16.483  0.00  0.00    +0.000 A 
ATOM      5  C   UNL     1       5.501   4.651  15.671  0.00  0.00    +0.000 A 
ATOM      6 CL   UNL     1       6.594   4.226  14.412  0.00  0.00    +0.000 Cl
ATOM      7  C   UNL     1       5.190   5.979  15.895  0.00  0.00    +0.000 A 
ATOM      8  C   UNL     1       4.324   6.304  16.939  0.00  0.00    +0.000 A 
ATOM      9  C   UNL     1       3.755   5.318  17.785  0.00  0.00    +0.000 A 
ATOM     10  C   UNL     1       2.878   5.736  18.899  0.00  0.00    +0.000 A 
ATOM     11  N   UNL     1       2.673   7.072  19.057  0.00  0.00    +0.000 NA
ATOM     12  C   UNL     1       1.853   7.479  20.046  0.00  0.00    +0.000 A 
ATOM     13  N   UNL     1       1.231   6.656  20.907  0.00  0.00    +0.000 NA
ATOM     14  C   UNL     1       1.434   5.340  20.714  0.00  0.00    +0.000 A 
ATOM     15  C   UNL     1       2.251   4.852  19.728  0.00  0.00    +0.000 A 
ATOM     16  S   UNL     1       2.371   3.163  19.496  0.00  0.00    +0.000 S 
ATOM     17  O   UNL     1       1.200   2.770  18.743  0.00  0.00    +0.000 OA
ATOM     18  O   UNL     1       2.659   2.559  20.784  0.00  0.00    +0.000 OA
ENDROOT
BRANCH  12  19
ATOM     19  S   UNL     1       1.547   9.216  20.199  0.00  0.00    +0.000 S 
BRANCH  19  20
ATOM     20  C   UNL     1       1.264   9.645  18.451  0.00  0.00    +0.000 C 
BRANCH  20  21
ATOM     21  C   UNL     1       0.075  10.587  18.321  0.00  0.00    +0.000 C 
ATOM     22  O   UNL     1       0.109  11.695  18.851  0.00  0.00    +0.000 OA
ATOM     23  N   UNL     1      -0.998  10.062  17.621  0.00  0.00    +0.000 N 
ATOM     24  H   UNL     1      -0.971   9.065  17.412  0.00  0.00    +0.000 HD
BRANCH  23  25
ATOM     25  C   UNL     1      -2.260  10.688  17.469  0.00  0.00    +0.000 A 
ATOM     26  C   UNL     1      -2.941  11.292  18.529  0.00  0.00    +0.000 A 
ATOM     27  C   UNL     1      -4.234  11.787  18.348  0.00  0.00    +0.000 A 
ATOM     28  C   UNL     1      -4.838  11.696  17.101  0.00  0.00    +0.000 A 
ATOM     29  F   UNL     1      -6.094  12.136  16.946  0.00  0.00    +0.000 F 
ATOM     30  C   UNL     1      -4.161  11.156  16.017  0.00  0.00    +0.000 A 
ATOM     31  C   UNL     1      -2.873  10.668  16.207  0.00  0.00    +0.000 A 
ATOM     32  F   UNL     1      -2.228  10.125  15.162  0.00  0.00    +0.000 F 
ENDBRANCH  23  25
ENDBRANCH  20  21
ENDBRANCH  19  20
ENDBRANCH  12  19
TORSDOF 4
ENDMDL
MODEL 2
REMARK VINA RESULT:      -8.6      1.025      1.375
REMARK  Name = 
REMARK  5 active torsions:
REMARK  status: ('A' for Active; 'I' for Inactive)
REMARK    1  A    between atoms: C_1  and  N_2
REMARK    2  A    between atoms: C_12  and  S_13
REMARK    3  A    between atoms: S_13  and  C_14
REMARK    4  A    between atoms: C_14  and  C_15
REMARK    5  A    between atoms: N_17  and  C_18
REMARK                            x       y       z     vdW  Elec       q    Type
REMARK                         _______ _______ _______ _____ _____    ______ ____
ROOT
ATOM      1  C   UNL     1       3.665   1.654  17.736  0.00  0.00    +0.000 C 
ATOM      2  N   UNL     1       3.605   3.056  18.229  0.00  0.00    +0.000 N 
ATOM      3  C   UNL     1       4.020   4.174  17.387  0.00  0.00    +0.000 A 
ATOM      4  C   UNL     1       4.923   3.946  16.328  0.00  0.00    +0.000 A 
ATOM      5  C   UNL     1       5.540   4.996  15.648  0.00  0.00    +0.000 A 
ATOM      6 CL   UNL     1       6.645   4.657  14.374  0.00  0.00    +0.000 Cl
ATOM      7  C   UNL     1       5.296   6.305  16.018  0.00  0.00    +0.000 A 
ATOM      8  C   UNL     1       4.419   6.559  17.073  0.00  0.00    +0.000 A 
ATOM      9  C   UNL     1       3.773   5.516  17.786  0.00  0.00    +0.000 A 
ATOM     10  C   UNL     1       2.888   5.854  18.922  0.00  0.00    +0.000 A 
ATOM     11  N   UNL     1       2.752   7.172  19.229  0.00  0.00    +0.000 NA
ATOM     12  C   UNL     1       1.927   7.511  20.240  0.00  0.00    +0.000 A 
ATOM     13  N   UNL     1       1.237   6.632  20.985  0.00  0.00    +0.000 NA
ATOM     14  C   UNL     1       1.373   5.337  20.645  0.00  0.00    +0.000 A 
ATOM     15  C   UNL     1       2.190   4.918  19.628  0.00  0.00    +0.000 A 
ATOM     16  S   UNL     1       2.224   3.262  19.205  0.00  0.00    +0.000 S 
ATOM     17  O   UNL     1       1.057   3.026  18.385  0.00  0.00    +0.000 OA
ATOM     18  O   UNL     1       2.442   2.500  20.420  0.00  0.00    +0.000 OA
ENDROOT
BRANCH  12  19
ATOM     19  S   UNL     1       1.712   9.233  20.585  0.00  0.00    +0.000 S 
BRANCH  19  20
ATOM     20  C   UNL     1       1.159   9.820  18.952  0.00  0.00    +0.000 C 
BRANCH  20  21
ATOM     21  C   UNL     1      -0.351  10.018  18.942  0.00  0.00    +0.000 C 
ATOM     22  O   UNL     1      -1.047   9.477  19.798  0.00  0.00    +0.000 OA
ATOM     23  N   UNL     1      -0.820  10.791  17.892  0.00  0.00    +0.000 N 
ATOM     24  H   UNL     1      -0.160  11.006  17.146  0.00  0.00    +0.000 HD
BRANCH  23  25
ATOM     25  C   UNL     1      -2.186  11.018  17.593  0.00  0.00    +0.000 A 
ATOM     26  C   UNL     1      -2.783  10.595  16.402  0.00  0.00    +0.000 A 
ATOM     27  C   UNL     1      -4.100  10.953  16.106  0.00  0.00    +0.000 A 
ATOM     28  C   UNL     1      -4.827  11.716  17.011  0.00  0.00    +0.000 A 
ATOM     29  F   UNL     1      -6.075  12.090  16.701  0.00  0.00    +0.000 F 
ATOM     30  C   UNL     1      -4.277  12.099  18.226  0.00  0.00    +0.000 A 
ATOM     31  C   UNL     1      -2.965  11.736  18.513  0.00  0.00    +0.000 A 
ATOM     32  F   UNL     1      -2.428  12.125  19.680  0.00  0.00    +0.000 F 
ENDBRANCH  23  25
ENDBRANCH  20  21
ENDBRANCH  19  20
ENDBRANCH  12  19
TORSDOF 4
ENDMDL
MODEL 3
REMARK VINA RESULT:      -8.6      3.895      4.332
REMARK  Name = 
REMARK  5 active torsions:
REMARK  status: ('A' for Active; 'I' for Inactive)
REMARK    1  A    between atoms: C_1  and  N_2
REMARK    2  A    between atoms: C_12  and  S_13
REMARK    3  A    between atoms: S_13  and  C_14
REMARK    4  A    between atoms: C_14  and  C_15
REMARK    5  A    between atoms: N_17  and  C_18
REMARK                            x       y       z     vdW  Elec       q    Type
REMARK                         _______ _______ _______ _____ _____    ______ ____
ROOT
ATOM      1  C   UNL     1       3.789   2.301  19.410  0.00  0.00    +0.000 C 
ATOM      2  N   UNL     1       3.601   3.776  19.452  0.00  0.00    +0.000 N 
ATOM      3  C   UNL     1       3.915   4.613  18.298  0.00  0.00    +0.000 A 
ATOM      4  C   UNL     1       4.838   4.151  17.337  0.00  0.00    +0.000 A 
ATOM      5  C   UNL     1       5.359   4.991  16.353  0.00  0.00    +0.000 A 
ATOM      6 CL   UNL     1       6.493   4.374  15.216  0.00  0.00    +0.000 Cl
ATOM      7  C   UNL     1       4.996   6.324  16.311  0.00  0.00    +0.000 A 
ATOM      8  C   UNL     1       4.097   6.812  17.260  0.00  0.00    +0.000 A 
ATOM      9  C   UNL     1       3.546   5.986  18.274  0.00  0.00    +0.000 A 
ATOM     10  C   UNL     1       2.632   6.578  19.273  0.00  0.00    +0.000 A 
ATOM     11  N   UNL     1       2.376   7.910  19.166  0.00  0.00    +0.000 NA
ATOM     12  C   UNL     1       1.521   8.469  20.045  0.00  0.00    +0.000 A 
ATOM     13  N   UNL     1       0.911   7.805  21.041  0.00  0.00    +0.000 NA
ATOM     14  C   UNL     1       1.165   6.485  21.111  0.00  0.00    +0.000 A 
ATOM     15  C   UNL     1       2.019   5.847  20.249  0.00  0.00    +0.000 A 
ATOM     16  S   UNL     1       2.205   4.151  20.352  0.00  0.00    +0.000 S 
ATOM     17  O   UNL     1       1.065   3.574  19.674  0.00  0.00    +0.000 OA
ATOM     18  O   UNL     1       2.487   3.820  21.737  0.00  0.00    +0.000 OA
ENDROOT
BRANCH  12  19
ATOM     19  S   UNL     1       1.150  10.189  19.853  0.00  0.00    +0.000 S 
BRANCH  19  20
ATOM     20  C   UNL     1      -0.568  10.214  20.459  0.00  0.00    +0.000 C 
BRANCH  20  21
ATOM     21  C   UNL     1      -0.663  11.011  21.753  0.00  0.00    +0.000 C 
ATOM     22  O   UNL     1      -0.017  10.662  22.738  0.00  0.00    +0.000 OA
ATOM     23  N   UNL     1      -1.545  12.078  21.704  0.00  0.00    +0.000 N 
ATOM     24  H   UNL     1      -2.163  12.131  20.895  0.00  0.00    +0.000 HD
BRANCH  23  25
ATOM     25  C   UNL     1      -1.903  12.893  22.806  0.00  0.00    +0.000 A 
ATOM     26  C   UNL     1      -3.097  12.733  23.514  0.00  0.00    +0.000 A 
ATOM     27  C   UNL     1      -3.454  13.641  24.513  0.00  0.00    +0.000 A 
ATOM     28  C   UNL     1      -2.605  14.697  24.819  0.00  0.00    +0.000 A 
ATOM     29  F   UNL     1      -2.974  15.587  25.750  0.00  0.00    +0.000 F 
ATOM     30  C   UNL     1      -1.386  14.844  24.173  0.00  0.00    +0.000 A 
ATOM     31  C   UNL     1      -1.039  13.933  23.181  0.00  0.00    +0.000 A 
ATOM     32  F   UNL     1       0.131  14.090  22.541  0.00  0.00    +0.000 F 
ENDBRANCH  23  25
ENDBRANCH  20  21
ENDBRANCH  19  20
ENDBRANCH  12  19
TORSDOF 4
ENDMDL
MODEL 4
REMARK VINA RESULT:      -8.6      1.444      1.543
REMARK  Name = 
REMARK  5 active torsions:
REMARK  status: ('A' for Active; 'I' for Inactive)
REMARK    1  A    between atoms: C_1  and  N_2
REMARK    2  A    between atoms: C_12  and  S_13
REMARK    3  A    between atoms: S_13  and  C_14
REMARK    4  A    between atoms: C_14  and  C_15
REMARK    5  A    between atoms: N_17  and  C_18
REMARK                            x       y       z     vdW  Elec       q    Type
REMARK                         _______ _______ _______ _____ _____    ______ ____
ROOT
ATOM      1  C   UNL     1       3.825   2.557  19.497  0.00  0.00    +0.000 C 
ATOM      2  N   UNL     1       3.693   4.030  19.330  0.00  0.00    +0.000 N 
ATOM      3  C   UNL     1       4.038   4.683  18.071  0.00  0.00    +0.000 A 
ATOM      4  C   UNL     1       4.943   4.056  17.190  0.00  0.00    +0.000 A 
ATOM      5  C   UNL     1       5.494   4.730  16.100  0.00  0.00    +0.000 A 
ATOM      6 CL   UNL     1       6.604   3.918  15.067  0.00  0.00    +0.000 Cl
ATOM      7  C   UNL     1       5.182   6.056  15.869  0.00  0.00    +0.000 A 
ATOM      8  C   UNL     1       4.302   6.706  16.735  0.00  0.00    +0.000 A 
ATOM      9  C   UNL     1       3.720   6.052  17.852  0.00  0.00    +0.000 A 
ATOM     10  C   UNL     1       2.829   6.812  18.754  0.00  0.00    +0.000 A 
ATOM     11  N   UNL     1       2.623   8.124  18.459  0.00  0.00    +0.000 NA
ATOM     12  C   UNL     1       1.790   8.833  19.247  0.00  0.00    +0.000 A 
ATOM     13  N   UNL     1       1.156   8.338  20.323  0.00  0.00    +0.000 NA
ATOM     14  C   UNL     1       1.360   7.033  20.579  0.00  0.00    +0.000 A 
ATOM     15  C   UNL     1       2.190   6.249  19.820  0.00  0.00    +0.000 A 
ATOM     16  S   UNL     1       2.312   4.579  20.162  0.00  0.00    +0.000 S 
ATOM     17  O   UNL     1       1.151   3.955  19.566  0.00  0.00    +0.000 OA
ATOM     18  O   UNL     1       2.582   4.436  21.581  0.00  0.00    +0.000 OA
ENDROOT
BRANCH  12  19
ATOM     19  S   UNL     1       1.483  10.521  18.813  0.00  0.00    +0.000 S 
BRANCH  19  20
ATOM     20  C   UNL     1       0.852  11.149  20.402  0.00  0.00    +0.000 C 
BRANCH  20  21
ATOM     21  C   UNL     1      -0.657  11.346  20.334  0.00  0.00    +0.000 C 
ATOM     22  O   UNL     1      -1.314  11.413  21.369  0.00  0.00    +0.000 OA
ATOM     23  N   UNL     1      -1.171  11.389  19.049  0.00  0.00    +0.000 N 
ATOM     24  H   UNL     1      -0.545  11.120  18.291  0.00  0.00    +0.000 HD
BRANCH  23  25
ATOM     25  C   UNL     1      -2.548  11.440  18.722  0.00  0.00    +0.000 A 
ATOM     26  C   UNL     1      -3.461  12.252  19.401  0.00  0.00    +0.000 A 
ATOM     27  C   UNL     1      -4.826  12.171  19.117  0.00  0.00    +0.000 A 
ATOM     28  C   UNL     1      -5.276  11.294  18.139  0.00  0.00    +0.000 A 
ATOM     29  F   UNL     1      -6.590  11.193  17.902  0.00  0.00    +0.000 F 
ATOM     30  C   UNL     1      -4.385  10.521  17.408  0.00  0.00    +0.000 A 
ATOM     31  C   UNL     1      -3.027  10.610  17.697  0.00  0.00    +0.000 A 
ATOM     32  F   UNL     1      -2.168   9.844  17.004  0.00  0.00    +0.000 F 
ENDBRANCH  23  25
ENDBRANCH  20  21
ENDBRANCH  19  20
ENDBRANCH  12  19
TORSDOF 4
ENDMDL
MODEL 5
REMARK VINA RESULT:      -8.5      2.744      3.111
REMARK  Name = 
REMARK  5 active torsions:
REMARK  status: ('A' for Active; 'I' for Inactive)
REMARK    1  A    between atoms: C_1  and  N_2
REMARK    2  A    between atoms: C_12  and  S_13
REMARK    3  A    between atoms: S_13  and  C_14
REMARK    4  A    between atoms: C_14  and  C_15
REMARK    5  A    between atoms: N_17  and  C_18
REMARK                            x       y       z     vdW  Elec       q    Type
REMARK                         _______ _______ _______ _____ _____    ______ ____
ROOT
ATOM      1  C   UNL     1       3.907   1.501  18.164  0.00  0.00    +0.000 C 
ATOM      2  N   UNL     1       3.754   2.936  18.526  0.00  0.00    +0.000 N 
ATOM      3  C   UNL     1       4.059   3.995  17.568  0.00  0.00    +0.000 A 
ATOM      4  C   UNL     1       4.948   3.733  16.505  0.00  0.00    +0.000 A 
ATOM      5  C   UNL     1       5.464   4.756  15.709  0.00  0.00    +0.000 A 
ATOM      6 CL   UNL     1       6.556   4.377  14.434  0.00  0.00    +0.000 Cl
ATOM      7  C   UNL     1       5.132   6.073  15.963  0.00  0.00    +0.000 A 
ATOM      8  C   UNL     1       4.267   6.362  17.020  0.00  0.00    +0.000 A 
ATOM      9  C   UNL     1       3.722   5.348  17.849  0.00  0.00    +0.000 A 
ATOM     10  C   UNL     1       2.846   5.728  18.978  0.00  0.00    +0.000 A 
ATOM     11  N   UNL     1       2.618   7.056  19.165  0.00  0.00    +0.000 NA
ATOM     12  C   UNL     1       1.799   7.428  20.167  0.00  0.00    +0.000 A 
ATOM     13  N   UNL     1       1.198   6.577  21.015  0.00  0.00    +0.000 NA
ATOM     14  C   UNL     1       1.422   5.268  20.794  0.00  0.00    +0.000 A 
ATOM     15  C   UNL     1       2.241   4.815  19.792  0.00  0.00    +0.000 A 
ATOM     16  S   UNL     1       2.389   3.133  19.525  0.00  0.00    +0.000 S 
ATOM     17  O   UNL     1       1.220   2.735  18.772  0.00  0.00    +0.000 OA
ATOM     18  O   UNL     1       2.697   2.509  20.798  0.00  0.00    +0.000 OA
ENDROOT
BRANCH  12  19
ATOM     19  S   UNL     1       1.463   9.155  20.358  0.00  0.00    +0.000 S 
BRANCH  19  20
ATOM     20  C   UNL     1       1.150   9.224  22.151  0.00  0.00    +0.000 C 
BRANCH  20  21
ATOM     21  C   UNL     1      -0.018  10.154  22.451  0.00  0.00    +0.000 C 
ATOM     22  O   UNL     1      -0.931   9.777  23.181  0.00  0.00    +0.000 OA
ATOM     23  N   UNL     1       0.044  11.378  21.806  0.00  0.00    +0.000 N 
ATOM     24  H   UNL     1       0.748  11.480  21.076  0.00  0.00    +0.000 HD
BRANCH  23  25
ATOM     25  C   UNL     1      -0.974  12.363  21.823  0.00  0.00    +0.000 A 
ATOM     26  C   UNL     1      -1.075  13.333  22.823  0.00  0.00    +0.000 A 
ATOM     27  C   UNL     1      -2.168  14.202  22.857  0.00  0.00    +0.000 A 
ATOM     28  C   UNL     1      -3.149  14.114  21.877  0.00  0.00    +0.000 A 
ATOM     29  F   UNL     1      -4.214  14.923  21.940  0.00  0.00    +0.000 F 
ATOM     30  C   UNL     1      -3.041  13.200  20.839  0.00  0.00    +0.000 A 
ATOM     31  C   UNL     1      -1.948  12.340  20.813  0.00  0.00    +0.000 A 
ATOM     32  F   UNL     1      -1.858  11.441  19.820  0.00  0.00    +0.000 F 
ENDBRANCH  23  25
ENDBRANCH  20  21
ENDBRANCH  19  20
ENDBRANCH  12  19
TORSDOF 4
ENDMDL
MODEL 6
REMARK VINA RESULT:      -8.5      2.783      3.235
REMARK  Name = 
REMARK  5 active torsions:
REMARK  status: ('A' for Active; 'I' for Inactive)
REMARK    1  A    between atoms: C_1  and  N_2
REMARK    2  A    between atoms: C_12  and  S_13
REMARK    3  A    between atoms: S_13  and  C_14
REMARK    4  A    between atoms: C_14  and  C_15
REMARK    5  A    between atoms: N_17  and  C_18
REMARK                            x       y       z     vdW  Elec       q    Type
REMARK                         _______ _______ _______ _____ _____    ______ ____
ROOT
ATOM      1  C   UNL     1       3.720   1.730  17.851  0.00  0.00    +0.000 C 
ATOM      2  N   UNL     1       3.625   3.138  18.320  0.00  0.00    +0.000 N 
ATOM      3  C   UNL     1       3.977   4.253  17.447  0.00  0.00    +0.000 A 
ATOM      4  C   UNL     1       4.859   4.037  16.368  0.00  0.00    +0.000 A 
ATOM      5  C   UNL     1       5.420   5.095  15.653  0.00  0.00    +0.000 A 
ATOM      6 CL   UNL     1       6.502   4.769  14.355  0.00  0.00    +0.000 Cl
ATOM      7  C   UNL     1       5.140   6.401  16.006  0.00  0.00    +0.000 A 
ATOM      8  C   UNL     1       4.284   6.644  17.080  0.00  0.00    +0.000 A 
ATOM      9  C   UNL     1       3.694   5.593  17.829  0.00  0.00    +0.000 A 
ATOM     10  C   UNL     1       2.829   5.922  18.982  0.00  0.00    +0.000 A 
ATOM     11  N   UNL     1       2.654   7.240  19.269  0.00  0.00    +0.000 NA
ATOM     12  C   UNL     1       1.846   7.569  20.296  0.00  0.00    +0.000 A 
ATOM     13  N   UNL     1       1.207   6.681  21.075  0.00  0.00    +0.000 NA
ATOM     14  C   UNL     1       1.379   5.385  20.755  0.00  0.00    +0.000 A 
ATOM     15  C   UNL     1       2.183   4.976  19.723  0.00  0.00    +0.000 A 
ATOM     16  S   UNL     1       2.264   3.315  19.329  0.00  0.00    +0.000 S 
ATOM     17  O   UNL     1       1.083   3.023  18.546  0.00  0.00    +0.000 OA
ATOM     18  O   UNL     1       2.540   2.583  20.552  0.00  0.00    +0.000 OA
ENDROOT
BRANCH  12  19
ATOM     19  S   UNL     1       1.579   9.289  20.616  0.00  0.00    +0.000 S 
BRANCH  19  20
ATOM     20  C   UNL     1       0.555   9.727  19.175  0.00  0.00    +0.000 C 
BRANCH  20  21
ATOM     21  C   UNL     1      -0.694  10.477  19.619  0.00  0.00    +0.000 C 
ATOM     22  O   UNL     1      -1.679  10.516  18.887  0.00  0.00    +0.000 OA
ATOM     23  N   UNL     1      -0.576  11.110  20.845  0.00  0.00    +0.000 N 
ATOM     24  H   UNL     1       0.358  11.165  21.249  0.00  0.00    +0.000 HD
BRANCH  23  25
ATOM     25  C   UNL     1      -1.546  11.968  21.418  0.00  0.00    +0.000 A 
ATOM     26  C   UNL     1      -2.059  13.086  20.754  0.00  0.00    +0.000 A 
ATOM     27  C   UNL     1      -2.921  13.965  21.412  0.00  0.00    +0.000 A 
ATOM     28  C   UNL     1      -3.289  13.713  22.728  0.00  0.00    +0.000 A 
ATOM     29  F   UNL     1      -4.084  14.583  23.365  0.00  0.00    +0.000 F 
ATOM     30  C   UNL     1      -2.842  12.579  23.390  0.00  0.00    +0.000 A 
ATOM     31  C   UNL     1      -1.985  11.709  22.726  0.00  0.00    +0.000 A 
ATOM     32  F   UNL     1      -1.536  10.623  23.376  0.00  0.00    +0.000 F 
ENDBRANCH  23  25
ENDBRANCH  20  21
ENDBRANCH  19  20
ENDBRANCH  12  19
TORSDOF 4
ENDMDL
MODEL 7
REMARK VINA RESULT:      -8.4      3.660      4.101
REMARK  Name = 
REMARK  5 active torsions:
REMARK  status: ('A' for Active; 'I' for Inactive)
REMARK    1  A    between atoms: C_1  and  N_2
REMARK    2  A    between atoms: C_12  and  S_13
REMARK    3  A    between atoms: S_13  and  C_14
REMARK    4  A    between atoms: C_14  and  C_15
REMARK    5  A    between atoms: N_17  and  C_18
REMARK                            x       y       z     vdW  Elec       q    Type
REMARK                         _______ _______ _______ _____ _____    ______ ____
ROOT
ATOM      1  C   UNL     1       3.882   2.561  19.545  0.00  0.00    +0.000 C 
ATOM      2  N   UNL     1       3.702   4.030  19.397  0.00  0.00    +0.000 N 
ATOM      3  C   UNL     1       4.019   4.709  18.145  0.00  0.00    +0.000 A 
ATOM      4  C   UNL     1       4.939   4.123  17.252  0.00  0.00    +0.000 A 
ATOM      5  C   UNL     1       5.464   4.827  16.168  0.00  0.00    +0.000 A 
ATOM      6 CL   UNL     1       6.594   4.064  15.120  0.00  0.00    +0.000 Cl
ATOM      7  C   UNL     1       5.108   6.145  15.955  0.00  0.00    +0.000 A 
ATOM      8  C   UNL     1       4.212   6.756  16.833  0.00  0.00    +0.000 A 
ATOM      9  C   UNL     1       3.657   6.070  17.945  0.00  0.00    +0.000 A 
ATOM     10  C   UNL     1       2.746   6.790  18.860  0.00  0.00    +0.000 A 
ATOM     11  N   UNL     1       2.497   8.098  18.582  0.00  0.00    +0.000 NA
ATOM     12  C   UNL     1       1.646   8.770  19.382  0.00  0.00    +0.000 A 
ATOM     13  N   UNL     1       1.033   8.242  20.455  0.00  0.00    +0.000 NA
ATOM     14  C   UNL     1       1.280   6.941  20.694  0.00  0.00    +0.000 A 
ATOM     15  C   UNL     1       2.131   6.194  19.922  0.00  0.00    +0.000 A 
ATOM     16  S   UNL     1       2.308   4.524  20.242  0.00  0.00    +0.000 S 
ATOM     17  O   UNL     1       1.165   3.870  19.644  0.00  0.00    +0.000 OA
ATOM     18  O   UNL     1       2.589   4.372  21.658  0.00  0.00    +0.000 OA
ENDROOT
BRANCH  12  19
ATOM     19  S   UNL     1       1.282  10.452  18.971  0.00  0.00    +0.000 S 
BRANCH  19  20
ATOM     20  C   UNL     1       0.958  11.125  20.632  0.00  0.00    +0.000 C 
BRANCH  20  21
ATOM     21  C   UNL     1       0.973  12.648  20.601  0.00  0.00    +0.000 C 
ATOM     22  O   UNL     1       0.819  13.284  21.641  0.00  0.00    +0.000 OA
ATOM     23  N   UNL     1       1.124  13.193  19.337  0.00  0.00    +0.000 N 
ATOM     24  H   UNL     1       1.038  12.556  18.546  0.00  0.00    +0.000 HD
BRANCH  23  25
ATOM     25  C   UNL     1       1.047  14.573  19.029  0.00  0.00    +0.000 A 
ATOM     26  C   UNL     1      -0.164  15.265  18.941  0.00  0.00    +0.000 A 
ATOM     27  C   UNL     1      -0.189  16.595  18.515  0.00  0.00    +0.000 A 
ATOM     28  C   UNL     1       1.000  17.239  18.197  0.00  0.00    +0.000 A 
ATOM     29  F   UNL     1       0.964  18.501  17.750  0.00  0.00    +0.000 F 
ATOM     30  C   UNL     1       2.221  16.593  18.334  0.00  0.00    +0.000 A 
ATOM     31  C   UNL     1       2.235  15.270  18.761  0.00  0.00    +0.000 A 
ATOM     32  F   UNL     1       3.416  14.640  18.871  0.00  0.00    +0.000 F 
ENDBRANCH  23  25
ENDBRANCH  20  21
ENDBRANCH  19  20
ENDBRANCH  12  19
TORSDOF 4
ENDMDL
MODEL 8
REMARK VINA RESULT:      -8.4      3.704      4.128
REMARK  Name = 
REMARK  5 active torsions:
REMARK  status: ('A' for Active; 'I' for Inactive)
REMARK    1  A    between atoms: C_1  and  N_2
REMARK    2  A    between atoms: C_12  and  S_13
REMARK    3  A    between atoms: S_13  and  C_14
REMARK    4  A    between atoms: C_14  and  C_15
REMARK    5  A    between atoms: N_17  and  C_18
REMARK                            x       y       z     vdW  Elec       q    Type
REMARK                         _______ _______ _______ _____ _____    ______ ____
ROOT
ATOM      1  C   UNL     1       4.030   1.745  18.447  0.00  0.00    +0.000 C 
ATOM      2  N   UNL     1       3.840   3.197  18.709  0.00  0.00    +0.000 N 
ATOM      3  C   UNL     1       4.114   4.194  17.679  0.00  0.00    +0.000 A 
ATOM      4  C   UNL     1       5.007   3.883  16.633  0.00  0.00    +0.000 A 
ATOM      5  C   UNL     1       5.493   4.861  15.766  0.00  0.00    +0.000 A 
ATOM      6 CL   UNL     1       6.592   4.424  14.515  0.00  0.00    +0.000 Cl
ATOM      7  C   UNL     1       5.126   6.184  15.929  0.00  0.00    +0.000 A 
ATOM      8  C   UNL     1       4.257   6.522  16.967  0.00  0.00    +0.000 A 
ATOM      9  C   UNL     1       3.741   5.554  17.866  0.00  0.00    +0.000 A 
ATOM     10  C   UNL     1       2.858   5.988  18.970  0.00  0.00    +0.000 A 
ATOM     11  N   UNL     1       2.595   7.319  19.065  0.00  0.00    +0.000 NA
ATOM     12  C   UNL     1       1.768   7.738  20.043  0.00  0.00    +0.000 A 
ATOM     13  N   UNL     1       1.193   6.932  20.950  0.00  0.00    +0.000 NA
ATOM     14  C   UNL     1       1.452   5.618  20.819  0.00  0.00    +0.000 A 
ATOM     15  C   UNL     1       2.279   5.118  19.848  0.00  0.00    +0.000 A 
ATOM     16  S   UNL     1       2.472   3.427  19.697  0.00  0.00    +0.000 S 
ATOM     17  O   UNL     1       1.313   2.946  18.979  0.00  0.00    +0.000 OA
ATOM     18  O   UNL     1       2.800   2.900  21.010  0.00  0.00    +0.000 OA
ENDROOT
BRANCH  12  19
ATOM     19  S   UNL     1       1.386   9.465  20.114  0.00  0.00    +0.000 S 
BRANCH  19  20
ATOM     20  C   UNL     1      -0.136   9.414  21.114  0.00  0.00    +0.000 C 
BRANCH  20  21
ATOM     21  C   UNL     1      -0.148  10.556  22.121  0.00  0.00    +0.000 C 
ATOM     22  O   UNL     1       0.069  10.330  23.309  0.00  0.00    +0.000 OA
ATOM     23  N   UNL     1      -0.462  11.792  21.581  0.00  0.00    +0.000 N 
ATOM     24  H   UNL     1      -0.817  11.803  20.625  0.00  0.00    +0.000 HD
BRANCH  23  25
ATOM     25  C   UNL     1      -0.659  12.982  22.324  0.00  0.00    +0.000 A 
ATOM     26  C   UNL     1      -1.669  13.124  23.279  0.00  0.00    +0.000 A 
ATOM     27  C   UNL     1      -1.893  14.357  23.893  0.00  0.00    +0.000 A 
ATOM     28  C   UNL     1      -1.092  15.445  23.568  0.00  0.00    +0.000 A 
ATOM     29  F   UNL     1      -1.341  16.634  24.131  0.00  0.00    +0.000 F 
ATOM     30  C   UNL     1      -0.045  15.316  22.668  0.00  0.00    +0.000 A 
ATOM     31  C   UNL     1       0.172  14.083  22.063  0.00  0.00    +0.000 A 
ATOM     32  F   UNL     1       1.172  13.966  21.175  0.00  0.00    +0.000 F 
ENDBRANCH  23  25
ENDBRANCH  20  21
ENDBRANCH  19  20
ENDBRANCH  12  19
TORSDOF 4
ENDMDL
MODEL 9
REMARK VINA RESULT:      -8.3      3.398      3.837
REMARK  Name = 
REMARK  5 active torsions:
REMARK  status: ('A' for Active; 'I' for Inactive)
REMARK    1  A    between atoms: C_1  and  N_2
REMARK    2  A    between atoms: C_12  and  S_13
REMARK    3  A    between atoms: S_13  and  C_14
REMARK    4  A    between atoms: C_14  and  C_15
REMARK    5  A    between atoms: N_17  and  C_18
REMARK                            x       y       z     vdW  Elec       q    Type
REMARK                         _______ _______ _______ _____ _____    ______ ____
ROOT
ATOM      1  C   UNL     1       3.442   2.081  19.316  0.00  0.00    +0.000 C 
ATOM      2  N   UNL     1       3.368   3.566  19.357  0.00  0.00    +0.000 N 
ATOM      3  C   UNL     1       3.731   4.374  18.197  0.00  0.00    +0.000 A 
ATOM      4  C   UNL     1       4.605   3.841  17.227  0.00  0.00    +0.000 A 
ATOM      5  C   UNL     1       5.177   4.638  16.235  0.00  0.00    +0.000 A 
ATOM      6 CL   UNL     1       6.248   3.934  15.087  0.00  0.00    +0.000 Cl
ATOM      7  C   UNL     1       4.917   5.995  16.194  0.00  0.00    +0.000 A 
ATOM      8  C   UNL     1       4.069   6.551  17.152  0.00  0.00    +0.000 A 
ATOM      9  C   UNL     1       3.468   5.771  18.173  0.00  0.00    +0.000 A 
ATOM     10  C   UNL     1       2.613   6.434  19.182  0.00  0.00    +0.000 A 
ATOM     11  N   UNL     1       2.458   7.781  19.074  0.00  0.00    +0.000 NA
ATOM     12  C   UNL     1       1.659   8.405  19.962  0.00  0.00    +0.000 A 
ATOM     13  N   UNL     1       1.012   7.790  20.966  0.00  0.00    +0.000 NA
ATOM     14  C   UNL     1       1.165   6.455  21.036  0.00  0.00    +0.000 A 
ATOM     15  C   UNL     1       1.958   5.753  20.166  0.00  0.00    +0.000 A 
ATOM     16  S   UNL     1       2.015   4.048  20.272  0.00  0.00    +0.000 S 
ATOM     17  O   UNL     1       0.827   3.558  19.608  0.00  0.00    +0.000 OA
ATOM     18  O   UNL     1       2.287   3.698  21.654  0.00  0.00    +0.000 OA
ENDROOT
BRANCH  12  19
ATOM     19  S   UNL     1       1.418  10.147  19.769  0.00  0.00    +0.000 S 
BRANCH  19  20
ATOM     20  C   UNL     1      -0.322  10.171  19.229  0.00  0.00    +0.000 C 
BRANCH  20  21
ATOM     21  C   UNL     1      -1.113  11.196  20.031  0.00  0.00    +0.000 C 
ATOM     22  O   UNL     1      -1.937  11.912  19.468  0.00  0.00    +0.000 OA
ATOM     23  N   UNL     1      -0.780  11.252  21.374  0.00  0.00    +0.000 N 
ATOM     24  H   UNL     1       0.056  10.747  21.665  0.00  0.00    +0.000 HD
BRANCH  23  25
ATOM     25  C   UNL     1      -1.281  12.199  22.300  0.00  0.00    +0.000 A 
ATOM     26  C   UNL     1      -2.466  12.009  23.017  0.00  0.00    +0.000 A 
ATOM     27  C   UNL     1      -2.976  13.027  23.824  0.00  0.00    +0.000 A 
ATOM     28  C   UNL     1      -2.289  14.230  23.932  0.00  0.00    +0.000 A 
ATOM     29  F   UNL     1      -2.806  15.217  24.675  0.00  0.00    +0.000 F 
ATOM     30  C   UNL     1      -1.080  14.424  23.278  0.00  0.00    +0.000 A 
ATOM     31  C   UNL     1      -0.580  13.402  22.478  0.00  0.00    +0.000 A 
ATOM     32  F   UNL     1       0.578  13.599  21.829  0.00  0.00    +0.000 F 
ENDBRANCH  23  25
ENDBRANCH  20  21
ENDBRANCH  19  20
ENDBRANCH  12  19
TORSDOF 4
ENDMDL
