MODEL 1
REMARK VINA RESULT:      -8.9      0.000      0.000
REMARK  Name = 
REMARK  5 active torsions:
REMARK  status: ('A' for Active; 'I' for Inactive)
REMARK    1  A    between atoms: C_2  and  C_21
REMARK    2  A    between atoms: N_3  and  C_4
REMARK    3  A    between atoms: C_9  and  C_10
REMARK    4  A    between atoms: N_13  and  C_14
REMARK    5  A    between atoms: C_24  and  C_25
REMARK                            x       y       z     vdW  Elec       q    Type
REMARK                         _______ _______ _______ _____ _____    ______ ____
ROOT
ATOM      1  C   UNL     1       5.239   5.785  16.187  0.00  0.00    +0.000 A 
ATOM      2  C   UNL     1       4.707   4.807  15.337  0.00  0.00    +0.000 A 
ATOM      3  C   UNL     1       5.550   3.999  14.572  0.00  0.00    +0.000 A 
ATOM      4  C   UNL     1       6.929   4.158  14.652  0.00  0.00    +0.000 A 
ATOM      5  C   UNL     1       7.469   5.119  15.507  0.00  0.00    +0.000 A 
ATOM      6  C   UNL     1       6.637   5.943  16.292  0.00  0.00    +0.000 A 
ENDROOT
BRANCH   6   7
ATOM      7  C   UNL     1       7.240   6.822  17.287  0.00  0.00    +0.000 A 
ATOM      8  N   UNL     1       7.876   6.366  18.419  0.00  0.00    +0.000 NA
ATOM      9  N   UNL     1       8.451   7.411  18.988  0.00  0.00    +0.000 NA
ATOM     10  N   UNL     1       8.145   8.464  18.195  0.00  0.00    +0.000 N 
ATOM     11  N   UNL     1       7.333   8.155  17.154  0.00  0.00    +0.000 NA
BRANCH  10  12
ATOM     12  C   UNL     1       8.633   9.771  18.417  0.00  0.00    +0.000 A 
ATOM     13  C   UNL     1       8.282  10.818  17.554  0.00  0.00    +0.000 A 
ATOM     14  C   UNL     1       8.785  12.101  17.782  0.00  0.00    +0.000 A 
ATOM     15  C   UNL     1       9.638  12.336  18.862  0.00  0.00    +0.000 A 
ATOM     16  C   UNL     1       9.979  11.299  19.728  0.00  0.00    +0.000 A 
ATOM     17  C   UNL     1       9.475  10.017  19.513  0.00  0.00    +0.000 A 
ENDBRANCH  10  12
ENDBRANCH   6   7
BRANCH   1  20
ATOM     18  O   UNL     1       3.425   5.003  18.279  0.00  0.00    +0.000 OA
ATOM     19  C   UNL     1       3.513   6.163  17.891  0.00  0.00    +0.000 C 
ATOM     20  N   UNL     1       4.363   6.629  16.907  0.00  0.00    +0.000 N 
ATOM     21  H   UNL     1       4.673   7.589  17.046  0.00  0.00    +0.000 HD
BRANCH  19  22
ATOM     22  C   UNL     1       2.713   7.220  18.555  0.00  0.00    +0.000 A 
ATOM     23  C   UNL     1       2.327   7.056  19.888  0.00  0.00    +0.000 A 
ATOM     24  C   UNL     1       1.528   8.024  20.505  0.00  0.00    +0.000 A 
ATOM     25  C   UNL     1       1.099   9.155  19.791  0.00  0.00    +0.000 A 
ATOM     26  C   UNL     1       1.504   9.312  18.454  0.00  0.00    +0.000 A 
ATOM     27  C   UNL     1       2.307   8.351  17.839  0.00  0.00    +0.000 A 
BRANCH  25  28
ATOM     28  C   UNL     1       0.198  10.188  20.424  0.00  0.00    +0.000 C 
ATOM     29  F   UNL     1      -0.921  10.458  19.698  0.00  0.00    +0.000 F 
ATOM     30  F   UNL     1      -0.236   9.812  21.659  0.00  0.00    +0.000 F 
ATOM     31  F   UNL     1       0.828  11.384  20.598  0.00  0.00    +0.000 F 
ENDBRANCH  25  28
ENDBRANCH  19  22
ENDBRANCH   1  20
TORSDOF 5
ENDMDL
MODEL 2
REMARK VINA RESULT:      -8.9      0.268      1.180
REMARK  Name = 
REMARK  5 active torsions:
REMARK  status: ('A' for Active; 'I' for Inactive)
REMARK    1  A    between atoms: C_2  and  C_21
REMARK    2  A    between atoms: N_3  and  C_4
REMARK    3  A    between atoms: C_9  and  C_10
REMARK    4  A    between atoms: N_13  and  C_14
REMARK    5  A    between atoms: C_24  and  C_25
REMARK                            x       y       z     vdW  Elec       q    Type
REMARK                         _______ _______ _______ _____ _____    ______ ____
ROOT
ATOM      1  C   UNL     1       5.303   5.729  16.023  0.00  0.00    +0.000 A 
ATOM      2  C   UNL     1       4.814   4.770  15.126  0.00  0.00    +0.000 A 
ATOM      3  C   UNL     1       5.691   4.025  14.337  0.00  0.00    +0.000 A 
ATOM      4  C   UNL     1       7.064   4.228  14.439  0.00  0.00    +0.000 A 
ATOM      5  C   UNL     1       7.561   5.170  15.340  0.00  0.00    +0.000 A 
ATOM      6  C   UNL     1       6.693   5.931  16.150  0.00  0.00    +0.000 A 
ENDROOT
BRANCH   6   7
ATOM      7  C   UNL     1       7.255   6.786  17.188  0.00  0.00    +0.000 A 
ATOM      8  N   UNL     1       7.842   6.304  18.336  0.00  0.00    +0.000 NA
ATOM      9  N   UNL     1       8.394   7.335  18.951  0.00  0.00    +0.000 NA
ATOM     10  N   UNL     1       8.124   8.406  18.169  0.00  0.00    +0.000 N 
ATOM     11  N   UNL     1       7.356   8.121  17.088  0.00  0.00    +0.000 NA
BRANCH  10  12
ATOM     12  C   UNL     1       8.605   9.707  18.439  0.00  0.00    +0.000 A 
ATOM     13  C   UNL     1       8.328  10.765  17.562  0.00  0.00    +0.000 A 
ATOM     14  C   UNL     1       8.824  12.041  17.840  0.00  0.00    +0.000 A 
ATOM     15  C   UNL     1       9.595  12.258  18.982  0.00  0.00    +0.000 A 
ATOM     16  C   UNL     1       9.863  11.211  19.861  0.00  0.00    +0.000 A 
ATOM     17  C   UNL     1       9.366   9.935  19.597  0.00  0.00    +0.000 A 
ENDBRANCH  10  12
ENDBRANCH   6   7
BRANCH   1  20
ATOM     18  O   UNL     1       3.730   4.865  18.272  0.00  0.00    +0.000 OA
ATOM     19  C   UNL     1       3.665   6.008  17.830  0.00  0.00    +0.000 C 
ATOM     20  N   UNL     1       4.391   6.510  16.768  0.00  0.00    +0.000 N 
ATOM     21  H   UNL     1       4.603   7.504  16.843  0.00  0.00    +0.000 HD
BRANCH  19  22
ATOM     22  C   UNL     1       2.802   7.006  18.504  0.00  0.00    +0.000 A 
ATOM     23  C   UNL     1       2.446   8.178  17.830  0.00  0.00    +0.000 A 
ATOM     24  C   UNL     1       1.677   9.148  18.478  0.00  0.00    +0.000 A 
ATOM     25  C   UNL     1       1.268   8.961  19.809  0.00  0.00    +0.000 A 
ATOM     26  C   UNL     1       1.623   7.774  20.472  0.00  0.00    +0.000 A 
ATOM     27  C   UNL     1       2.385   6.800  19.824  0.00  0.00    +0.000 A 
BRANCH  25  28
ATOM     28  C   UNL     1       0.476  10.017  20.543  0.00  0.00    +0.000 C 
ATOM     29  F   UNL     1       1.246  10.985  21.109  0.00  0.00    +0.000 F 
ATOM     30  F   UNL     1      -0.404  10.664  19.730  0.00  0.00    +0.000 F 
ATOM     31  F   UNL     1      -0.269   9.492  21.556  0.00  0.00    +0.000 F 
ENDBRANCH  25  28
ENDBRANCH  19  22
ENDBRANCH   1  20
TORSDOF 5
ENDMDL
MODEL 3
REMARK VINA RESULT:      -8.9      0.071      1.136
REMARK  Name = 
REMARK  5 active torsions:
REMARK  status: ('A' for Active; 'I' for Inactive)
REMARK    1  A    between atoms: C_2  and  C_21
REMARK    2  A    between atoms: N_3  and  C_4
REMARK    3  A    between atoms: C_9  and  C_10
REMARK    4  A    between atoms: N_13  and  C_14
REMARK    5  A    between atoms: C_24  and  C_25
REMARK                            x       y       z     vdW  Elec       q    Type
REMARK                         _______ _______ _______ _____ _____    ______ ____
ROOT
ATOM      1  C   UNL     1       5.242   5.786  16.141  0.00  0.00    +0.000 A 
ATOM      2  C   UNL     1       4.714   4.815  15.280  0.00  0.00    +0.000 A 
ATOM      3  C   UNL     1       5.561   4.011  14.515  0.00  0.00    +0.000 A 
ATOM      4  C   UNL     1       6.940   4.166  14.607  0.00  0.00    +0.000 A 
ATOM      5  C   UNL     1       7.475   5.119  15.474  0.00  0.00    +0.000 A 
ATOM      6  C   UNL     1       6.639   5.940  16.258  0.00  0.00    +0.000 A 
ENDROOT
BRANCH   6   7
ATOM      7  C   UNL     1       7.235   6.809  17.265  0.00  0.00    +0.000 A 
ATOM      8  N   UNL     1       7.851   6.344  18.405  0.00  0.00    +0.000 NA
ATOM      9  N   UNL     1       8.427   7.381  18.985  0.00  0.00    +0.000 NA
ATOM     10  N   UNL     1       8.143   8.440  18.192  0.00  0.00    +0.000 N 
ATOM     11  N   UNL     1       7.343   8.142  17.138  0.00  0.00    +0.000 NA
BRANCH  10  12
ATOM     12  C   UNL     1       8.641   9.742  18.424  0.00  0.00    +0.000 A 
ATOM     13  C   UNL     1       9.514   9.990  19.491  0.00  0.00    +0.000 A 
ATOM     14  C   UNL     1       9.985  11.287  19.712  0.00  0.00    +0.000 A 
ATOM     15  C   UNL     1       9.582  12.329  18.876  0.00  0.00    +0.000 A 
ATOM     16  C   UNL     1       8.723  12.083  17.808  0.00  0.00    +0.000 A 
ATOM     17  C   UNL     1       8.253  10.790  17.574  0.00  0.00    +0.000 A 
ENDBRANCH  10  12
ENDBRANCH   6   7
BRANCH   1  20
ATOM     18  O   UNL     1       3.541   5.026  18.335  0.00  0.00    +0.000 OA
ATOM     19  C   UNL     1       3.568   6.172  17.896  0.00  0.00    +0.000 C 
ATOM     20  N   UNL     1       4.362   6.626  16.860  0.00  0.00    +0.000 N 
ATOM     21  H   UNL     1       4.639   7.602  16.947  0.00  0.00    +0.000 HD
BRANCH  19  22
ATOM     22  C   UNL     1       2.755   7.225  18.547  0.00  0.00    +0.000 A 
ATOM     23  C   UNL     1       2.340   7.055  19.872  0.00  0.00    +0.000 A 
ATOM     24  C   UNL     1       1.528   8.020  20.475  0.00  0.00    +0.000 A 
ATOM     25  C   UNL     1       1.114   9.154  19.757  0.00  0.00    +0.000 A 
ATOM     26  C   UNL     1       1.547   9.317  18.430  0.00  0.00    +0.000 A 
ATOM     27  C   UNL     1       2.363   8.359  17.827  0.00  0.00    +0.000 A 
BRANCH  25  28
ATOM     28  C   UNL     1       0.199  10.184  20.375  0.00  0.00    +0.000 C 
ATOM     29  F   UNL     1      -0.154   9.905  21.659  0.00  0.00    +0.000 F 
ATOM     30  F   UNL     1       0.758  11.426  20.401  0.00  0.00    +0.000 F 
ATOM     31  F   UNL     1      -0.970  10.316  19.687  0.00  0.00    +0.000 F 
ENDBRANCH  25  28
ENDBRANCH  19  22
ENDBRANCH   1  20
TORSDOF 5
ENDMDL
MODEL 4
REMARK VINA RESULT:      -8.5      5.385      7.830
REMARK  Name = 
REMARK  5 active torsions:
REMARK  status: ('A' for Active; 'I' for Inactive)
REMARK    1  A    between atoms: C_2  and  C_21
REMARK    2  A    between atoms: N_3  and  C_4
REMARK    3  A    between atoms: C_9  and  C_10
REMARK    4  A    between atoms: N_13  and  C_14
REMARK    5  A    between atoms: C_24  and  C_25
REMARK                            x       y       z     vdW  Elec       q    Type
REMARK                         _______ _______ _______ _____ _____    ______ ____
ROOT
ATOM      1  C   UNL     1       2.946   3.809  18.927  0.00  0.00    +0.000 A 
ATOM      2  C   UNL     1       2.770   2.470  19.298  0.00  0.00    +0.000 A 
ATOM      3  C   UNL     1       2.030   2.141  20.435  0.00  0.00    +0.000 A 
ATOM      4  C   UNL     1       1.457   3.145  21.208  0.00  0.00    +0.000 A 
ATOM      5  C   UNL     1       1.614   4.481  20.838  0.00  0.00    +0.000 A 
ATOM      6  C   UNL     1       2.353   4.836  19.691  0.00  0.00    +0.000 A 
ENDROOT
BRANCH   6   7
ATOM      7  C   UNL     1       2.360   6.225  19.250  0.00  0.00    +0.000 A 
ATOM      8  N   UNL     1       2.737   6.621  17.987  0.00  0.00    +0.000 NA
ATOM      9  N   UNL     1       2.450   7.907  17.882  0.00  0.00    +0.000 NA
ATOM     10  N   UNL     1       1.918   8.254  19.077  0.00  0.00    +0.000 N 
ATOM     11  N   UNL     1       1.903   7.250  19.988  0.00  0.00    +0.000 NA
BRANCH  10  12
ATOM     12  C   UNL     1       1.408   9.542  19.356  0.00  0.00    +0.000 A 
ATOM     13  C   UNL     1       0.632   9.768  20.500  0.00  0.00    +0.000 A 
ATOM     14  C   UNL     1       0.127  11.046  20.752  0.00  0.00    +0.000 A 
ATOM     15  C   UNL     1       0.391  12.090  19.865  0.00  0.00    +0.000 A 
ATOM     16  C   UNL     1       1.172  11.870  18.732  0.00  0.00    +0.000 A 
ATOM     17  C   UNL     1       1.687  10.600  18.476  0.00  0.00    +0.000 A 
ENDBRANCH  10  12
ENDBRANCH   6   7
BRANCH   1  20
ATOM     18  O   UNL     1       5.817   3.999  18.858  0.00  0.00    +0.000 OA
ATOM     19  C   UNL     1       5.125   4.202  17.865  0.00  0.00    +0.000 C 
ATOM     20  N   UNL     1       3.748   4.118  17.804  0.00  0.00    +0.000 N 
ATOM     21  H   UNL     1       3.389   3.822  16.898  0.00  0.00    +0.000 HD
BRANCH  19  22
ATOM     22  C   UNL     1       5.776   4.490  16.566  0.00  0.00    +0.000 A 
ATOM     23  C   UNL     1       5.149   4.098  15.379  0.00  0.00    +0.000 A 
ATOM     24  C   UNL     1       5.781   4.319  14.152  0.00  0.00    +0.000 A 
ATOM     25  C   UNL     1       7.049   4.922  14.102  0.00  0.00    +0.000 A 
ATOM     26  C   UNL     1       7.663   5.321  15.302  0.00  0.00    +0.000 A 
ATOM     27  C   UNL     1       7.031   5.108  16.527  0.00  0.00    +0.000 A 
BRANCH  25  28
ATOM     28  C   UNL     1       7.770   5.127  12.791  0.00  0.00    +0.000 C 
ATOM     29  F   UNL     1       7.503   4.169  11.862  0.00  0.00    +0.000 F 
ATOM     30  F   UNL     1       7.454   6.316  12.206  0.00  0.00    +0.000 F 
ATOM     31  F   UNL     1       9.124   5.135  12.943  0.00  0.00    +0.000 F 
ENDBRANCH  25  28
ENDBRANCH  19  22
ENDBRANCH   1  20
TORSDOF 5
ENDMDL
MODEL 5
REMARK VINA RESULT:      -8.4      5.356      7.790
REMARK  Name = 
REMARK  5 active torsions:
REMARK  status: ('A' for Active; 'I' for Inactive)
REMARK    1  A    between atoms: C_2  and  C_21
REMARK    2  A    between atoms: N_3  and  C_4
REMARK    3  A    between atoms: C_9  and  C_10
REMARK    4  A    between atoms: N_13  and  C_14
REMARK    5  A    between atoms: C_24  and  C_25
REMARK                            x       y       z     vdW  Elec       q    Type
REMARK                         _______ _______ _______ _____ _____    ______ ____
ROOT
ATOM      1  C   UNL     1       2.899   3.910  18.862  0.00  0.00    +0.000 A 
ATOM      2  C   UNL     1       2.688   2.572  19.219  0.00  0.00    +0.000 A 
ATOM      3  C   UNL     1       1.932   2.251  20.347  0.00  0.00    +0.000 A 
ATOM      4  C   UNL     1       1.377   3.261  21.125  0.00  0.00    +0.000 A 
ATOM      5  C   UNL     1       1.568   4.596  20.769  0.00  0.00    +0.000 A 
ATOM      6  C   UNL     1       2.325   4.944  19.631  0.00  0.00    +0.000 A 
ENDROOT
BRANCH   6   7
ATOM      7  C   UNL     1       2.368   6.336  19.203  0.00  0.00    +0.000 A 
ATOM      8  N   UNL     1       2.820   6.739  17.967  0.00  0.00    +0.000 NA
ATOM      9  N   UNL     1       2.551   8.028  17.856  0.00  0.00    +0.000 NA
ATOM     10  N   UNL     1       1.953   8.370  19.020  0.00  0.00    +0.000 N 
ATOM     11  N   UNL     1       1.877   7.359  19.921  0.00  0.00    +0.000 NA
BRANCH  10  12
ATOM     12  C   UNL     1       1.438   9.660  19.281  0.00  0.00    +0.000 A 
ATOM     13  C   UNL     1       1.771  10.740  18.452  0.00  0.00    +0.000 A 
ATOM     14  C   UNL     1       1.263  12.010  18.734  0.00  0.00    +0.000 A 
ATOM     15  C   UNL     1       0.431  12.202  19.838  0.00  0.00    +0.000 A 
ATOM     16  C   UNL     1       0.089  11.128  20.657  0.00  0.00    +0.000 A 
ATOM     17  C   UNL     1       0.585   9.854  20.379  0.00  0.00    +0.000 A 
ENDBRANCH  10  12
ENDBRANCH   6   7
BRANCH   1  20
ATOM     18  O   UNL     1       5.775   3.978  18.803  0.00  0.00    +0.000 OA
ATOM     19  C   UNL     1       5.096   4.233  17.813  0.00  0.00    +0.000 C 
ATOM     20  N   UNL     1       3.716   4.210  17.748  0.00  0.00    +0.000 N 
ATOM     21  H   UNL     1       3.348   3.950  16.834  0.00  0.00    +0.000 HD
BRANCH  19  22
ATOM     22  C   UNL     1       5.762   4.522  16.522  0.00  0.00    +0.000 A 
ATOM     23  C   UNL     1       5.239   3.986  15.341  0.00  0.00    +0.000 A 
ATOM     24  C   UNL     1       5.891   4.212  14.126  0.00  0.00    +0.000 A 
ATOM     25  C   UNL     1       7.078   4.962  14.082  0.00  0.00    +0.000 A 
ATOM     26  C   UNL     1       7.587   5.504  15.275  0.00  0.00    +0.000 A 
ATOM     27  C   UNL     1       6.933   5.287  16.489  0.00  0.00    +0.000 A 
BRANCH  25  28
ATOM     28  C   UNL     1       7.824   5.178  12.787  0.00  0.00    +0.000 C 
ATOM     29  F   UNL     1       7.537   6.361  12.180  0.00  0.00    +0.000 F 
ATOM     30  F   UNL     1       9.175   5.160  12.957  0.00  0.00    +0.000 F 
ATOM     31  F   UNL     1       7.552   4.210  11.868  0.00  0.00    +0.000 F 
ENDBRANCH  25  28
ENDBRANCH  19  22
ENDBRANCH   1  20
TORSDOF 5
ENDMDL
MODEL 6
REMARK VINA RESULT:      -8.4      0.956      1.551
REMARK  Name = 
REMARK  5 active torsions:
REMARK  status: ('A' for Active; 'I' for Inactive)
REMARK    1  A    between atoms: C_2  and  C_21
REMARK    2  A    between atoms: N_3  and  C_4
REMARK    3  A    between atoms: C_9  and  C_10
REMARK    4  A    between atoms: N_13  and  C_14
REMARK    5  A    between atoms: C_24  and  C_25
REMARK                            x       y       z     vdW  Elec       q    Type
REMARK                         _______ _______ _______ _____ _____    ______ ____
ROOT
ATOM      1  C   UNL     1       5.267   5.399  16.506  0.00  0.00    +0.000 A 
ATOM      2  C   UNL     1       4.773   4.401  15.656  0.00  0.00    +0.000 A 
ATOM      3  C   UNL     1       5.592   3.832  14.680  0.00  0.00    +0.000 A 
ATOM      4  C   UNL     1       6.912   4.250  14.547  0.00  0.00    +0.000 A 
ATOM      5  C   UNL     1       7.418   5.232  15.399  0.00  0.00    +0.000 A 
ATOM      6  C   UNL     1       6.610   5.818  16.395  0.00  0.00    +0.000 A 
ENDROOT
BRANCH   6   7
ATOM      7  C   UNL     1       7.217   6.721  17.364  0.00  0.00    +0.000 A 
ATOM      8  N   UNL     1       7.879   6.293  18.493  0.00  0.00    +0.000 NA
ATOM      9  N   UNL     1       8.449   7.354  19.035  0.00  0.00    +0.000 NA
ATOM     10  N   UNL     1       8.115   8.390  18.230  0.00  0.00    +0.000 N 
ATOM     11  N   UNL     1       7.289   8.053  17.208  0.00  0.00    +0.000 NA
BRANCH  10  12
ATOM     12  C   UNL     1       8.588   9.708  18.422  0.00  0.00    +0.000 A 
ATOM     13  C   UNL     1       8.231  10.729  17.532  0.00  0.00    +0.000 A 
ATOM     14  C   UNL     1       8.720  12.023  17.731  0.00  0.00    +0.000 A 
ATOM     15  C   UNL     1       9.565  12.293  18.808  0.00  0.00    +0.000 A 
ATOM     16  C   UNL     1       9.912  11.281  19.701  0.00  0.00    +0.000 A 
ATOM     17  C   UNL     1       9.423   9.989  19.515  0.00  0.00    +0.000 A 
ENDBRANCH  10  12
ENDBRANCH   6   7
BRANCH   1  20
ATOM     18  O   UNL     1       3.702   7.785  16.131  0.00  0.00    +0.000 OA
ATOM     19  C   UNL     1       3.696   7.158  17.186  0.00  0.00    +0.000 C 
ATOM     20  N   UNL     1       4.401   6.000  17.447  0.00  0.00    +0.000 N 
ATOM     21  H   UNL     1       3.940   5.371  18.103  0.00  0.00    +0.000 HD
BRANCH  19  22
ATOM     22  C   UNL     1       2.809   7.593  18.290  0.00  0.00    +0.000 A 
ATOM     23  C   UNL     1       2.144   8.820  18.198  0.00  0.00    +0.000 A 
ATOM     24  C   UNL     1       1.348   9.261  19.259  0.00  0.00    +0.000 A 
ATOM     25  C   UNL     1       1.219   8.487  20.424  0.00  0.00    +0.000 A 
ATOM     26  C   UNL     1       1.884   7.251  20.499  0.00  0.00    +0.000 A 
ATOM     27  C   UNL     1       2.674   6.805  19.438  0.00  0.00    +0.000 A 
BRANCH  25  28
ATOM     28  C   UNL     1       0.402   8.967  21.600  0.00  0.00    +0.000 C 
ATOM     29  F   UNL     1       1.097   9.013  22.769  0.00  0.00    +0.000 F 
ATOM     30  F   UNL     1      -0.096  10.220  21.409  0.00  0.00    +0.000 F 
ATOM     31  F   UNL     1      -0.677   8.169  21.837  0.00  0.00    +0.000 F 
ENDBRANCH  25  28
ENDBRANCH  19  22
ENDBRANCH   1  20
TORSDOF 5
ENDMDL
MODEL 7
REMARK VINA RESULT:      -8.4      5.355      7.716
REMARK  Name = 
REMARK  5 active torsions:
REMARK  status: ('A' for Active; 'I' for Inactive)
REMARK    1  A    between atoms: C_2  and  C_21
REMARK    2  A    between atoms: N_3  and  C_4
REMARK    3  A    between atoms: C_9  and  C_10
REMARK    4  A    between atoms: N_13  and  C_14
REMARK    5  A    between atoms: C_24  and  C_25
REMARK                            x       y       z     vdW  Elec       q    Type
REMARK                         _______ _______ _______ _____ _____    ______ ____
ROOT
ATOM      1  C   UNL     1       2.875   3.794  18.945  0.00  0.00    +0.000 A 
ATOM      2  C   UNL     1       2.653   2.475  19.361  0.00  0.00    +0.000 A 
ATOM      3  C   UNL     1       1.879   2.209  20.491  0.00  0.00    +0.000 A 
ATOM      4  C   UNL     1       1.317   3.256  21.213  0.00  0.00    +0.000 A 
ATOM      5  C   UNL     1       1.519   4.573  20.798  0.00  0.00    +0.000 A 
ATOM      6  C   UNL     1       2.294   4.864  19.657  0.00  0.00    +0.000 A 
ENDROOT
BRANCH   6   7
ATOM      7  C   UNL     1       2.350   6.235  19.166  0.00  0.00    +0.000 A 
ATOM      8  N   UNL     1       2.688   6.567  17.873  0.00  0.00    +0.000 NA
ATOM      9  N   UNL     1       2.461   7.862  17.733  0.00  0.00    +0.000 NA
ATOM     10  N   UNL     1       2.002   8.277  18.937  0.00  0.00    +0.000 N 
ATOM     11  N   UNL     1       1.978   7.307  19.884  0.00  0.00    +0.000 NA
BRANCH  10  12
ATOM     12  C   UNL     1       1.570   9.598  19.191  0.00  0.00    +0.000 A 
ATOM     13  C   UNL     1       1.906  10.638  18.314  0.00  0.00    +0.000 A 
ATOM     14  C   UNL     1       1.481  11.940  18.589  0.00  0.00    +0.000 A 
ATOM     15  C   UNL     1       0.729  12.202  19.735  0.00  0.00    +0.000 A 
ATOM     16  C   UNL     1       0.384  11.169  20.603  0.00  0.00    +0.000 A 
ATOM     17  C   UNL     1       0.797   9.864  20.332  0.00  0.00    +0.000 A 
ENDBRANCH  10  12
ENDBRANCH   6   7
BRANCH   1  20
ATOM     18  O   UNL     1       5.746   3.991  18.953  0.00  0.00    +0.000 OA
ATOM     19  C   UNL     1       5.085   4.131  17.929  0.00  0.00    +0.000 C 
ATOM     20  N   UNL     1       3.710   4.038  17.831  0.00  0.00    +0.000 N 
ATOM     21  H   UNL     1       3.380   3.687  16.933  0.00  0.00    +0.000 HD
BRANCH  19  22
ATOM     22  C   UNL     1       5.774   4.344  16.635  0.00  0.00    +0.000 A 
ATOM     23  C   UNL     1       7.072   4.865  16.623  0.00  0.00    +0.000 A 
ATOM     24  C   UNL     1       7.709   5.118  15.404  0.00  0.00    +0.000 A 
ATOM     25  C   UNL     1       7.050   4.866  14.190  0.00  0.00    +0.000 A 
ATOM     26  C   UNL     1       5.749   4.332  14.216  0.00  0.00    +0.000 A 
ATOM     27  C   UNL     1       5.115   4.072  15.432  0.00  0.00    +0.000 A 
BRANCH  25  28
ATOM     28  C   UNL     1       7.702   5.176  12.863  0.00  0.00    +0.000 C 
ATOM     29  F   UNL     1       7.536   4.200  11.929  0.00  0.00    +0.000 F 
ATOM     30  F   UNL     1       7.219   6.319  12.303  0.00  0.00    +0.000 F 
ATOM     31  F   UNL     1       9.047   5.357  12.980  0.00  0.00    +0.000 F 
ENDBRANCH  25  28
ENDBRANCH  19  22
ENDBRANCH   1  20
TORSDOF 5
ENDMDL
MODEL 8
REMARK VINA RESULT:      -8.3      5.318      7.738
REMARK  Name = 
REMARK  5 active torsions:
REMARK  status: ('A' for Active; 'I' for Inactive)
REMARK    1  A    between atoms: C_2  and  C_21
REMARK    2  A    between atoms: N_3  and  C_4
REMARK    3  A    between atoms: C_9  and  C_10
REMARK    4  A    between atoms: N_13  and  C_14
REMARK    5  A    between atoms: C_24  and  C_25
REMARK                            x       y       z     vdW  Elec       q    Type
REMARK                         _______ _______ _______ _____ _____    ______ ____
ROOT
ATOM      1  C   UNL     1       2.836   3.868  18.845  0.00  0.00    +0.000 A 
ATOM      2  C   UNL     1       2.581   2.548  19.239  0.00  0.00    +0.000 A 
ATOM      3  C   UNL     1       1.780   2.282  20.351  0.00  0.00    +0.000 A 
ATOM      4  C   UNL     1       1.225   3.331  21.076  0.00  0.00    +0.000 A 
ATOM      5  C   UNL     1       1.460   4.649  20.683  0.00  0.00    +0.000 A 
ATOM      6  C   UNL     1       2.262   4.940  19.560  0.00  0.00    +0.000 A 
ENDROOT
BRANCH   6   7
ATOM      7  C   UNL     1       2.354   6.316  19.089  0.00  0.00    +0.000 A 
ATOM      8  N   UNL     1       2.752   6.660  17.817  0.00  0.00    +0.000 NA
ATOM      9  N   UNL     1       2.545   7.958  17.683  0.00  0.00    +0.000 NA
ATOM     10  N   UNL     1       2.036   8.364  18.870  0.00  0.00    +0.000 N 
ATOM     11  N   UNL     1       1.960   7.383  19.803  0.00  0.00    +0.000 NA
BRANCH  10  12
ATOM     12  C   UNL     1       1.607   9.687  19.120  0.00  0.00    +0.000 A 
ATOM     13  C   UNL     1       0.786   9.973  20.219  0.00  0.00    +0.000 A 
ATOM     14  C   UNL     1       0.362  11.285  20.443  0.00  0.00    +0.000 A 
ATOM     15  C   UNL     1       0.750  12.303  19.571  0.00  0.00    +0.000 A 
ATOM     16  C   UNL     1       1.575  12.023  18.484  0.00  0.00    +0.000 A 
ATOM     17  C   UNL     1       2.010  10.718  18.257  0.00  0.00    +0.000 A 
ENDBRANCH  10  12
ENDBRANCH   6   7
BRANCH   1  20
ATOM     18  O   UNL     1       5.713   3.926  18.894  0.00  0.00    +0.000 OA
ATOM     19  C   UNL     1       5.072   4.134  17.868  0.00  0.00    +0.000 C 
ATOM     20  N   UNL     1       3.696   4.111  17.751  0.00  0.00    +0.000 N 
ATOM     21  H   UNL     1       3.362   3.809  16.837  0.00  0.00    +0.000 HD
BRANCH  19  22
ATOM     22  C   UNL     1       5.789   4.359  16.591  0.00  0.00    +0.000 A 
ATOM     23  C   UNL     1       6.996   5.064  16.592  0.00  0.00    +0.000 A 
ATOM     24  C   UNL     1       7.650   5.326  15.385  0.00  0.00    +0.000 A 
ATOM     25  C   UNL     1       7.098   4.897  14.167  0.00  0.00    +0.000 A 
ATOM     26  C   UNL     1       5.889   4.179  14.181  0.00  0.00    +0.000 A 
ATOM     27  C   UNL     1       5.238   3.910  15.385  0.00  0.00    +0.000 A 
BRANCH  25  28
ATOM     28  C   UNL     1       7.765   5.210  12.848  0.00  0.00    +0.000 C 
ATOM     29  F   UNL     1       9.119   5.311  12.929  0.00  0.00    +0.000 F 
ATOM     30  F   UNL     1       7.514   4.263  11.903  0.00  0.00    +0.000 F 
ATOM     31  F   UNL     1       7.333   6.389  12.319  0.00  0.00    +0.000 F 
ENDBRANCH  25  28
ENDBRANCH  19  22
ENDBRANCH   1  20
TORSDOF 5
ENDMDL
MODEL 9
REMARK VINA RESULT:      -8.1      5.300      7.854
REMARK  Name = 
REMARK  5 active torsions:
REMARK  status: ('A' for Active; 'I' for Inactive)
REMARK    1  A    between atoms: C_2  and  C_21
REMARK    2  A    between atoms: N_3  and  C_4
REMARK    3  A    between atoms: C_9  and  C_10
REMARK    4  A    between atoms: N_13  and  C_14
REMARK    5  A    between atoms: C_24  and  C_25
REMARK                            x       y       z     vdW  Elec       q    Type
REMARK                         _______ _______ _______ _____ _____    ______ ____
ROOT
ATOM      1  C   UNL     1       3.086   4.446  18.935  0.00  0.00    +0.000 A 
ATOM      2  C   UNL     1       2.943   3.149  19.445  0.00  0.00    +0.000 A 
ATOM      3  C   UNL     1       2.206   2.922  20.608  0.00  0.00    +0.000 A 
ATOM      4  C   UNL     1       1.603   3.987  21.270  0.00  0.00    +0.000 A 
ATOM      5  C   UNL     1       1.727   5.280  20.761  0.00  0.00    +0.000 A 
ATOM      6  C   UNL     1       2.463   5.531  19.585  0.00  0.00    +0.000 A 
ENDROOT
BRANCH   6   7
ATOM      7  C   UNL     1       2.437   6.866  19.001  0.00  0.00    +0.000 A 
ATOM      8  N   UNL     1       2.965   7.167  17.766  0.00  0.00    +0.000 NA
ATOM      9  N   UNL     1       2.607   8.407  17.482  0.00  0.00    +0.000 NA
ATOM     10  N   UNL     1       1.882   8.823  18.547  0.00  0.00    +0.000 N 
ATOM     11  N   UNL     1       1.805   7.915  19.552  0.00  0.00    +0.000 NA
BRANCH  10  12
ATOM     12  C   UNL     1       1.248  10.084  18.611  0.00  0.00    +0.000 A 
ATOM     13  C   UNL     1      -0.141  10.175  18.778  0.00  0.00    +0.000 A 
ATOM     14  C   UNL     1      -0.751  11.431  18.826  0.00  0.00    +0.000 A 
ATOM     15  C   UNL     1       0.020  12.588  18.702  0.00  0.00    +0.000 A 
ATOM     16  C   UNL     1       1.401  12.500  18.547  0.00  0.00    +0.000 A 
ATOM     17  C   UNL     1       2.021  11.252  18.506  0.00  0.00    +0.000 A 
ENDBRANCH  10  12
ENDBRANCH   6   7
BRANCH   1  20
ATOM     18  O   UNL     1       5.934   4.088  18.729  0.00  0.00    +0.000 OA
ATOM     19  C   UNL     1       5.254   4.472  17.783  0.00  0.00    +0.000 C 
ATOM     20  N   UNL     1       3.885   4.656  17.788  0.00  0.00    +0.000 N 
ATOM     21  H   UNL     1       3.439   4.483  16.889  0.00  0.00    +0.000 HD
BRANCH  19  22
ATOM     22  C   UNL     1       5.894   4.700  16.466  0.00  0.00    +0.000 A 
ATOM     23  C   UNL     1       5.476   3.956  15.358  0.00  0.00    +0.000 A 
ATOM     24  C   UNL     1       6.110   4.128  14.125  0.00  0.00    +0.000 A 
ATOM     25  C   UNL     1       7.175   5.034  13.991  0.00  0.00    +0.000 A 
ATOM     26  C   UNL     1       7.579   5.783  15.110  0.00  0.00    +0.000 A 
ATOM     27  C   UNL     1       6.941   5.619  16.341  0.00  0.00    +0.000 A 
BRANCH  25  28
ATOM     28  C   UNL     1       7.905   5.201  12.679  0.00  0.00    +0.000 C 
ATOM     29  F   UNL     1       7.641   6.378  12.051  0.00  0.00    +0.000 F 
ATOM     30  F   UNL     1       9.258   5.149  12.828  0.00  0.00    +0.000 F 
ATOM     31  F   UNL     1       7.590   4.221  11.786  0.00  0.00    +0.000 F 
ENDBRANCH  25  28
ENDBRANCH  19  22
ENDBRANCH   1  20
TORSDOF 5
ENDMDL
