MODEL 1
REMARK VINA RESULT:      -6.9      0.000      0.000
REMARK  Name = 
REMARK  5 active torsions:
REMARK  status: ('A' for Active; 'I' for Inactive)
REMARK    1  A    between atoms: C_1  and  C_2
REMARK    2  A    between atoms: C_5  and  N_6
REMARK    3  A    between atoms: C_10  and  C_11
REMARK    4  A    between atoms: C_14  and  C_15
REMARK    5  A    between atoms: C_17  and  C_18
REMARK                            x       y       z     vdW  Elec       q    Type
REMARK                         _______ _______ _______ _____ _____    ______ ____
ROOT
ATOM      1  N   UNL     1       2.892   7.039  17.837  0.00  0.00    +0.000 N 
ATOM      2  C   UNL     1       2.243   7.915  18.649  0.00  0.00    +0.000 A 
ATOM      3  N   UNL     1       1.845   7.719  19.887  0.00  0.00    +0.000 NA
ATOM      4  N   UNL     1       1.145   8.774  20.408  0.00  0.00    +0.000 NA
ATOM      5  C   UNL     1       1.029   9.772  19.560  0.00  0.00    +0.000 A 
ATOM      6  S   UNL     1       1.816   9.477  18.056  0.00  0.00    +0.000 S 
ATOM      7  H   UNL     1       3.097   7.346  16.898  0.00  0.00    +0.000 HD
ENDROOT
BRANCH   5   8
ATOM      8  C   UNL     1       0.354  11.046  19.850  0.00  0.00    +0.000 A 
ATOM      9  C   UNL     1       0.997  12.032  20.625  0.00  0.00    +0.000 A 
ATOM     10  C   UNL     1       0.365  13.239  20.932  0.00  0.00    +0.000 A 
ATOM     11  C   UNL     1      -0.922  13.498  20.465  0.00  0.00    +0.000 A 
ATOM     12  C   UNL     1      -1.630  14.775  20.811  0.00  0.00    +0.000 C 
ATOM     13  C   UNL     1      -1.562  12.542  19.667  0.00  0.00    +0.000 A 
ATOM     14  C   UNL     1      -0.940  11.321  19.348  0.00  0.00    +0.000 A 
ATOM     15  C   UNL     1      -1.688  10.346  18.474  0.00  0.00    +0.000 C 
ENDBRANCH   5   8
BRANCH   1  20
ATOM     16  C   UNL     1       3.657   1.393  18.534  0.00  0.00    +0.000 C 
ATOM     17  C   UNL     1       3.460   2.869  18.361  0.00  0.00    +0.000 A 
ATOM     18  C   UNL     1       4.492   3.777  18.601  0.00  0.00    +0.000 A 
ATOM     19  C   UNL     1       4.277   5.153  18.445  0.00  0.00    +0.000 A 
ATOM     20  C   UNL     1       3.031   5.652  18.042  0.00  0.00    +0.000 A 
ATOM     21  C   UNL     1       2.004   4.728  17.812  0.00  0.00    +0.000 A 
ATOM     22  C   UNL     1       2.213   3.354  17.965  0.00  0.00    +0.000 A 
ENDBRANCH   1  20
TORSDOF 2
ENDMDL
MODEL 2
REMARK VINA RESULT:      -6.9      0.157      1.057
REMARK  Name = 
REMARK  5 active torsions:
REMARK  status: ('A' for Active; 'I' for Inactive)
REMARK    1  A    between atoms: C_1  and  C_2
REMARK    2  A    between atoms: C_5  and  N_6
REMARK    3  A    between atoms: C_10  and  C_11
REMARK    4  A    between atoms: C_14  and  C_15
REMARK    5  A    between atoms: C_17  and  C_18
REMARK                            x       y       z     vdW  Elec       q    Type
REMARK                         _______ _______ _______ _____ _____    ______ ____
ROOT
ATOM      1  N   UNL     1       3.012   7.117  17.785  0.00  0.00    +0.000 N 
ATOM      2  C   UNL     1       2.320   7.941  18.616  0.00  0.00    +0.000 A 
ATOM      3  N   UNL     1       1.909   7.688  19.839  0.00  0.00    +0.000 NA
ATOM      4  N   UNL     1       1.165   8.699  20.385  0.00  0.00    +0.000 NA
ATOM      5  C   UNL     1       1.028   9.722  19.570  0.00  0.00    +0.000 A 
ATOM      6  S   UNL     1       1.849   9.508  18.070  0.00  0.00    +0.000 S 
ATOM      7  H   UNL     1       3.221   7.464  16.861  0.00  0.00    +0.000 HD
ENDROOT
BRANCH   5   8
ATOM      8  C   UNL     1       0.305  10.962  19.893  0.00  0.00    +0.000 A 
ATOM      9  C   UNL     1       0.893  11.931  20.730  0.00  0.00    +0.000 A 
ATOM     10  C   UNL     1       0.215  13.104  21.069  0.00  0.00    +0.000 A 
ATOM     11  C   UNL     1      -1.065  13.345  20.572  0.00  0.00    +0.000 A 
ATOM     12  C   UNL     1      -1.822  14.584  20.949  0.00  0.00    +0.000 C 
ATOM     13  C   UNL     1      -1.650  12.407  19.712  0.00  0.00    +0.000 A 
ATOM     14  C   UNL     1      -0.980  11.220  19.361  0.00  0.00    +0.000 A 
ATOM     15  C   UNL     1      -1.670  10.263  18.423  0.00  0.00    +0.000 C 
ENDBRANCH   5   8
BRANCH   1  20
ATOM     16  C   UNL     1       3.567   1.460  18.583  0.00  0.00    +0.000 C 
ATOM     17  C   UNL     1       3.419   2.935  18.366  0.00  0.00    +0.000 A 
ATOM     18  C   UNL     1       2.196   3.501  18.000  0.00  0.00    +0.000 A 
ATOM     19  C   UNL     1       2.089   4.882  17.789  0.00  0.00    +0.000 A 
ATOM     20  C   UNL     1       3.195   5.729  17.944  0.00  0.00    +0.000 A 
ATOM     21  C   UNL     1       4.415   5.144  18.305  0.00  0.00    +0.000 A 
ATOM     22  C   UNL     1       4.528   3.767  18.517  0.00  0.00    +0.000 A 
ENDBRANCH   1  20
TORSDOF 2
ENDMDL
MODEL 3
REMARK VINA RESULT:      -6.8      1.516      2.116
REMARK  Name = 
REMARK  5 active torsions:
REMARK  status: ('A' for Active; 'I' for Inactive)
REMARK    1  A    between atoms: C_1  and  C_2
REMARK    2  A    between atoms: C_5  and  N_6
REMARK    3  A    between atoms: C_10  and  C_11
REMARK    4  A    between atoms: C_14  and  C_15
REMARK    5  A    between atoms: C_17  and  C_18
REMARK                            x       y       z     vdW  Elec       q    Type
REMARK                         _______ _______ _______ _____ _____    ______ ____
ROOT
ATOM      1  N   UNL     1       2.662   7.139  18.308  0.00  0.00    +0.000 N 
ATOM      2  C   UNL     1       1.975   7.799  19.277  0.00  0.00    +0.000 A 
ATOM      3  N   UNL     1       1.681   7.372  20.486  0.00  0.00    +0.000 NA
ATOM      4  N   UNL     1       0.906   8.246  21.200  0.00  0.00    +0.000 NA
ATOM      5  C   UNL     1       0.628   9.340  20.527  0.00  0.00    +0.000 A 
ATOM      6  S   UNL     1       1.343   9.372  18.960  0.00  0.00    +0.000 S 
ATOM      7  H   UNL     1       2.771   7.608  17.421  0.00  0.00    +0.000 HD
ENDROOT
BRANCH   5   8
ATOM      8  C   UNL     1      -0.161  10.468  21.047  0.00  0.00    +0.000 A 
ATOM      9  C   UNL     1      -0.641  11.463  20.174  0.00  0.00    +0.000 A 
ATOM     10  C   UNL     1      -1.372  12.554  20.650  0.00  0.00    +0.000 A 
ATOM     11  C   UNL     1      -1.651  12.674  22.011  0.00  0.00    +0.000 A 
ATOM     12  C   UNL     1      -2.408  13.854  22.546  0.00  0.00    +0.000 C 
ATOM     13  C   UNL     1      -1.210  11.675  22.887  0.00  0.00    +0.000 A 
ATOM     14  C   UNL     1      -0.473  10.570  22.424  0.00  0.00    +0.000 A 
ATOM     15  C   UNL     1      -0.040   9.530  23.426  0.00  0.00    +0.000 C 
ENDBRANCH   5   8
BRANCH   1  20
ATOM     16  C   UNL     1       3.682   1.491  18.326  0.00  0.00    +0.000 C 
ATOM     17  C   UNL     1       3.413   2.965  18.312  0.00  0.00    +0.000 A 
ATOM     18  C   UNL     1       2.204   3.484  17.847  0.00  0.00    +0.000 A 
ATOM     19  C   UNL     1       1.985   4.868  17.832  0.00  0.00    +0.000 A 
ATOM     20  C   UNL     1       2.964   5.763  18.284  0.00  0.00    +0.000 A 
ATOM     21  C   UNL     1       4.174   5.226  18.740  0.00  0.00    +0.000 A 
ATOM     22  C   UNL     1       4.398   3.847  18.759  0.00  0.00    +0.000 A 
ENDBRANCH   1  20
TORSDOF 2
ENDMDL
MODEL 4
REMARK VINA RESULT:      -6.8      1.739      2.249
REMARK  Name = 
REMARK  5 active torsions:
REMARK  status: ('A' for Active; 'I' for Inactive)
REMARK    1  A    between atoms: C_1  and  C_2
REMARK    2  A    between atoms: C_5  and  N_6
REMARK    3  A    between atoms: C_10  and  C_11
REMARK    4  A    between atoms: C_14  and  C_15
REMARK    5  A    between atoms: C_17  and  C_18
REMARK                            x       y       z     vdW  Elec       q    Type
REMARK                         _______ _______ _______ _____ _____    ______ ____
ROOT
ATOM      1  N   UNL     1       2.917   6.527  18.768  0.00  0.00    +0.000 N 
ATOM      2  C   UNL     1       2.237   7.702  18.699  0.00  0.00    +0.000 A 
ATOM      3  N   UNL     1       2.029   8.449  17.636  0.00  0.00    +0.000 NA
ATOM      4  N   UNL     1       1.372   9.618  17.911  0.00  0.00    +0.000 NA
ATOM      5  C   UNL     1       1.073   9.741  19.185  0.00  0.00    +0.000 A 
ATOM      6  S   UNL     1       1.564   8.387  20.131  0.00  0.00    +0.000 S 
ATOM      7  H   UNL     1       3.006   6.099  19.677  0.00  0.00    +0.000 HD
ENDROOT
BRANCH   5   8
ATOM      8  C   UNL     1       0.343  10.877  19.770  0.00  0.00    +0.000 A 
ATOM      9  C   UNL     1       0.982  11.741  20.681  0.00  0.00    +0.000 A 
ATOM     10  C   UNL     1       0.302  12.811  21.265  0.00  0.00    +0.000 A 
ATOM     11  C   UNL     1      -1.034  13.053  20.946  0.00  0.00    +0.000 A 
ATOM     12  C   UNL     1      -1.792  14.178  21.587  0.00  0.00    +0.000 C 
ATOM     13  C   UNL     1      -1.674  12.224  20.018  0.00  0.00    +0.000 A 
ATOM     14  C   UNL     1      -1.002  11.141  19.420  0.00  0.00    +0.000 A 
ATOM     15  C   UNL     1      -1.755  10.298  18.422  0.00  0.00    +0.000 C 
ENDBRANCH   5   8
BRANCH   1  20
ATOM     16  C   UNL     1       6.484   4.197  14.921  0.00  0.00    +0.000 C 
ATOM     17  C   UNL     1       5.545   4.803  15.920  0.00  0.00    +0.000 A 
ATOM     18  C   UNL     1       4.546   4.047  16.537  0.00  0.00    +0.000 A 
ATOM     19  C   UNL     1       3.673   4.641  17.457  0.00  0.00    +0.000 A 
ATOM     20  C   UNL     1       3.779   5.999  17.786  0.00  0.00    +0.000 A 
ATOM     21  C   UNL     1       4.782   6.745  17.153  0.00  0.00    +0.000 A 
ATOM     22  C   UNL     1       5.656   6.157  16.235  0.00  0.00    +0.000 A 
ENDBRANCH   1  20
TORSDOF 2
ENDMDL
MODEL 5
REMARK VINA RESULT:      -6.7      2.590      3.197
REMARK  Name = 
REMARK  5 active torsions:
REMARK  status: ('A' for Active; 'I' for Inactive)
REMARK    1  A    between atoms: C_1  and  C_2
REMARK    2  A    between atoms: C_5  and  N_6
REMARK    3  A    between atoms: C_10  and  C_11
REMARK    4  A    between atoms: C_14  and  C_15
REMARK    5  A    between atoms: C_17  and  C_18
REMARK                            x       y       z     vdW  Elec       q    Type
REMARK                         _______ _______ _______ _____ _____    ______ ____
ROOT
ATOM      1  N   UNL     1       3.620   5.313  18.490  0.00  0.00    +0.000 N 
ATOM      2  C   UNL     1       2.898   6.434  18.751  0.00  0.00    +0.000 A 
ATOM      3  N   UNL     1       2.716   7.474  17.966  0.00  0.00    +0.000 NA
ATOM      4  N   UNL     1       2.000   8.482  18.553  0.00  0.00    +0.000 NA
ATOM      5  C   UNL     1       1.631   8.191  19.781  0.00  0.00    +0.000 A 
ATOM      6  S   UNL     1       2.126   6.619  20.282  0.00  0.00    +0.000 S 
ATOM      7  H   UNL     1       3.678   4.622  19.223  0.00  0.00    +0.000 HD
ENDROOT
BRANCH   5   8
ATOM      8  C   UNL     1       0.828   9.069  20.646  0.00  0.00    +0.000 A 
ATOM      9  C   UNL     1       0.904   8.950  22.047  0.00  0.00    +0.000 A 
ATOM     10  C   UNL     1       0.133   9.758  22.887  0.00  0.00    +0.000 A 
ATOM     11  C   UNL     1      -0.728  10.713  22.347  0.00  0.00    +0.000 A 
ATOM     12  C   UNL     1      -1.587  11.568  23.231  0.00  0.00    +0.000 C 
ATOM     13  C   UNL     1      -0.790  10.866  20.957  0.00  0.00    +0.000 A 
ATOM     14  C   UNL     1      -0.020  10.061  20.098  0.00  0.00    +0.000 A 
ATOM     15  C   UNL     1      -0.134  10.291  18.612  0.00  0.00    +0.000 C 
ENDBRANCH   5   8
BRANCH   1  20
ATOM     16  C   UNL     1       7.397   4.847  14.193  0.00  0.00    +0.000 C 
ATOM     17  C   UNL     1       6.418   4.968  15.322  0.00  0.00    +0.000 A 
ATOM     18  C   UNL     1       6.568   5.931  16.320  0.00  0.00    +0.000 A 
ATOM     19  C   UNL     1       5.645   6.013  17.372  0.00  0.00    +0.000 A 
ATOM     20  C   UNL     1       4.552   5.140  17.447  0.00  0.00    +0.000 A 
ATOM     21  C   UNL     1       4.419   4.175  16.441  0.00  0.00    +0.000 A 
ATOM     22  C   UNL     1       5.336   4.089  15.390  0.00  0.00    +0.000 A 
ENDBRANCH   1  20
TORSDOF 2
ENDMDL
MODEL 6
REMARK VINA RESULT:      -6.7      2.324      2.944
REMARK  Name = 
REMARK  5 active torsions:
REMARK  status: ('A' for Active; 'I' for Inactive)
REMARK    1  A    between atoms: C_1  and  C_2
REMARK    2  A    between atoms: C_5  and  N_6
REMARK    3  A    between atoms: C_10  and  C_11
REMARK    4  A    between atoms: C_14  and  C_15
REMARK    5  A    between atoms: C_17  and  C_18
REMARK                            x       y       z     vdW  Elec       q    Type
REMARK                         _______ _______ _______ _____ _____    ______ ____
ROOT
ATOM      1  N   UNL     1       3.170   5.916  18.891  0.00  0.00    +0.000 N 
ATOM      2  C   UNL     1       2.460   7.056  19.097  0.00  0.00    +0.000 A 
ATOM      3  N   UNL     1       2.204   8.011  18.230  0.00  0.00    +0.000 NA
ATOM      4  N   UNL     1       1.525   9.071  18.770  0.00  0.00    +0.000 NA
ATOM      5  C   UNL     1       1.260   8.902  20.047  0.00  0.00    +0.000 A 
ATOM      6  S   UNL     1       1.811   7.389  20.660  0.00  0.00    +0.000 S 
ATOM      7  H   UNL     1       3.296   5.301  19.681  0.00  0.00    +0.000 HD
ENDROOT
BRANCH   5   8
ATOM      8  C   UNL     1       0.519   9.860  20.883  0.00  0.00    +0.000 A 
ATOM      9  C   UNL     1      -0.073   9.440  22.090  0.00  0.00    +0.000 A 
ATOM     10  C   UNL     1      -0.800  10.327  22.887  0.00  0.00    +0.000 A 
ATOM     11  C   UNL     1      -0.947  11.660  22.504  0.00  0.00    +0.000 A 
ATOM     12  C   UNL     1      -1.750  12.620  23.330  0.00  0.00    +0.000 C 
ATOM     13  C   UNL     1      -0.336  12.099  21.323  0.00  0.00    +0.000 A 
ATOM     14  C   UNL     1       0.400  11.219  20.509  0.00  0.00    +0.000 A 
ATOM     15  C   UNL     1       1.036  11.768  19.257  0.00  0.00    +0.000 C 
ENDBRANCH   5   8
BRANCH   1  20
ATOM     16  C   UNL     1       6.685   4.597  14.548  0.00  0.00    +0.000 C 
ATOM     17  C   UNL     1       5.759   4.940  15.676  0.00  0.00    +0.000 A 
ATOM     18  C   UNL     1       4.805   4.033  16.139  0.00  0.00    +0.000 A 
ATOM     19  C   UNL     1       3.943   4.384  17.187  0.00  0.00    +0.000 A 
ATOM     20  C   UNL     1       4.017   5.643  17.798  0.00  0.00    +0.000 A 
ATOM     21  C   UNL     1       4.976   6.543  17.316  0.00  0.00    +0.000 A 
ATOM     22  C   UNL     1       5.839   6.198  16.272  0.00  0.00    +0.000 A 
ENDBRANCH   1  20
TORSDOF 2
ENDMDL
MODEL 7
REMARK VINA RESULT:      -6.7      1.749      2.134
REMARK  Name = 
REMARK  5 active torsions:
REMARK  status: ('A' for Active; 'I' for Inactive)
REMARK    1  A    between atoms: C_1  and  C_2
REMARK    2  A    between atoms: C_5  and  N_6
REMARK    3  A    between atoms: C_10  and  C_11
REMARK    4  A    between atoms: C_14  and  C_15
REMARK    5  A    between atoms: C_17  and  C_18
REMARK                            x       y       z     vdW  Elec       q    Type
REMARK                         _______ _______ _______ _____ _____    ______ ____
ROOT
ATOM      1  N   UNL     1       2.891   6.422  18.787  0.00  0.00    +0.000 N 
ATOM      2  C   UNL     1       2.255   7.619  18.693  0.00  0.00    +0.000 A 
ATOM      3  N   UNL     1       2.113   8.371  17.623  0.00  0.00    +0.000 NA
ATOM      4  N   UNL     1       1.487   9.563  17.873  0.00  0.00    +0.000 NA
ATOM      5  C   UNL     1       1.146   9.699  19.136  0.00  0.00    +0.000 A 
ATOM      6  S   UNL     1       1.555   8.330  20.099  0.00  0.00    +0.000 S 
ATOM      7  H   UNL     1       2.931   5.992  19.699  0.00  0.00    +0.000 HD
ENDROOT
BRANCH   5   8
ATOM      8  C   UNL     1       0.436  10.861  19.693  0.00  0.00    +0.000 A 
ATOM      9  C   UNL     1       1.100  11.754  20.556  0.00  0.00    +0.000 A 
ATOM     10  C   UNL     1       0.438  12.850  21.114  0.00  0.00    +0.000 A 
ATOM     11  C   UNL     1      -0.903  13.088  20.817  0.00  0.00    +0.000 A 
ATOM     12  C   UNL     1      -1.640  14.241  21.431  0.00  0.00    +0.000 C 
ATOM     13  C   UNL     1      -1.568  12.228  19.934  0.00  0.00    +0.000 A 
ATOM     14  C   UNL     1      -0.916  11.120  19.363  0.00  0.00    +0.000 A 
ATOM     15  C   UNL     1      -1.695  10.244  18.415  0.00  0.00    +0.000 C 
ENDBRANCH   5   8
BRANCH   1  20
ATOM     16  C   UNL     1       6.407   4.321  14.766  0.00  0.00    +0.000 C 
ATOM     17  C   UNL     1       5.496   4.873  15.821  0.00  0.00    +0.000 A 
ATOM     18  C   UNL     1       5.540   6.217  16.194  0.00  0.00    +0.000 A 
ATOM     19  C   UNL     1       4.687   6.703  17.193  0.00  0.00    +0.000 A 
ATOM     20  C   UNL     1       3.769   5.863  17.838  0.00  0.00    +0.000 A 
ATOM     21  C   UNL     1       3.744   4.515  17.456  0.00  0.00    +0.000 A 
ATOM     22  C   UNL     1       4.592   4.025  16.459  0.00  0.00    +0.000 A 
ENDBRANCH   1  20
TORSDOF 2
ENDMDL
MODEL 8
REMARK VINA RESULT:      -6.7      1.647      8.459
REMARK  Name = 
REMARK  5 active torsions:
REMARK  status: ('A' for Active; 'I' for Inactive)
REMARK    1  A    between atoms: C_1  and  C_2
REMARK    2  A    between atoms: C_5  and  N_6
REMARK    3  A    between atoms: C_10  and  C_11
REMARK    4  A    between atoms: C_14  and  C_15
REMARK    5  A    between atoms: C_17  and  C_18
REMARK                            x       y       z     vdW  Elec       q    Type
REMARK                         _______ _______ _______ _____ _____    ______ ____
ROOT
ATOM      1  N   UNL     1       0.414  10.687  19.111  0.00  0.00    +0.000 N 
ATOM      2  C   UNL     1       1.121   9.526  19.108  0.00  0.00    +0.000 A 
ATOM      3  N   UNL     1       1.389   8.746  20.132  0.00  0.00    +0.000 NA
ATOM      4  N   UNL     1       2.194   7.685  19.813  0.00  0.00    +0.000 NA
ATOM      5  C   UNL     1       2.519   7.662  18.539  0.00  0.00    +0.000 A 
ATOM      6  S   UNL     1       1.816   8.951  17.638  0.00  0.00    +0.000 S 
ATOM      7  H   UNL     1       0.329  11.177  18.233  0.00  0.00    +0.000 HD
ENDROOT
BRANCH   5   8
ATOM      8  C   UNL     1       3.349   6.627  17.903  0.00  0.00    +0.000 A 
ATOM      9  C   UNL     1       4.575   6.969  17.300  0.00  0.00    +0.000 A 
ATOM     10  C   UNL     1       5.367   6.006  16.671  0.00  0.00    +0.000 A 
ATOM     11  C   UNL     1       4.959   4.673  16.636  0.00  0.00    +0.000 A 
ATOM     12  C   UNL     1       5.779   3.630  15.937  0.00  0.00    +0.000 C 
ATOM     13  C   UNL     1       3.758   4.312  17.260  0.00  0.00    +0.000 A 
ATOM     14  C   UNL     1       2.949   5.270  17.898  0.00  0.00    +0.000 A 
ATOM     15  C   UNL     1       1.676   4.803  18.556  0.00  0.00    +0.000 C 
ENDBRANCH   5   8
BRANCH   1  20
ATOM     16  C   UNL     1      -1.263  13.788  23.640  0.00  0.00    +0.000 C 
ATOM     17  C   UNL     1      -0.824  12.970  22.464  0.00  0.00    +0.000 A 
ATOM     18  C   UNL     1      -1.484  11.794  22.104  0.00  0.00    +0.000 A 
ATOM     19  C   UNL     1      -1.043  11.041  21.007  0.00  0.00    +0.000 A 
ATOM     20  C   UNL     1       0.059  11.448  20.243  0.00  0.00    +0.000 A 
ATOM     21  C   UNL     1       0.713  12.627  20.621  0.00  0.00    +0.000 A 
ATOM     22  C   UNL     1       0.278  13.382  21.714  0.00  0.00    +0.000 A 
ENDBRANCH   1  20
TORSDOF 2
ENDMDL
MODEL 9
REMARK VINA RESULT:      -6.6      6.206      9.673
REMARK  Name = 
REMARK  5 active torsions:
REMARK  status: ('A' for Active; 'I' for Inactive)
REMARK    1  A    between atoms: C_1  and  C_2
REMARK    2  A    between atoms: C_5  and  N_6
REMARK    3  A    between atoms: C_10  and  C_11
REMARK    4  A    between atoms: C_14  and  C_15
REMARK    5  A    between atoms: C_17  and  C_18
REMARK                            x       y       z     vdW  Elec       q    Type
REMARK                         _______ _______ _______ _____ _____    ______ ____
ROOT
ATOM      1  N   UNL     1       9.257   8.909  19.016  0.00  0.00    +0.000 N 
ATOM      2  C   UNL     1       8.227   8.274  18.398  0.00  0.00    +0.000 A 
ATOM      3  N   UNL     1       7.454   8.739  17.440  0.00  0.00    +0.000 NA
ATOM      4  N   UNL     1       6.451   7.878  17.082  0.00  0.00    +0.000 NA
ATOM      5  C   UNL     1       6.482   6.755  17.766  0.00  0.00    +0.000 A 
ATOM      6  S   UNL     1       7.788   6.679  18.887  0.00  0.00    +0.000 S 
ATOM      7  H   UNL     1       9.728   8.411  19.757  0.00  0.00    +0.000 HD
ENDROOT
BRANCH   5   8
ATOM      8  C   UNL     1       5.548   5.634  17.579  0.00  0.00    +0.000 A 
ATOM      9  C   UNL     1       4.415   5.506  18.405  0.00  0.00    +0.000 A 
ATOM     10  C   UNL     1       3.528   4.436  18.260  0.00  0.00    +0.000 A 
ATOM     11  C   UNL     1       3.746   3.471  17.278  0.00  0.00    +0.000 A 
ATOM     12  C   UNL     1       2.822   2.298  17.126  0.00  0.00    +0.000 C 
ATOM     13  C   UNL     1       4.849   3.602  16.427  0.00  0.00    +0.000 A 
ATOM     14  C   UNL     1       5.752   4.673  16.560  0.00  0.00    +0.000 A 
ATOM     15  C   UNL     1       6.911   4.752  15.599  0.00  0.00    +0.000 C 
ENDBRANCH   5   8
BRANCH   1  20
ATOM     16  C   UNL     1      10.193  14.572  18.916  0.00  0.00    +0.000 C 
ATOM     17  C   UNL     1       9.955  13.092  18.950  0.00  0.00    +0.000 A 
ATOM     18  C   UNL     1       9.559  12.442  20.119  0.00  0.00    +0.000 A 
ATOM     19  C   UNL     1       9.357  11.055  20.126  0.00  0.00    +0.000 A 
ATOM     20  C   UNL     1       9.540  10.289  18.967  0.00  0.00    +0.000 A 
ATOM     21  C   UNL     1       9.943  10.957  17.804  0.00  0.00    +0.000 A 
ATOM     22  C   UNL     1      10.146  12.339  17.791  0.00  0.00    +0.000 A 
ENDBRANCH   1  20
TORSDOF 2
ENDMDL
