MODEL 1
REMARK VINA RESULT:      -8.4      0.000      0.000
REMARK  Name = 
REMARK  7 active torsions:
REMARK  status: ('A' for Active; 'I' for Inactive)
REMARK    1  A    between atoms: C_1  and  C_2
REMARK    2  A    between atoms: C_3  and  C_4
REMARK    3  A    between atoms: C_4  and  C_5
REMARK    4  A    between atoms: C_13  and  S_14
REMARK    5  A    between atoms: S_14  and  C_15
REMARK    6  A    between atoms: C_15  and  C_16
REMARK    7  A    between atoms: C_19  and  N_20
REMARK                            x       y       z     vdW  Elec       q    Type
REMARK                         _______ _______ _______ _____ _____    ______ ____
ROOT
ATOM      1  C   UNL     1      -0.891  11.739  22.500  0.00  0.00    +0.000 C 
ATOM      2  C   UNL     1      -0.131  10.644  21.803  0.00  0.00    +0.000 A 
ATOM      3  C   UNL     1       0.136  10.507  20.483  0.00  0.00    +0.000 A 
ATOM      4  N   UNL     1       0.779   9.399  19.947  0.00  0.00    +0.000 NA
ATOM      5  C   UNL     1       1.128   8.460  20.753  0.00  0.00    +0.000 A 
ATOM      6  N   UNL     1       0.933   8.496  22.093  0.00  0.00    +0.000 N 
ATOM      7  C   UNL     1       0.371   9.577  22.707  0.00  0.00    +0.000 A 
ATOM      8  O   UNL     1       0.305   9.649  23.926  0.00  0.00    +0.000 OA
ATOM      9  H   UNL     1       1.256   7.744  22.674  0.00  0.00    +0.000 HD
ENDROOT
BRANCH   3  10
ATOM     10  C   UNL     1      -0.242  11.533  19.407  0.00  0.00    +0.000 C 
BRANCH  10  11
ATOM     11  C   UNL     1      -1.459  11.099  18.603  0.00  0.00    +0.000 A 
ATOM     12  C   UNL     1      -1.284  10.131  17.591  0.00  0.00    +0.000 A 
ATOM     13  C   UNL     1      -2.293   9.856  16.669  0.00  0.00    +0.000 A 
ATOM     14  C   UNL     1      -3.518  10.502  16.773  0.00  0.00    +0.000 A 
ATOM     15  C   UNL     1      -3.754  11.368  17.839  0.00  0.00    +0.000 A 
ATOM     16  C   UNL     1      -2.735  11.661  18.756  0.00  0.00    +0.000 A 
ATOM     17 BR   UNL     1      -3.185  12.832  20.181  0.00  0.00    +0.000 Br
ENDBRANCH  10  11
ENDBRANCH   3  10
BRANCH   5  18
ATOM     18  S   UNL     1       1.877   6.982  20.230  0.00  0.00    +0.000 S 
BRANCH  18  19
ATOM     19  C   UNL     1       2.401   7.406  18.540  0.00  0.00    +0.000 C 
BRANCH  19  20
ATOM     20  C   UNL     1       3.731   6.756  18.200  0.00  0.00    +0.000 A 
ATOM     21  C   UNL     1       4.452   7.143  17.057  0.00  0.00    +0.000 A 
ATOM     22  C   UNL     1       5.642   6.494  16.700  0.00  0.00    +0.000 A 
ATOM     23  C   UNL     1       6.122   5.447  17.494  0.00  0.00    +0.000 A 
ATOM     24  C   UNL     1       5.437   5.069  18.655  0.00  0.00    +0.000 A 
ATOM     25  C   UNL     1       4.247   5.722  19.001  0.00  0.00    +0.000 A 
BRANCH  23  26
ATOM     26  N   UNL     1       7.345   4.727  17.099  0.00  0.00    +0.000 N 
ATOM     27  O   UNL     1       7.589   4.629  15.888  0.00  0.00    +0.000 OA
ATOM     28  O   UNL     1       8.051   4.255  17.998  0.00  0.00    +0.000 OA
ENDBRANCH  23  26
ENDBRANCH  19  20
ENDBRANCH  18  19
ENDBRANCH   5  18
TORSDOF 6
ENDMDL
MODEL 2
REMARK VINA RESULT:      -8.2      0.748      1.049
REMARK  Name = 
REMARK  7 active torsions:
REMARK  status: ('A' for Active; 'I' for Inactive)
REMARK    1  A    between atoms: C_1  and  C_2
REMARK    2  A    between atoms: C_3  and  C_4
REMARK    3  A    between atoms: C_4  and  C_5
REMARK    4  A    between atoms: C_13  and  S_14
REMARK    5  A    between atoms: S_14  and  C_15
REMARK    6  A    between atoms: C_15  and  C_16
REMARK    7  A    between atoms: C_19  and  N_20
REMARK                            x       y       z     vdW  Elec       q    Type
REMARK                         _______ _______ _______ _____ _____    ______ ____
ROOT
ATOM      1  C   UNL     1      -0.466  11.560  22.220  0.00  0.00    +0.000 C 
ATOM      2  C   UNL     1       0.270  10.441  21.537  0.00  0.00    +0.000 A 
ATOM      3  C   UNL     1       0.505  10.264  20.216  0.00  0.00    +0.000 A 
ATOM      4  N   UNL     1       1.129   9.138  19.697  0.00  0.00    +0.000 NA
ATOM      5  C   UNL     1       1.493   8.220  20.522  0.00  0.00    +0.000 A 
ATOM      6  N   UNL     1       1.331   8.297  21.864  0.00  0.00    +0.000 N 
ATOM      7  C   UNL     1       0.790   9.399  22.460  0.00  0.00    +0.000 A 
ATOM      8  O   UNL     1       0.754   9.506  23.677  0.00  0.00    +0.000 OA
ATOM      9  H   UNL     1       1.666   7.560  22.459  0.00  0.00    +0.000 HD
ENDROOT
BRANCH   3  10
ATOM     10  C   UNL     1       0.104  11.260  19.120  0.00  0.00    +0.000 C 
BRANCH  10  11
ATOM     11  C   UNL     1      -1.231  10.907  18.483  0.00  0.00    +0.000 A 
ATOM     12  C   UNL     1      -1.255   9.914  17.480  0.00  0.00    +0.000 A 
ATOM     13  C   UNL     1      -2.388   9.703  16.696  0.00  0.00    +0.000 A 
ATOM     14  C   UNL     1      -3.542  10.438  16.936  0.00  0.00    +0.000 A 
ATOM     15  C   UNL     1      -3.579  11.334  18.004  0.00  0.00    +0.000 A 
ATOM     16  C   UNL     1      -2.434  11.563  18.780  0.00  0.00    +0.000 A 
ATOM     17 BR   UNL     1      -2.617  12.783  20.224  0.00  0.00    +0.000 Br
ENDBRANCH  10  11
ENDBRANCH   3  10
BRANCH   5  18
ATOM     18  S   UNL     1       2.222   6.724  20.024  0.00  0.00    +0.000 S 
BRANCH  18  19
ATOM     19  C   UNL     1       2.232   6.897  18.213  0.00  0.00    +0.000 C 
BRANCH  19  20
ATOM     20  C   UNL     1       3.497   6.306  17.614  0.00  0.00    +0.000 A 
ATOM     21  C   UNL     1       3.609   4.923  17.384  0.00  0.00    +0.000 A 
ATOM     22  C   UNL     1       4.801   4.367  16.901  0.00  0.00    +0.000 A 
ATOM     23  C   UNL     1       5.896   5.198  16.640  0.00  0.00    +0.000 A 
ATOM     24  C   UNL     1       5.793   6.582  16.830  0.00  0.00    +0.000 A 
ATOM     25  C   UNL     1       4.598   7.127  17.317  0.00  0.00    +0.000 A 
BRANCH  23  26
ATOM     26  N   UNL     1       7.167   4.615  16.180  0.00  0.00    +0.000 N 
ATOM     27  O   UNL     1       7.287   4.377  14.970  0.00  0.00    +0.000 OA
ATOM     28  O   UNL     1       8.038   4.389  17.030  0.00  0.00    +0.000 OA
ENDBRANCH  23  26
ENDBRANCH  19  20
ENDBRANCH  18  19
ENDBRANCH   5  18
TORSDOF 6
ENDMDL
MODEL 3
REMARK VINA RESULT:      -8.0      4.061      5.797
REMARK  Name = 
REMARK  7 active torsions:
REMARK  status: ('A' for Active; 'I' for Inactive)
REMARK    1  A    between atoms: C_1  and  C_2
REMARK    2  A    between atoms: C_3  and  C_4
REMARK    3  A    between atoms: C_4  and  C_5
REMARK    4  A    between atoms: C_13  and  S_14
REMARK    5  A    between atoms: S_14  and  C_15
REMARK    6  A    between atoms: C_15  and  C_16
REMARK    7  A    between atoms: C_19  and  N_20
REMARK                            x       y       z     vdW  Elec       q    Type
REMARK                         _______ _______ _______ _____ _____    ______ ____
ROOT
ATOM      1  C   UNL     1       1.271   3.302  19.027  0.00  0.00    +0.000 C 
ATOM      2  C   UNL     1       2.633   3.907  19.224  0.00  0.00    +0.000 A 
ATOM      3  C   UNL     1       2.957   5.108  19.757  0.00  0.00    +0.000 A 
ATOM      4  N   UNL     1       4.256   5.594  19.808  0.00  0.00    +0.000 NA
ATOM      5  C   UNL     1       5.191   4.861  19.315  0.00  0.00    +0.000 A 
ATOM      6  N   UNL     1       4.990   3.635  18.776  0.00  0.00    +0.000 N 
ATOM      7  C   UNL     1       3.755   3.055  18.750  0.00  0.00    +0.000 A 
ATOM      8  O   UNL     1       3.604   1.904  18.367  0.00  0.00    +0.000 OA
ATOM      9  H   UNL     1       5.766   3.096  18.435  0.00  0.00    +0.000 HD
ENDROOT
BRANCH   3  10
ATOM     10  C   UNL     1       1.947   6.095  20.357  0.00  0.00    +0.000 C 
BRANCH  10  11
ATOM     11  C   UNL     1       1.809   7.357  19.518  0.00  0.00    +0.000 A 
ATOM     12  C   UNL     1       2.348   7.358  18.214  0.00  0.00    +0.000 A 
ATOM     13  C   UNL     1       2.466   8.537  17.479  0.00  0.00    +0.000 A 
ATOM     14  C   UNL     1       1.993   9.731  18.009  0.00  0.00    +0.000 A 
ATOM     15  C   UNL     1       1.344   9.730  19.242  0.00  0.00    +0.000 A 
ATOM     16  C   UNL     1       1.243   8.549  19.992  0.00  0.00    +0.000 A 
ATOM     17 BR   UNL     1       0.311   8.668  21.642  0.00  0.00    +0.000 Br
ENDBRANCH  10  11
ENDBRANCH   3  10
BRANCH   5  18
ATOM     18  S   UNL     1       6.854   5.356  19.240  0.00  0.00    +0.000 S 
BRANCH  18  19
ATOM     19  C   UNL     1       6.850   6.460  17.793  0.00  0.00    +0.000 C 
BRANCH  19  20
ATOM     20  C   UNL     1       6.507   5.698  16.524  0.00  0.00    +0.000 A 
ATOM     21  C   UNL     1       7.257   4.576  16.132  0.00  0.00    +0.000 A 
ATOM     22  C   UNL     1       6.990   3.916  14.924  0.00  0.00    +0.000 A 
ATOM     23  C   UNL     1       5.960   4.378  14.098  0.00  0.00    +0.000 A 
ATOM     24  C   UNL     1       5.180   5.474  14.487  0.00  0.00    +0.000 A 
ATOM     25  C   UNL     1       5.457   6.128  15.694  0.00  0.00    +0.000 A 
BRANCH  23  26
ATOM     26  N   UNL     1       5.706   3.722  12.804  0.00  0.00    +0.000 N 
ATOM     27  O   UNL     1       4.526   3.554  12.466  0.00  0.00    +0.000 OA
ATOM     28  O   UNL     1       6.685   3.370  12.135  0.00  0.00    +0.000 OA
ENDBRANCH  23  26
ENDBRANCH  19  20
ENDBRANCH  18  19
ENDBRANCH   5  18
TORSDOF 6
ENDMDL
MODEL 4
REMARK VINA RESULT:      -8.0      3.848      9.078
REMARK  Name = 
REMARK  7 active torsions:
REMARK  status: ('A' for Active; 'I' for Inactive)
REMARK    1  A    between atoms: C_1  and  C_2
REMARK    2  A    between atoms: C_3  and  C_4
REMARK    3  A    between atoms: C_4  and  C_5
REMARK    4  A    between atoms: C_13  and  S_14
REMARK    5  A    between atoms: S_14  and  C_15
REMARK    6  A    between atoms: C_15  and  C_16
REMARK    7  A    between atoms: C_19  and  N_20
REMARK                            x       y       z     vdW  Elec       q    Type
REMARK                         _______ _______ _______ _____ _____    ______ ____
ROOT
ATOM      1  C   UNL     1       5.826   3.687  16.061  0.00  0.00    +0.000 C 
ATOM      2  C   UNL     1       4.907   4.686  16.708  0.00  0.00    +0.000 A 
ATOM      3  C   UNL     1       3.708   4.475  17.299  0.00  0.00    +0.000 A 
ATOM      4  N   UNL     1       2.909   5.499  17.790  0.00  0.00    +0.000 NA
ATOM      5  C   UNL     1       3.337   6.705  17.666  0.00  0.00    +0.000 A 
ATOM      6  N   UNL     1       4.529   7.036  17.113  0.00  0.00    +0.000 N 
ATOM      7  C   UNL     1       5.402   6.087  16.670  0.00  0.00    +0.000 A 
ATOM      8  O   UNL     1       6.521   6.389  16.279  0.00  0.00    +0.000 OA
ATOM      9  H   UNL     1       4.821   7.996  17.073  0.00  0.00    +0.000 HD
ENDROOT
BRANCH   3  10
ATOM     10  C   UNL     1       3.064   3.096  17.492  0.00  0.00    +0.000 C 
BRANCH  10  11
ATOM     11  C   UNL     1       2.432   2.945  18.867  0.00  0.00    +0.000 A 
ATOM     12  C   UNL     1       1.054   3.216  19.007  0.00  0.00    +0.000 A 
ATOM     13  C   UNL     1       0.460   3.324  20.264  0.00  0.00    +0.000 A 
ATOM     14  C   UNL     1       1.218   3.105  21.407  0.00  0.00    +0.000 A 
ATOM     15  C   UNL     1       2.550   2.712  21.287  0.00  0.00    +0.000 A 
ATOM     16  C   UNL     1       3.155   2.623  20.026  0.00  0.00    +0.000 A 
ATOM     17 BR   UNL     1       4.965   2.050  19.989  0.00  0.00    +0.000 Br
ENDBRANCH  10  11
ENDBRANCH   3  10
BRANCH   5  18
ATOM     18  S   UNL     1       2.426   8.098  18.165  0.00  0.00    +0.000 S 
BRANCH  18  19
ATOM     19  C   UNL     1       2.036   7.689  19.895  0.00  0.00    +0.000 C 
BRANCH  19  20
ATOM     20  C   UNL     1       1.152   8.754  20.523  0.00  0.00    +0.000 A 
ATOM     21  C   UNL     1       0.745   8.654  21.865  0.00  0.00    +0.000 A 
ATOM     22  C   UNL     1      -0.129   9.595  22.425  0.00  0.00    +0.000 A 
ATOM     23  C   UNL     1      -0.603  10.651  21.639  0.00  0.00    +0.000 A 
ATOM     24  C   UNL     1      -0.183  10.787  20.311  0.00  0.00    +0.000 A 
ATOM     25  C   UNL     1       0.689   9.839  19.759  0.00  0.00    +0.000 A 
BRANCH  23  26
ATOM     26  N   UNL     1      -1.561  11.615  22.206  0.00  0.00    +0.000 N 
ATOM     27  O   UNL     1      -1.701  11.632  23.437  0.00  0.00    +0.000 OA
ATOM     28  O   UNL     1      -2.176  12.346  21.419  0.00  0.00    +0.000 OA
ENDBRANCH  23  26
ENDBRANCH  19  20
ENDBRANCH  18  19
ENDBRANCH   5  18
TORSDOF 6
ENDMDL
MODEL 5
REMARK VINA RESULT:      -8.0      5.471      8.663
REMARK  Name = 
REMARK  7 active torsions:
REMARK  status: ('A' for Active; 'I' for Inactive)
REMARK    1  A    between atoms: C_1  and  C_2
REMARK    2  A    between atoms: C_3  and  C_4
REMARK    3  A    between atoms: C_4  and  C_5
REMARK    4  A    between atoms: C_13  and  S_14
REMARK    5  A    between atoms: S_14  and  C_15
REMARK    6  A    between atoms: C_15  and  C_16
REMARK    7  A    between atoms: C_19  and  N_20
REMARK                            x       y       z     vdW  Elec       q    Type
REMARK                         _______ _______ _______ _____ _____    ______ ____
ROOT
ATOM      1  C   UNL     1       5.179   3.924  14.960  0.00  0.00    +0.000 C 
ATOM      2  C   UNL     1       5.900   4.711  16.019  0.00  0.00    +0.000 A 
ATOM      3  C   UNL     1       5.599   4.838  17.332  0.00  0.00    +0.000 A 
ATOM      4  N   UNL     1       6.299   5.668  18.197  0.00  0.00    +0.000 NA
ATOM      5  C   UNL     1       7.276   6.350  17.714  0.00  0.00    +0.000 A 
ATOM      6  N   UNL     1       7.682   6.289  16.424  0.00  0.00    +0.000 N 
ATOM      7  C   UNL     1       7.093   5.448  15.526  0.00  0.00    +0.000 A 
ATOM      8  O   UNL     1       7.540   5.315  14.395  0.00  0.00    +0.000 OA
ATOM      9  H   UNL     1       8.473   6.825  16.114  0.00  0.00    +0.000 HD
ENDROOT
BRANCH   3  10
ATOM     10  C   UNL     1       4.450   4.106  18.036  0.00  0.00    +0.000 C 
BRANCH  10  11
ATOM     11  C   UNL     1       3.443   5.070  18.645  0.00  0.00    +0.000 A 
ATOM     12  C   UNL     1       3.257   6.326  18.028  0.00  0.00    +0.000 A 
ATOM     13  C   UNL     1       2.533   7.341  18.652  0.00  0.00    +0.000 A 
ATOM     14  C   UNL     1       1.930   7.104  19.880  0.00  0.00    +0.000 A 
ATOM     15  C   UNL     1       1.995   5.832  20.448  0.00  0.00    +0.000 A 
ATOM     16  C   UNL     1       2.740   4.816  19.832  0.00  0.00    +0.000 A 
ATOM     17 BR   UNL     1       2.730   3.119  20.685  0.00  0.00    +0.000 Br
ENDBRANCH  10  11
ENDBRANCH   3  10
BRANCH   5  18
ATOM     18  S   UNL     1       8.203   7.484  18.649  0.00  0.00    +0.000 S 
BRANCH  18  19
ATOM     19  C   UNL     1       8.147   8.969  17.599  0.00  0.00    +0.000 C 
BRANCH  19  20
ATOM     20  C   UNL     1       8.678  10.184  18.341  0.00  0.00    +0.000 A 
ATOM     21  C   UNL     1       8.568  11.472  17.787  0.00  0.00    +0.000 A 
ATOM     22  C   UNL     1       9.122  12.585  18.434  0.00  0.00    +0.000 A 
ATOM     23  C   UNL     1       9.793  12.414  19.650  0.00  0.00    +0.000 A 
ATOM     24  C   UNL     1       9.884  11.145  20.234  0.00  0.00    +0.000 A 
ATOM     25  C   UNL     1       9.330  10.038  19.577  0.00  0.00    +0.000 A 
BRANCH  23  26
ATOM     26  N   UNL     1      10.422  13.570  20.310  0.00  0.00    +0.000 N 
ATOM     27  O   UNL     1      11.308  14.176  19.691  0.00  0.00    +0.000 OA
ATOM     28  O   UNL     1      10.035  13.864  21.448  0.00  0.00    +0.000 OA
ENDBRANCH  23  26
ENDBRANCH  19  20
ENDBRANCH  18  19
ENDBRANCH   5  18
TORSDOF 6
ENDMDL
MODEL 6
REMARK VINA RESULT:      -7.9      4.215      9.254
REMARK  Name = 
REMARK  7 active torsions:
REMARK  status: ('A' for Active; 'I' for Inactive)
REMARK    1  A    between atoms: C_1  and  C_2
REMARK    2  A    between atoms: C_3  and  C_4
REMARK    3  A    between atoms: C_4  and  C_5
REMARK    4  A    between atoms: C_13  and  S_14
REMARK    5  A    between atoms: S_14  and  C_15
REMARK    6  A    between atoms: C_15  and  C_16
REMARK    7  A    between atoms: C_19  and  N_20
REMARK                            x       y       z     vdW  Elec       q    Type
REMARK                         _______ _______ _______ _____ _____    ______ ____
ROOT
ATOM      1  C   UNL     1       3.880   2.269  19.604  0.00  0.00    +0.000 C 
ATOM      2  C   UNL     1       3.496   3.716  19.466  0.00  0.00    +0.000 A 
ATOM      3  C   UNL     1       4.274   4.771  19.132  0.00  0.00    +0.000 A 
ATOM      4  N   UNL     1       3.818   6.082  19.121  0.00  0.00    +0.000 NA
ATOM      5  C   UNL     1       2.593   6.294  19.451  0.00  0.00    +0.000 A 
ATOM      6  N   UNL     1       1.716   5.317  19.783  0.00  0.00    +0.000 N 
ATOM      7  C   UNL     1       2.065   3.998  19.753  0.00  0.00    +0.000 A 
ATOM      8  O   UNL     1       1.235   3.120  19.942  0.00  0.00    +0.000 OA
ATOM      9  H   UNL     1       0.762   5.544  20.003  0.00  0.00    +0.000 HD
ENDROOT
BRANCH   3  10
ATOM     10  C   UNL     1       5.754   4.671  18.740  0.00  0.00    +0.000 C 
BRANCH  10  11
ATOM     11  C   UNL     1       5.959   4.785  17.237  0.00  0.00    +0.000 A 
ATOM     12  C   UNL     1       5.374   3.808  16.403  0.00  0.00    +0.000 A 
ATOM     13  C   UNL     1       5.705   3.715  15.052  0.00  0.00    +0.000 A 
ATOM     14  C   UNL     1       6.585   4.632  14.492  0.00  0.00    +0.000 A 
ATOM     15  C   UNL     1       7.076   5.680  15.269  0.00  0.00    +0.000 A 
ATOM     16  C   UNL     1       6.760   5.764  16.632  0.00  0.00    +0.000 A 
ATOM     17 BR   UNL     1       7.465   7.253  17.578  0.00  0.00    +0.000 Br
ENDBRANCH  10  11
ENDBRANCH   3  10
BRANCH   5  18
ATOM     18  S   UNL     1       1.892   7.880  19.554  0.00  0.00    +0.000 S 
BRANCH  18  19
ATOM     19  C   UNL     1       1.247   7.894  21.255  0.00  0.00    +0.000 C 
BRANCH  19  20
ATOM     20  C   UNL     1       0.553   9.210  21.567  0.00  0.00    +0.000 A 
ATOM     21  C   UNL     1       0.799  10.356  20.791  0.00  0.00    +0.000 A 
ATOM     22  C   UNL     1       0.218  11.588  21.121  0.00  0.00    +0.000 A 
ATOM     23  C   UNL     1      -0.622  11.679  22.236  0.00  0.00    +0.000 A 
ATOM     24  C   UNL     1      -0.907  10.541  23.001  0.00  0.00    +0.000 A 
ATOM     25  C   UNL     1      -0.318   9.316  22.665  0.00  0.00    +0.000 A 
BRANCH  23  26
ATOM     26  N   UNL     1      -1.197  12.980  22.618  0.00  0.00    +0.000 N 
ATOM     27  O   UNL     1      -0.760  13.524  23.643  0.00  0.00    +0.000 OA
ATOM     28  O   UNL     1      -2.087  13.450  21.900  0.00  0.00    +0.000 OA
ENDBRANCH  23  26
ENDBRANCH  19  20
ENDBRANCH  18  19
ENDBRANCH   5  18
TORSDOF 6
ENDMDL
MODEL 7
REMARK VINA RESULT:      -7.9      4.314      9.486
REMARK  Name = 
REMARK  7 active torsions:
REMARK  status: ('A' for Active; 'I' for Inactive)
REMARK    1  A    between atoms: C_1  and  C_2
REMARK    2  A    between atoms: C_3  and  C_4
REMARK    3  A    between atoms: C_4  and  C_5
REMARK    4  A    between atoms: C_13  and  S_14
REMARK    5  A    between atoms: S_14  and  C_15
REMARK    6  A    between atoms: C_15  and  C_16
REMARK    7  A    between atoms: C_19  and  N_20
REMARK                            x       y       z     vdW  Elec       q    Type
REMARK                         _______ _______ _______ _____ _____    ______ ____
ROOT
ATOM      1  C   UNL     1       3.371   7.495  17.049  0.00  0.00    +0.000 C 
ATOM      2  C   UNL     1       2.660   7.811  18.335  0.00  0.00    +0.000 A 
ATOM      3  C   UNL     1       2.594   7.076  19.469  0.00  0.00    +0.000 A 
ATOM      4  N   UNL     1       1.829   7.438  20.569  0.00  0.00    +0.000 NA
ATOM      5  C   UNL     1       1.147   8.526  20.494  0.00  0.00    +0.000 A 
ATOM      6  N   UNL     1       1.151   9.353  19.421  0.00  0.00    +0.000 N 
ATOM      7  C   UNL     1       1.928   9.105  18.327  0.00  0.00    +0.000 A 
ATOM      8  O   UNL     1       2.012   9.914  17.414  0.00  0.00    +0.000 OA
ATOM      9  H   UNL     1       0.620  10.205  19.434  0.00  0.00    +0.000 HD
ENDROOT
BRANCH   3  10
ATOM     10  C   UNL     1       3.333   5.749  19.690  0.00  0.00    +0.000 C 
BRANCH  10  11
ATOM     11  C   UNL     1       2.512   4.553  19.232  0.00  0.00    +0.000 A 
ATOM     12  C   UNL     1       1.329   4.241  19.936  0.00  0.00    +0.000 A 
ATOM     13  C   UNL     1       0.655   3.038  19.725  0.00  0.00    +0.000 A 
ATOM     14  C   UNL     1       1.117   2.147  18.765  0.00  0.00    +0.000 A 
ATOM     15  C   UNL     1       2.210   2.492  17.972  0.00  0.00    +0.000 A 
ATOM     16  C   UNL     1       2.901   3.692  18.196  0.00  0.00    +0.000 A 
ATOM     17 BR   UNL     1       4.355   4.065  17.032  0.00  0.00    +0.000 Br
ENDBRANCH  10  11
ENDBRANCH   3  10
BRANCH   5  18
ATOM     18  S   UNL     1       0.089   9.079  21.755  0.00  0.00    +0.000 S 
BRANCH  18  19
ATOM     19  C   UNL     1       0.214  10.886  21.582  0.00  0.00    +0.000 C 
BRANCH  19  20
ATOM     20  C   UNL     1      -1.121  11.556  21.860  0.00  0.00    +0.000 A 
ATOM     21  C   UNL     1      -1.696  11.516  23.142  0.00  0.00    +0.000 A 
ATOM     22  C   UNL     1      -2.961  12.069  23.383  0.00  0.00    +0.000 A 
ATOM     23  C   UNL     1      -3.663  12.672  22.333  0.00  0.00    +0.000 A 
ATOM     24  C   UNL     1      -3.093  12.753  21.057  0.00  0.00    +0.000 A 
ATOM     25  C   UNL     1      -1.829  12.194  20.826  0.00  0.00    +0.000 A 
BRANCH  23  26
ATOM     26  N   UNL     1      -5.013  13.211  22.567  0.00  0.00    +0.000 N 
ATOM     27  O   UNL     1      -5.291  14.307  22.061  0.00  0.00    +0.000 OA
ATOM     28  O   UNL     1      -5.788  12.541  23.260  0.00  0.00    +0.000 OA
ENDBRANCH  23  26
ENDBRANCH  19  20
ENDBRANCH  18  19
ENDBRANCH   5  18
TORSDOF 6
ENDMDL
MODEL 8
REMARK VINA RESULT:      -7.8      3.750      8.962
REMARK  Name = 
REMARK  7 active torsions:
REMARK  status: ('A' for Active; 'I' for Inactive)
REMARK    1  A    between atoms: C_1  and  C_2
REMARK    2  A    between atoms: C_3  and  C_4
REMARK    3  A    between atoms: C_4  and  C_5
REMARK    4  A    between atoms: C_13  and  S_14
REMARK    5  A    between atoms: S_14  and  C_15
REMARK    6  A    between atoms: C_15  and  C_16
REMARK    7  A    between atoms: C_19  and  N_20
REMARK                            x       y       z     vdW  Elec       q    Type
REMARK                         _______ _______ _______ _____ _____    ______ ____
ROOT
ATOM      1  C   UNL     1       6.668   4.232  16.385  0.00  0.00    +0.000 C 
ATOM      2  C   UNL     1       5.549   5.082  16.919  0.00  0.00    +0.000 A 
ATOM      3  C   UNL     1       4.320   4.699  17.336  0.00  0.00    +0.000 A 
ATOM      4  N   UNL     1       3.336   5.594  17.731  0.00  0.00    +0.000 NA
ATOM      5  C   UNL     1       3.615   6.849  17.690  0.00  0.00    +0.000 A 
ATOM      6  N   UNL     1       4.815   7.349  17.312  0.00  0.00    +0.000 N 
ATOM      7  C   UNL     1       5.857   6.535  16.975  0.00  0.00    +0.000 A 
ATOM      8  O   UNL     1       6.968   6.991  16.747  0.00  0.00    +0.000 OA
ATOM      9  H   UNL     1       4.982   8.339  17.330  0.00  0.00    +0.000 HD
ENDROOT
BRANCH   3  10
ATOM     10  C   UNL     1       3.842   3.243  17.414  0.00  0.00    +0.000 C 
BRANCH  10  11
ATOM     11  C   UNL     1       2.847   3.025  18.544  0.00  0.00    +0.000 A 
ATOM     12  C   UNL     1       1.483   3.291  18.299  0.00  0.00    +0.000 A 
ATOM     13  C   UNL     1       0.555   3.337  19.338  0.00  0.00    +0.000 A 
ATOM     14  C   UNL     1       0.960   3.061  20.638  0.00  0.00    +0.000 A 
ATOM     15  C   UNL     1       2.276   2.672  20.883  0.00  0.00    +0.000 A 
ATOM     16  C   UNL     1       3.215   2.645  19.843  0.00  0.00    +0.000 A 
ATOM     17 BR   UNL     1       4.968   2.072  20.296  0.00  0.00    +0.000 Br
ENDBRANCH  10  11
ENDBRANCH   3  10
BRANCH   5  18
ATOM     18  S   UNL     1       2.471   8.096  18.085  0.00  0.00    +0.000 S 
BRANCH  18  19
ATOM     19  C   UNL     1       2.043   7.680  19.804  0.00  0.00    +0.000 C 
BRANCH  19  20
ATOM     20  C   UNL     1       1.134   8.735  20.412  0.00  0.00    +0.000 A 
ATOM     21  C   UNL     1       0.588   9.760  19.620  0.00  0.00    +0.000 A 
ATOM     22  C   UNL     1      -0.191  10.776  20.192  0.00  0.00    +0.000 A 
ATOM     23  C   UNL     1      -0.430  10.770  21.570  0.00  0.00    +0.000 A 
ATOM     24  C   UNL     1       0.077   9.739  22.371  0.00  0.00    +0.000 A 
ATOM     25  C   UNL     1       0.856   8.730  21.790  0.00  0.00    +0.000 A 
BRANCH  23  26
ATOM     26  N   UNL     1      -1.204  11.861  22.186  0.00  0.00    +0.000 N 
ATOM     27  O   UNL     1      -1.124  12.002  23.414  0.00  0.00    +0.000 OA
ATOM     28  O   UNL     1      -1.895  12.568  21.442  0.00  0.00    +0.000 OA
ENDBRANCH  23  26
ENDBRANCH  19  20
ENDBRANCH  18  19
ENDBRANCH   5  18
TORSDOF 6
ENDMDL
MODEL 9
REMARK VINA RESULT:      -7.8      6.138      8.995
REMARK  Name = 
REMARK  7 active torsions:
REMARK  status: ('A' for Active; 'I' for Inactive)
REMARK    1  A    between atoms: C_1  and  C_2
REMARK    2  A    between atoms: C_3  and  C_4
REMARK    3  A    between atoms: C_4  and  C_5
REMARK    4  A    between atoms: C_13  and  S_14
REMARK    5  A    between atoms: S_14  and  C_15
REMARK    6  A    between atoms: C_15  and  C_16
REMARK    7  A    between atoms: C_19  and  N_20
REMARK                            x       y       z     vdW  Elec       q    Type
REMARK                         _______ _______ _______ _____ _____    ______ ____
ROOT
ATOM      1  C   UNL     1       4.898   3.903  16.173  0.00  0.00    +0.000 C 
ATOM      2  C   UNL     1       5.842   4.776  16.952  0.00  0.00    +0.000 A 
ATOM      3  C   UNL     1       6.041   4.827  18.289  0.00  0.00    +0.000 A 
ATOM      4  N   UNL     1       6.887   5.742  18.900  0.00  0.00    +0.000 NA
ATOM      5  C   UNL     1       7.503   6.584  18.148  0.00  0.00    +0.000 A 
ATOM      6  N   UNL     1       7.399   6.616  16.798  0.00  0.00    +0.000 N 
ATOM      7  C   UNL     1       6.644   5.707  16.115  0.00  0.00    +0.000 A 
ATOM      8  O   UNL     1       6.648   5.672  14.893  0.00  0.00    +0.000 OA
ATOM      9  H   UNL     1       7.930   7.279  16.262  0.00  0.00    +0.000 HD
ENDROOT
BRANCH   3  10
ATOM     10  C   UNL     1       5.358   3.903  19.306  0.00  0.00    +0.000 C 
BRANCH  10  11
ATOM     11  C   UNL     1       3.873   4.201  19.444  0.00  0.00    +0.000 A 
ATOM     12  C   UNL     1       3.483   5.482  19.890  0.00  0.00    +0.000 A 
ATOM     13  C   UNL     1       2.166   5.752  20.260  0.00  0.00    +0.000 A 
ATOM     14  C   UNL     1       1.198   4.764  20.136  0.00  0.00    +0.000 A 
ATOM     15  C   UNL     1       1.536   3.532  19.579  0.00  0.00    +0.000 A 
ATOM     16  C   UNL     1       2.864   3.252  19.226  0.00  0.00    +0.000 A 
ATOM     17 BR   UNL     1       3.195   1.550  18.450  0.00  0.00    +0.000 Br
ENDBRANCH  10  11
ENDBRANCH   3  10
BRANCH   5  18
ATOM     18  S   UNL     1       8.540   7.835  18.764  0.00  0.00    +0.000 S 
BRANCH  18  19
ATOM     19  C   UNL     1       7.915   9.303  17.888  0.00  0.00    +0.000 C 
BRANCH  19  20
ATOM     20  C   UNL     1       8.710  10.543  18.263  0.00  0.00    +0.000 A 
ATOM     21  C   UNL     1       9.652  10.508  19.305  0.00  0.00    +0.000 A 
ATOM     22  C   UNL     1      10.332  11.668  19.702  0.00  0.00    +0.000 A 
ATOM     23  C   UNL     1      10.072  12.878  19.050  0.00  0.00    +0.000 A 
ATOM     24  C   UNL     1       9.162  12.927  17.987  0.00  0.00    +0.000 A 
ATOM     25  C   UNL     1       8.485  11.762  17.601  0.00  0.00    +0.000 A 
BRANCH  23  26
ATOM     26  N   UNL     1      10.745  14.110  19.494  0.00  0.00    +0.000 N 
ATOM     27  O   UNL     1      11.158  14.887  18.621  0.00  0.00    +0.000 OA
ATOM     28  O   UNL     1      10.866  14.294  20.711  0.00  0.00    +0.000 OA
ENDBRANCH  23  26
ENDBRANCH  19  20
ENDBRANCH  18  19
ENDBRANCH   5  18
TORSDOF 6
ENDMDL
