MODEL 1
REMARK VINA RESULT:      -7.8      0.000      0.000
REMARK  Name = 
REMARK  8 active torsions:
REMARK  status: ('A' for Active; 'I' for Inactive)
REMARK    1  A    between atoms: C_1  and  C_2
REMARK    2  A    between atoms: C_2  and  C_3
REMARK    3  A    between atoms: C_2  and  N_11
REMARK    4  A    between atoms: C_3  and  C_4
REMARK    5  A    between atoms: C_4  and  C_5
REMARK    6  A    between atoms: N_11  and  C_12
REMARK    7  A    between atoms: C_12  and  C_13
REMARK    8  A    between atoms: C_16  and  C_17
REMARK                            x       y       z     vdW  Elec       q    Type
REMARK                         _______ _______ _______ _____ _____    ______ ____
ROOT
ATOM      1  C   UNL     1       7.401   5.702  18.096  0.00  0.00    +0.000 C 
ENDROOT
BRANCH   1   2
ATOM      2  C   UNL     1       7.639   7.169  18.033  0.00  0.00    +0.000 A 
ATOM      3  C   UNL     1       7.017   8.116  17.251  0.00  0.00    +0.000 A 
ATOM      4  O   UNL     1       7.581   9.324  17.514  0.00  0.00    +0.000 OA
ATOM      5  C   UNL     1       8.537   9.055  18.461  0.00  0.00    +0.000 A 
ATOM      6  N   UNL     1       8.607   7.782  18.805  0.00  0.00    +0.000 NA
BRANCH   5   7
ATOM      7  C   UNL     1       9.324  10.188  18.940  0.00  0.00    +0.000 A 
ATOM      8  C   UNL     1       9.295  10.593  20.286  0.00  0.00    +0.000 A 
ATOM      9  C   UNL     1      10.058  11.679  20.721  0.00  0.00    +0.000 A 
ATOM     10  C   UNL     1      10.852  12.368  19.813  0.00  0.00    +0.000 A 
ATOM     11  F   UNL     1      11.583  13.410  20.232  0.00  0.00    +0.000 F 
ATOM     12  C   UNL     1      10.897  11.992  18.478  0.00  0.00    +0.000 A 
ATOM     13  C   UNL     1      10.135  10.904  18.041  0.00  0.00    +0.000 A 
ENDBRANCH   5   7
ENDBRANCH   1   2
BRANCH   1  14
ATOM     14  N   UNL     1       7.464   5.083  16.765  0.00  0.00    +0.000 NA
ATOM     15  H   UNL     1       8.052   5.669  16.172  0.00  0.00    +0.000 HD
BRANCH  14  17
ATOM     16  C   UNL     1       6.269   4.033  14.839  0.00  0.00    +0.000 C 
ATOM     17  C   UNL     1       6.161   4.894  16.102  0.00  0.00    +0.000 C 
BRANCH  17  18
ATOM     18  C   UNL     1       5.176   4.225  17.089  0.00  0.00    +0.000 C 
BRANCH  18  19
ATOM     19  C   UNL     1       3.945   5.086  17.406  0.00  0.00    +0.000 C 
BRANCH  19  20
ATOM     20  C   UNL     1       2.886   4.307  18.151  0.00  0.00    +0.000 A 
ATOM     21  C   UNL     1       2.165   4.911  19.192  0.00  0.00    +0.000 A 
ATOM     22  C   UNL     1       1.182   4.200  19.882  0.00  0.00    +0.000 A 
ATOM     23  C   UNL     1       0.911   2.876  19.543  0.00  0.00    +0.000 A 
ATOM     24  C   UNL     1       1.627   2.262  18.517  0.00  0.00    +0.000 A 
ATOM     25  C   UNL     1       2.611   2.972  17.825  0.00  0.00    +0.000 A 
ENDBRANCH  19  20
ENDBRANCH  18  19
ENDBRANCH  17  18
ENDBRANCH  14  17
ENDBRANCH   1  14
TORSDOF 7
ENDMDL
MODEL 2
REMARK VINA RESULT:      -7.8      3.784      9.185
REMARK  Name = 
REMARK  8 active torsions:
REMARK  status: ('A' for Active; 'I' for Inactive)
REMARK    1  A    between atoms: C_1  and  C_2
REMARK    2  A    between atoms: C_2  and  C_3
REMARK    3  A    between atoms: C_2  and  N_11
REMARK    4  A    between atoms: C_3  and  C_4
REMARK    5  A    between atoms: C_4  and  C_5
REMARK    6  A    between atoms: N_11  and  C_12
REMARK    7  A    between atoms: C_12  and  C_13
REMARK    8  A    between atoms: C_16  and  C_17
REMARK                            x       y       z     vdW  Elec       q    Type
REMARK                         _______ _______ _______ _____ _____    ______ ____
ROOT
ATOM      1  C   UNL     1       5.608   6.946  16.431  0.00  0.00    +0.000 C 
ENDROOT
BRANCH   1   2
ATOM      2  C   UNL     1       4.942   5.732  16.975  0.00  0.00    +0.000 A 
ATOM      3  C   UNL     1       4.890   4.462  16.448  0.00  0.00    +0.000 A 
ATOM      4  O   UNL     1       4.148   3.684  17.280  0.00  0.00    +0.000 OA
ATOM      5  C   UNL     1       3.775   4.530  18.294  0.00  0.00    +0.000 A 
ATOM      6  N   UNL     1       4.228   5.763  18.157  0.00  0.00    +0.000 NA
BRANCH   5   7
ATOM      7  C   UNL     1       2.947   3.960  19.354  0.00  0.00    +0.000 A 
ATOM      8  C   UNL     1       1.569   4.223  19.439  0.00  0.00    +0.000 A 
ATOM      9  C   UNL     1       0.797   3.664  20.461  0.00  0.00    +0.000 A 
ATOM     10  C   UNL     1       1.400   2.842  21.404  0.00  0.00    +0.000 A 
ATOM     11  F   UNL     1       0.659   2.307  22.384  0.00  0.00    +0.000 F 
ATOM     12  C   UNL     1       2.760   2.568  21.345  0.00  0.00    +0.000 A 
ATOM     13  C   UNL     1       3.533   3.126  20.323  0.00  0.00    +0.000 A 
ENDBRANCH   5   7
ENDBRANCH   1   2
BRANCH   1  14
ATOM     14  N   UNL     1       7.039   6.977  16.764  0.00  0.00    +0.000 NA
ATOM     15  H   UNL     1       7.489   6.195  16.289  0.00  0.00    +0.000 HD
BRANCH  14  17
ATOM     16  C   UNL     1       7.881   5.522  18.612  0.00  0.00    +0.000 C 
ATOM     17  C   UNL     1       7.346   6.900  18.204  0.00  0.00    +0.000 C 
BRANCH  17  18
ATOM     18  C   UNL     1       8.395   7.978  18.564  0.00  0.00    +0.000 C 
BRANCH  18  19
ATOM     19  C   UNL     1       8.253   9.269  17.746  0.00  0.00    +0.000 C 
BRANCH  19  20
ATOM     20  C   UNL     1       8.847  10.460  18.462  0.00  0.00    +0.000 A 
ATOM     21  C   UNL     1       8.875  11.717  17.839  0.00  0.00    +0.000 A 
ATOM     22  C   UNL     1       9.418  12.823  18.495  0.00  0.00    +0.000 A 
ATOM     23  C   UNL     1       9.943  12.686  19.777  0.00  0.00    +0.000 A 
ATOM     24  C   UNL     1       9.931  11.440  20.403  0.00  0.00    +0.000 A 
ATOM     25  C   UNL     1       9.388  10.332  19.748  0.00  0.00    +0.000 A 
ENDBRANCH  19  20
ENDBRANCH  18  19
ENDBRANCH  17  18
ENDBRANCH  14  17
ENDBRANCH   1  14
TORSDOF 7
ENDMDL
MODEL 3
REMARK VINA RESULT:      -7.8      3.710      9.322
REMARK  Name = 
REMARK  8 active torsions:
REMARK  status: ('A' for Active; 'I' for Inactive)
REMARK    1  A    between atoms: C_1  and  C_2
REMARK    2  A    between atoms: C_2  and  C_3
REMARK    3  A    between atoms: C_2  and  N_11
REMARK    4  A    between atoms: C_3  and  C_4
REMARK    5  A    between atoms: C_4  and  C_5
REMARK    6  A    between atoms: N_11  and  C_12
REMARK    7  A    between atoms: C_12  and  C_13
REMARK    8  A    between atoms: C_16  and  C_17
REMARK                            x       y       z     vdW  Elec       q    Type
REMARK                         _______ _______ _______ _____ _____    ______ ____
ROOT
ATOM      1  C   UNL     1       5.592   7.001  16.323  0.00  0.00    +0.000 C 
ENDROOT
BRANCH   1   2
ATOM      2  C   UNL     1       4.912   5.786  16.848  0.00  0.00    +0.000 A 
ATOM      3  C   UNL     1       4.812   4.536  16.281  0.00  0.00    +0.000 A 
ATOM      4  O   UNL     1       4.075   3.749  17.109  0.00  0.00    +0.000 OA
ATOM      5  C   UNL     1       3.754   4.570  18.161  0.00  0.00    +0.000 A 
ATOM      6  N   UNL     1       4.233   5.795  18.051  0.00  0.00    +0.000 NA
BRANCH   5   7
ATOM      7  C   UNL     1       2.943   3.985  19.226  0.00  0.00    +0.000 A 
ATOM      8  C   UNL     1       2.870   4.567  20.504  0.00  0.00    +0.000 A 
ATOM      9  C   UNL     1       2.086   3.990  21.507  0.00  0.00    +0.000 A 
ATOM     10  C   UNL     1       1.373   2.828  21.238  0.00  0.00    +0.000 A 
ATOM     11  F   UNL     1       0.623   2.276  22.200  0.00  0.00    +0.000 F 
ATOM     12  C   UNL     1       1.431   2.231  19.986  0.00  0.00    +0.000 A 
ATOM     13  C   UNL     1       2.214   2.808  18.982  0.00  0.00    +0.000 A 
ENDBRANCH   5   7
ENDBRANCH   1   2
BRANCH   1  14
ATOM     14  N   UNL     1       7.030   6.991  16.625  0.00  0.00    +0.000 NA
ATOM     15  H   UNL     1       7.407   6.089  16.334  0.00  0.00    +0.000 HD
BRANCH  14  17
ATOM     16  C   UNL     1       7.719   5.910  18.769  0.00  0.00    +0.000 C 
ATOM     17  C   UNL     1       7.372   7.214  18.041  0.00  0.00    +0.000 C 
BRANCH  17  18
ATOM     18  C   UNL     1       8.576   8.181  18.133  0.00  0.00    +0.000 C 
BRANCH  18  19
ATOM     19  C   UNL     1       8.181   9.662  18.067  0.00  0.00    +0.000 C 
BRANCH  19  20
ATOM     20  C   UNL     1       9.238  10.559  18.667  0.00  0.00    +0.000 A 
ATOM     21  C   UNL     1       9.282  10.770  20.053  0.00  0.00    +0.000 A 
ATOM     22  C   UNL     1      10.259  11.593  20.617  0.00  0.00    +0.000 A 
ATOM     23  C   UNL     1      11.199  12.218  19.802  0.00  0.00    +0.000 A 
ATOM     24  C   UNL     1      11.160  12.025  18.421  0.00  0.00    +0.000 A 
ATOM     25  C   UNL     1      10.183  11.202  17.856  0.00  0.00    +0.000 A 
ENDBRANCH  19  20
ENDBRANCH  18  19
ENDBRANCH  17  18
ENDBRANCH  14  17
ENDBRANCH   1  14
TORSDOF 7
ENDMDL
MODEL 4
REMARK VINA RESULT:      -7.7      5.604      7.064
REMARK  Name = 
REMARK  8 active torsions:
REMARK  status: ('A' for Active; 'I' for Inactive)
REMARK    1  A    between atoms: C_1  and  C_2
REMARK    2  A    between atoms: C_2  and  C_3
REMARK    3  A    between atoms: C_2  and  N_11
REMARK    4  A    between atoms: C_3  and  C_4
REMARK    5  A    between atoms: C_4  and  C_5
REMARK    6  A    between atoms: N_11  and  C_12
REMARK    7  A    between atoms: C_12  and  C_13
REMARK    8  A    between atoms: C_16  and  C_17
REMARK                            x       y       z     vdW  Elec       q    Type
REMARK                         _______ _______ _______ _____ _____    ______ ____
ROOT
ATOM      1  C   UNL     1       3.257   7.372  17.678  0.00  0.00    +0.000 C 
ENDROOT
BRANCH   1   2
ATOM      2  C   UNL     1       2.477   7.567  18.931  0.00  0.00    +0.000 A 
ATOM      3  C   UNL     1       2.247   6.677  19.955  0.00  0.00    +0.000 A 
ATOM      4  O   UNL     1       1.459   7.286  20.880  0.00  0.00    +0.000 OA
ATOM      5  C   UNL     1       1.242   8.541  20.369  0.00  0.00    +0.000 A 
ATOM      6  N   UNL     1       1.832   8.756  19.208  0.00  0.00    +0.000 NA
BRANCH   5   7
ATOM      7  C   UNL     1       0.405   9.437  21.162  0.00  0.00    +0.000 A 
ATOM      8  C   UNL     1       0.113   9.175  22.513  0.00  0.00    +0.000 A 
ATOM      9  C   UNL     1      -0.688  10.048  23.252  0.00  0.00    +0.000 A 
ATOM     10  C   UNL     1      -1.203  11.187  22.646  0.00  0.00    +0.000 A 
ATOM     11  F   UNL     1      -1.972  12.023  23.356  0.00  0.00    +0.000 F 
ATOM     12  C   UNL     1      -0.933  11.469  21.314  0.00  0.00    +0.000 A 
ATOM     13  C   UNL     1      -0.131  10.596  20.573  0.00  0.00    +0.000 A 
ENDBRANCH   5   7
ENDBRANCH   1   2
BRANCH   1  14
ATOM     14  N   UNL     1       4.368   6.429  17.870  0.00  0.00    +0.000 NA
ATOM     15  H   UNL     1       5.239   6.958  17.834  0.00  0.00    +0.000 HD
BRANCH  14  17
ATOM     16  C   UNL     1       5.399   5.646  15.734  0.00  0.00    +0.000 C 
ATOM     17  C   UNL     1       4.434   5.335  16.884  0.00  0.00    +0.000 C 
BRANCH  17  18
ATOM     18  C   UNL     1       4.888   4.036  17.589  0.00  0.00    +0.000 C 
BRANCH  18  19
ATOM     19  C   UNL     1       3.825   2.929  17.581  0.00  0.00    +0.000 C 
BRANCH  19  20
ATOM     20  C   UNL     1       2.948   2.976  18.810  0.00  0.00    +0.000 A 
ATOM     21  C   UNL     1       1.577   3.248  18.691  0.00  0.00    +0.000 A 
ATOM     22  C   UNL     1       0.760   3.289  19.821  0.00  0.00    +0.000 A 
ATOM     23  C   UNL     1       1.303   3.065  21.084  0.00  0.00    +0.000 A 
ATOM     24  C   UNL     1       2.666   2.804  21.217  0.00  0.00    +0.000 A 
ATOM     25  C   UNL     1       3.486   2.763  20.087  0.00  0.00    +0.000 A 
ENDBRANCH  19  20
ENDBRANCH  18  19
ENDBRANCH  17  18
ENDBRANCH  14  17
ENDBRANCH   1  14
TORSDOF 7
ENDMDL
MODEL 5
REMARK VINA RESULT:      -7.7      5.639      7.057
REMARK  Name = 
REMARK  8 active torsions:
REMARK  status: ('A' for Active; 'I' for Inactive)
REMARK    1  A    between atoms: C_1  and  C_2
REMARK    2  A    between atoms: C_2  and  C_3
REMARK    3  A    between atoms: C_2  and  N_11
REMARK    4  A    between atoms: C_3  and  C_4
REMARK    5  A    between atoms: C_4  and  C_5
REMARK    6  A    between atoms: N_11  and  C_12
REMARK    7  A    between atoms: C_12  and  C_13
REMARK    8  A    between atoms: C_16  and  C_17
REMARK                            x       y       z     vdW  Elec       q    Type
REMARK                         _______ _______ _______ _____ _____    ______ ____
ROOT
ATOM      1  C   UNL     1       3.288   6.841  17.862  0.00  0.00    +0.000 C 
ENDROOT
BRANCH   1   2
ATOM      2  C   UNL     1       2.505   7.152  19.088  0.00  0.00    +0.000 A 
ATOM      3  C   UNL     1       2.202   6.336  20.153  0.00  0.00    +0.000 A 
ATOM      4  O   UNL     1       1.442   7.043  21.031  0.00  0.00    +0.000 OA
ATOM      5  C   UNL     1       1.315   8.280  20.450  0.00  0.00    +0.000 A 
ATOM      6  N   UNL     1       1.935   8.394  19.291  0.00  0.00    +0.000 NA
BRANCH   5   7
ATOM      7  C   UNL     1       0.528   9.270  21.181  0.00  0.00    +0.000 A 
ATOM      8  C   UNL     1       0.089  10.461  20.575  0.00  0.00    +0.000 A 
ATOM      9  C   UNL     1      -0.664  11.392  21.294  0.00  0.00    +0.000 A 
ATOM     10  C   UNL     1      -0.982  11.139  22.622  0.00  0.00    +0.000 A 
ATOM     11  F   UNL     1      -1.704  12.033  23.310  0.00  0.00    +0.000 F 
ATOM     12  C   UNL     1      -0.560   9.973  23.246  0.00  0.00    +0.000 A 
ATOM     13  C   UNL     1       0.194   9.040  22.528  0.00  0.00    +0.000 A 
ENDBRANCH   5   7
ENDBRANCH   1   2
BRANCH   1  14
ATOM     14  N   UNL     1       4.455   6.000  18.160  0.00  0.00    +0.000 NA
ATOM     15  H   UNL     1       5.239   6.615  18.379  0.00  0.00    +0.000 HD
BRANCH  14  17
ATOM     16  C   UNL     1       6.184   4.376  17.377  0.00  0.00    +0.000 C 
ATOM     17  C   UNL     1       4.857   5.084  17.078  0.00  0.00    +0.000 C 
BRANCH  17  18
ATOM     18  C   UNL     1       3.753   4.023  16.866  0.00  0.00    +0.000 C 
BRANCH  18  19
ATOM     19  C   UNL     1       3.913   2.784  17.758  0.00  0.00    +0.000 C 
BRANCH  19  20
ATOM     20  C   UNL     1       2.982   2.818  18.948  0.00  0.00    +0.000 A 
ATOM     21  C   UNL     1       1.597   2.943  18.759  0.00  0.00    +0.000 A 
ATOM     22  C   UNL     1       0.730   2.971  19.853  0.00  0.00    +0.000 A 
ATOM     23  C   UNL     1       1.236   2.880  21.147  0.00  0.00    +0.000 A 
ATOM     24  C   UNL     1       2.611   2.765  21.348  0.00  0.00    +0.000 A 
ATOM     25  C   UNL     1       3.481   2.737  20.255  0.00  0.00    +0.000 A 
ENDBRANCH  19  20
ENDBRANCH  18  19
ENDBRANCH  17  18
ENDBRANCH  14  17
ENDBRANCH   1  14
TORSDOF 7
ENDMDL
MODEL 6
REMARK VINA RESULT:      -7.7      1.455      2.237
REMARK  Name = 
REMARK  8 active torsions:
REMARK  status: ('A' for Active; 'I' for Inactive)
REMARK    1  A    between atoms: C_1  and  C_2
REMARK    2  A    between atoms: C_2  and  C_3
REMARK    3  A    between atoms: C_2  and  N_11
REMARK    4  A    between atoms: C_3  and  C_4
REMARK    5  A    between atoms: C_4  and  C_5
REMARK    6  A    between atoms: N_11  and  C_12
REMARK    7  A    between atoms: C_12  and  C_13
REMARK    8  A    between atoms: C_16  and  C_17
REMARK                            x       y       z     vdW  Elec       q    Type
REMARK                         _______ _______ _______ _____ _____    ______ ____
ROOT
ATOM      1  C   UNL     1       6.472   6.598  16.546  0.00  0.00    +0.000 C 
ENDROOT
BRANCH   1   2
ATOM      2  C   UNL     1       7.372   7.340  17.469  0.00  0.00    +0.000 A 
ATOM      3  C   UNL     1       8.063   6.877  18.565  0.00  0.00    +0.000 A 
ATOM      4  O   UNL     1       8.736   7.920  19.117  0.00  0.00    +0.000 OA
ATOM      5  C   UNL     1       8.420   8.990  18.319  0.00  0.00    +0.000 A 
ATOM      6  N   UNL     1       7.610   8.692  17.320  0.00  0.00    +0.000 NA
BRANCH   5   7
ATOM      7  C   UNL     1       9.009  10.277  18.682  0.00  0.00    +0.000 A 
ATOM      8  C   UNL     1       8.969  11.381  17.812  0.00  0.00    +0.000 A 
ATOM      9  C   UNL     1       9.537  12.602  18.182  0.00  0.00    +0.000 A 
ATOM     10  C   UNL     1      10.150  12.726  19.422  0.00  0.00    +0.000 A 
ATOM     11  F   UNL     1      10.695  13.897  19.776  0.00  0.00    +0.000 F 
ATOM     12  C   UNL     1      10.206  11.651  20.300  0.00  0.00    +0.000 A 
ATOM     13  C   UNL     1       9.637  10.429  19.931  0.00  0.00    +0.000 A 
ENDBRANCH   5   7
ENDBRANCH   1   2
BRANCH   1  14
ATOM     14  N   UNL     1       5.056   6.883  16.820  0.00  0.00    +0.000 NA
ATOM     15  H   UNL     1       5.011   7.506  17.626  0.00  0.00    +0.000 HD
BRANCH  14  17
ATOM     16  C   UNL     1       5.003   4.580  17.785  0.00  0.00    +0.000 C 
ATOM     17  C   UNL     1       4.221   5.699  17.088  0.00  0.00    +0.000 C 
BRANCH  17  18
ATOM     18  C   UNL     1       3.021   6.106  17.974  0.00  0.00    +0.000 C 
BRANCH  18  19
ATOM     19  C   UNL     1       1.860   5.104  17.934  0.00  0.00    +0.000 C 
BRANCH  19  20
ATOM     20  C   UNL     1       1.782   4.276  19.196  0.00  0.00    +0.000 A 
ATOM     21  C   UNL     1       1.189   3.005  19.174  0.00  0.00    +0.000 A 
ATOM     22  C   UNL     1       1.118   2.233  20.334  0.00  0.00    +0.000 A 
ATOM     23  C   UNL     1       1.633   2.723  21.531  0.00  0.00    +0.000 A 
ATOM     24  C   UNL     1       2.215   3.989  21.570  0.00  0.00    +0.000 A 
ATOM     25  C   UNL     1       2.288   4.764  20.409  0.00  0.00    +0.000 A 
ENDBRANCH  19  20
ENDBRANCH  18  19
ENDBRANCH  17  18
ENDBRANCH  14  17
ENDBRANCH   1  14
TORSDOF 7
ENDMDL
MODEL 7
REMARK VINA RESULT:      -7.7      1.366      1.955
REMARK  Name = 
REMARK  8 active torsions:
REMARK  status: ('A' for Active; 'I' for Inactive)
REMARK    1  A    between atoms: C_1  and  C_2
REMARK    2  A    between atoms: C_2  and  C_3
REMARK    3  A    between atoms: C_2  and  N_11
REMARK    4  A    between atoms: C_3  and  C_4
REMARK    5  A    between atoms: C_4  and  C_5
REMARK    6  A    between atoms: N_11  and  C_12
REMARK    7  A    between atoms: C_12  and  C_13
REMARK    8  A    between atoms: C_16  and  C_17
REMARK                            x       y       z     vdW  Elec       q    Type
REMARK                         _______ _______ _______ _____ _____    ______ ____
ROOT
ATOM      1  C   UNL     1       6.626   6.012  16.383  0.00  0.00    +0.000 C 
ENDROOT
BRANCH   1   2
ATOM      2  C   UNL     1       7.389   6.864  17.334  0.00  0.00    +0.000 A 
ATOM      3  C   UNL     1       7.985   6.516  18.525  0.00  0.00    +0.000 A 
ATOM      4  O   UNL     1       8.546   7.630  19.063  0.00  0.00    +0.000 OA
ATOM      5  C   UNL     1       8.262   8.624  18.161  0.00  0.00    +0.000 A 
ATOM      6  N   UNL     1       7.575   8.215  17.111  0.00  0.00    +0.000 NA
BRANCH   5   7
ATOM      7  C   UNL     1       8.747   9.964  18.486  0.00  0.00    +0.000 A 
ATOM      8  C   UNL     1       8.525  11.058  17.631  0.00  0.00    +0.000 A 
ATOM      9  C   UNL     1       8.997  12.330  17.964  0.00  0.00    +0.000 A 
ATOM     10  C   UNL     1       9.695  12.515  19.151  0.00  0.00    +0.000 A 
ATOM     11  F   UNL     1      10.147  13.735  19.468  0.00  0.00    +0.000 F 
ATOM     12  C   UNL     1       9.931  11.451  20.011  0.00  0.00    +0.000 A 
ATOM     13  C   UNL     1       9.458  10.178  19.680  0.00  0.00    +0.000 A 
ENDBRANCH   5   7
ENDBRANCH   1   2
BRANCH   1  14
ATOM     14  N   UNL     1       6.053   4.833  17.049  0.00  0.00    +0.000 NA
ATOM     15  H   UNL     1       6.499   4.003  16.658  0.00  0.00    +0.000 HD
BRANCH  14  17
ATOM     16  C   UNL     1       4.125   3.246  17.121  0.00  0.00    +0.000 C 
ATOM     17  C   UNL     1       4.591   4.693  16.919  0.00  0.00    +0.000 C 
BRANCH  17  18
ATOM     18  C   UNL     1       3.894   5.599  17.961  0.00  0.00    +0.000 C 
BRANCH  18  19
ATOM     19  C   UNL     1       2.379   5.377  18.052  0.00  0.00    +0.000 C 
BRANCH  19  20
ATOM     20  C   UNL     1       2.005   4.494  19.220  0.00  0.00    +0.000 A 
ATOM     21  C   UNL     1       2.598   4.692  20.475  0.00  0.00    +0.000 A 
ATOM     22  C   UNL     1       2.255   3.883  21.559  0.00  0.00    +0.000 A 
ATOM     23  C   UNL     1       1.320   2.864  21.401  0.00  0.00    +0.000 A 
ATOM     24  C   UNL     1       0.731   2.649  20.156  0.00  0.00    +0.000 A 
ATOM     25  C   UNL     1       1.073   3.458  19.069  0.00  0.00    +0.000 A 
ENDBRANCH  19  20
ENDBRANCH  18  19
ENDBRANCH  17  18
ENDBRANCH  14  17
ENDBRANCH   1  14
TORSDOF 7
ENDMDL
MODEL 8
REMARK VINA RESULT:      -7.6      0.974      1.377
REMARK  Name = 
REMARK  8 active torsions:
REMARK  status: ('A' for Active; 'I' for Inactive)
REMARK    1  A    between atoms: C_1  and  C_2
REMARK    2  A    between atoms: C_2  and  C_3
REMARK    3  A    between atoms: C_2  and  N_11
REMARK    4  A    between atoms: C_3  and  C_4
REMARK    5  A    between atoms: C_4  and  C_5
REMARK    6  A    between atoms: N_11  and  C_12
REMARK    7  A    between atoms: C_12  and  C_13
REMARK    8  A    between atoms: C_16  and  C_17
REMARK                            x       y       z     vdW  Elec       q    Type
REMARK                         _______ _______ _______ _____ _____    ______ ____
ROOT
ATOM      1  C   UNL     1       7.442   5.082  18.272  0.00  0.00    +0.000 C 
ENDROOT
BRANCH   1   2
ATOM      2  C   UNL     1       7.493   6.540  17.980  0.00  0.00    +0.000 A 
ATOM      3  C   UNL     1       6.804   7.258  17.029  0.00  0.00    +0.000 A 
ATOM      4  O   UNL     1       7.191   8.558  17.113  0.00  0.00    +0.000 OA
ATOM      5  C   UNL     1       8.113   8.574  18.129  0.00  0.00    +0.000 A 
ATOM      6  N   UNL     1       8.325   7.392  18.679  0.00  0.00    +0.000 NA
BRANCH   5   7
ATOM      7  C   UNL     1       8.717   9.865  18.448  0.00  0.00    +0.000 A 
ATOM      8  C   UNL     1       9.511  10.048  19.594  0.00  0.00    +0.000 A 
ATOM      9  C   UNL     1      10.080  11.292  19.877  0.00  0.00    +0.000 A 
ATOM     10  C   UNL     1       9.857  12.361  19.017  0.00  0.00    +0.000 A 
ATOM     11  F   UNL     1      10.402  13.553  19.289  0.00  0.00    +0.000 F 
ATOM     12  C   UNL     1       9.074  12.208  17.880  0.00  0.00    +0.000 A 
ATOM     13  C   UNL     1       8.505  10.964  17.595  0.00  0.00    +0.000 A 
ENDBRANCH   5   7
ENDBRANCH   1   2
BRANCH   1  14
ATOM     14  N   UNL     1       7.168   4.294  17.062  0.00  0.00    +0.000 NA
ATOM     15  H   UNL     1       7.877   4.527  16.367  0.00  0.00    +0.000 HD
BRANCH  14  17
ATOM     16  C   UNL     1       5.841   4.330  14.946  0.00  0.00    +0.000 C 
ATOM     17  C   UNL     1       5.835   4.505  16.469  0.00  0.00    +0.000 C 
BRANCH  17  18
ATOM     18  C   UNL     1       4.833   3.503  17.090  0.00  0.00    +0.000 C 
BRANCH  18  19
ATOM     19  C   UNL     1       3.365   3.919  16.922  0.00  0.00    +0.000 C 
BRANCH  19  20
ATOM     20  C   UNL     1       2.626   3.933  18.239  0.00  0.00    +0.000 A 
ATOM     21  C   UNL     1       1.574   3.035  18.470  0.00  0.00    +0.000 A 
ATOM     22  C   UNL     1       0.888   3.038  19.686  0.00  0.00    +0.000 A 
ATOM     23  C   UNL     1       1.242   3.943  20.683  0.00  0.00    +0.000 A 
ATOM     24  C   UNL     1       2.279   4.849  20.463  0.00  0.00    +0.000 A 
ATOM     25  C   UNL     1       2.966   4.846  19.247  0.00  0.00    +0.000 A 
ENDBRANCH  19  20
ENDBRANCH  18  19
ENDBRANCH  17  18
ENDBRANCH  14  17
ENDBRANCH   1  14
TORSDOF 7
ENDMDL
MODEL 9
REMARK VINA RESULT:      -7.5      5.408      7.094
REMARK  Name = 
REMARK  8 active torsions:
REMARK  status: ('A' for Active; 'I' for Inactive)
REMARK    1  A    between atoms: C_1  and  C_2
REMARK    2  A    between atoms: C_2  and  C_3
REMARK    3  A    between atoms: C_2  and  N_11
REMARK    4  A    between atoms: C_3  and  C_4
REMARK    5  A    between atoms: C_4  and  C_5
REMARK    6  A    between atoms: N_11  and  C_12
REMARK    7  A    between atoms: C_12  and  C_13
REMARK    8  A    between atoms: C_16  and  C_17
REMARK                            x       y       z     vdW  Elec       q    Type
REMARK                         _______ _______ _______ _____ _____    ______ ____
ROOT
ATOM      1  C   UNL     1       2.948   6.600  18.669  0.00  0.00    +0.000 C 
ENDROOT
BRANCH   1   2
ATOM      2  C   UNL     1       2.161   7.838  18.915  0.00  0.00    +0.000 A 
ATOM      3  C   UNL     1       1.880   8.873  18.053  0.00  0.00    +0.000 A 
ATOM      4  O   UNL     1       1.149   9.802  18.724  0.00  0.00    +0.000 OA
ATOM      5  C   UNL     1       1.015   9.281  19.986  0.00  0.00    +0.000 A 
ATOM      6  N   UNL     1       1.600   8.109  20.148  0.00  0.00    +0.000 NA
BRANCH   5   7
ATOM      7  C   UNL     1       0.263  10.082  20.950  0.00  0.00    +0.000 A 
ATOM      8  C   UNL     1      -0.144   9.558  22.189  0.00  0.00    +0.000 A 
ATOM      9  C   UNL     1      -0.861  10.343  23.095  0.00  0.00    +0.000 A 
ATOM     10  C   UNL     1      -1.175  11.656  22.767  0.00  0.00    +0.000 A 
ATOM     11  F   UNL     1      -1.862  12.408  23.636  0.00  0.00    +0.000 F 
ATOM     12  C   UNL     1      -0.787  12.198  21.549  0.00  0.00    +0.000 A 
ATOM     13  C   UNL     1      -0.070  11.413  20.642  0.00  0.00    +0.000 A 
ENDBRANCH   5   7
ENDBRANCH   1   2
BRANCH   1  14
ATOM     14  N   UNL     1       3.890   6.768  17.553  0.00  0.00    +0.000 NA
ATOM     15  H   UNL     1       3.353   7.016  16.722  0.00  0.00    +0.000 HD
BRANCH  14  17
ATOM     16  C   UNL     1       5.692   5.249  18.382  0.00  0.00    +0.000 C 
ATOM     17  C   UNL     1       4.715   5.584  17.250  0.00  0.00    +0.000 C 
BRANCH  17  18
ATOM     18  C   UNL     1       3.793   4.367  17.000  0.00  0.00    +0.000 C 
BRANCH  18  19
ATOM     19  C   UNL     1       4.090   3.173  17.917  0.00  0.00    +0.000 C 
BRANCH  19  20
ATOM     20  C   UNL     1       3.080   3.052  19.034  0.00  0.00    +0.000 A 
ATOM     21  C   UNL     1       3.506   2.838  20.353  0.00  0.00    +0.000 A 
ATOM     22  C   UNL     1       2.579   2.729  21.391  0.00  0.00    +0.000 A 
ATOM     23  C   UNL     1       1.217   2.827  21.123  0.00  0.00    +0.000 A 
ATOM     24  C   UNL     1       0.779   3.029  19.814  0.00  0.00    +0.000 A 
ATOM     25  C   UNL     1       1.705   3.138  18.774  0.00  0.00    +0.000 A 
ENDBRANCH  19  20
ENDBRANCH  18  19
ENDBRANCH  17  18
ENDBRANCH  14  17
ENDBRANCH   1  14
TORSDOF 7
ENDMDL
