MODEL 1
REMARK VINA RESULT:      -8.7      0.000      0.000
REMARK  Name = 
REMARK  2 active torsions:
REMARK  status: ('A' for Active; 'I' for Inactive)
REMARK    1  A    between atoms: C_10  and  C_11
REMARK    2  A    between atoms: C_18  and  C_19
REMARK                            x       y       z     vdW  Elec       q    Type
REMARK                         _______ _______ _______ _____ _____    ______ ____
ROOT
ATOM      1  O   UNL     1       0.132  11.775  20.346  0.00  0.00    +0.000 OA
ATOM      2  N   UNL     1       0.775  10.968  19.658  0.00  0.00    +0.000 N 
ATOM      3  O   UNL     1       1.244  11.199  18.535  0.00  0.00    +0.000 OA
ATOM      4  C   UNL     1       0.959   9.647  20.235  0.00  0.00    +0.000 A 
ATOM      5  C   UNL     1       0.465   9.161  21.463  0.00  0.00    +0.000 A 
ATOM      6  C   UNL     1       0.872   7.849  21.498  0.00  0.00    +0.000 A 
ATOM      7  N   UNL     1       1.587   7.608  20.336  0.00  0.00    +0.000 N 
ATOM      8  C   UNL     1       2.158   6.349  19.943  0.00  0.00    +0.000 A 
ATOM      9  N   UNL     1       2.913   6.305  18.831  0.00  0.00    +0.000 NA
ATOM     10  C   UNL     1       3.436   5.116  18.463  0.00  0.00    +0.000 A 
ATOM     11  C   UNL     1       3.161   3.962  19.173  0.00  0.00    +0.000 A 
ATOM     12  C   UNL     1       2.362   4.074  20.300  0.00  0.00    +0.000 A 
ATOM     13  N   UNL     1       1.876   5.274  20.709  0.00  0.00    +0.000 NA
ATOM     14  N   UNL     1       1.668   8.729  19.562  0.00  0.00    +0.000 NA
ENDROOT
BRANCH  10  15
ATOM     15  C   UNL     1       4.294   5.124  17.261  0.00  0.00    +0.000 A 
ATOM     16  C   UNL     1       4.797   3.932  16.703  0.00  0.00    +0.000 A 
ATOM     17  C   UNL     1       5.599   3.946  15.557  0.00  0.00    +0.000 A 
ATOM     18  C   UNL     1       5.921   5.152  14.946  0.00  0.00    +0.000 A 
ATOM     19  C   UNL     1       5.448   6.346  15.484  0.00  0.00    +0.000 A 
ATOM     20  C   UNL     1       4.648   6.330  16.630  0.00  0.00    +0.000 A 
ENDBRANCH  10  15
BRANCH  12  21
ATOM     21  C   UNL     1       1.988   2.824  21.083  0.00  0.00    +0.000 C 
ATOM     22  F   UNL     1       0.920   3.008  21.912  0.00  0.00    +0.000 F 
ATOM     23  F   UNL     1       1.652   1.776  20.280  0.00  0.00    +0.000 F 
ATOM     24  F   UNL     1       3.000   2.382  21.882  0.00  0.00    +0.000 F 
ENDBRANCH  12  21
TORSDOF 2
ENDMDL
MODEL 2
REMARK VINA RESULT:      -8.6      0.158      1.228
REMARK  Name = 
REMARK  2 active torsions:
REMARK  status: ('A' for Active; 'I' for Inactive)
REMARK    1  A    between atoms: C_10  and  C_11
REMARK    2  A    between atoms: C_18  and  C_19
REMARK                            x       y       z     vdW  Elec       q    Type
REMARK                         _______ _______ _______ _____ _____    ______ ____
ROOT
ATOM      1  O   UNL     1      -0.022  11.800  20.432  0.00  0.00    +0.000 OA
ATOM      2  N   UNL     1       0.626  11.007  19.733  0.00  0.00    +0.000 N 
ATOM      3  O   UNL     1       1.066  11.248  18.600  0.00  0.00    +0.000 OA
ATOM      4  C   UNL     1       0.856   9.693  20.308  0.00  0.00    +0.000 A 
ATOM      5  C   UNL     1       0.401   9.198  21.547  0.00  0.00    +0.000 A 
ATOM      6  C   UNL     1       0.842   7.897  21.576  0.00  0.00    +0.000 A 
ATOM      7  N   UNL     1       1.539   7.672  20.400  0.00  0.00    +0.000 N 
ATOM      8  C   UNL     1       2.133   6.427  19.997  0.00  0.00    +0.000 A 
ATOM      9  N   UNL     1       2.866   6.399  18.869  0.00  0.00    +0.000 NA
ATOM     10  C   UNL     1       3.411   5.223  18.493  0.00  0.00    +0.000 A 
ATOM     11  C   UNL     1       3.181   4.064  19.211  0.00  0.00    +0.000 A 
ATOM     12  C   UNL     1       2.403   4.158  20.354  0.00  0.00    +0.000 A 
ATOM     13  N   UNL     1       1.895   5.346  20.771  0.00  0.00    +0.000 NA
ATOM     14  N   UNL     1       1.574   8.792  19.622  0.00  0.00    +0.000 NA
ENDROOT
BRANCH  10  15
ATOM     15  C   UNL     1       4.243   5.250  17.273  0.00  0.00    +0.000 A 
ATOM     16  C   UNL     1       4.590   6.459  16.640  0.00  0.00    +0.000 A 
ATOM     17  C   UNL     1       5.390   6.477  15.492  0.00  0.00    +0.000 A 
ATOM     18  C   UNL     1       5.855   5.286  14.948  0.00  0.00    +0.000 A 
ATOM     19  C   UNL     1       5.515   4.075  15.545  0.00  0.00    +0.000 A 
ATOM     20  C   UNL     1       4.716   4.059  16.692  0.00  0.00    +0.000 A 
ENDBRANCH  10  15
BRANCH  12  21
ATOM     21  C   UNL     1       2.078   2.902  21.147  0.00  0.00    +0.000 C 
ATOM     22  F   UNL     1       1.542   1.906  20.383  0.00  0.00    +0.000 F 
ATOM     23  F   UNL     1       3.172   2.355  21.747  0.00  0.00    +0.000 F 
ATOM     24  F   UNL     1       1.172   3.127  22.141  0.00  0.00    +0.000 F 
ENDBRANCH  12  21
TORSDOF 2
ENDMDL
MODEL 3
REMARK VINA RESULT:      -8.5      0.626      1.270
REMARK  Name = 
REMARK  2 active torsions:
REMARK  status: ('A' for Active; 'I' for Inactive)
REMARK    1  A    between atoms: C_10  and  C_11
REMARK    2  A    between atoms: C_18  and  C_19
REMARK                            x       y       z     vdW  Elec       q    Type
REMARK                         _______ _______ _______ _____ _____    ______ ____
ROOT
ATOM      1  O   UNL     1       0.251  11.683  19.950  0.00  0.00    +0.000 OA
ATOM      2  N   UNL     1       0.992  10.875  19.369  0.00  0.00    +0.000 N 
ATOM      3  O   UNL     1       1.621  11.104  18.326  0.00  0.00    +0.000 OA
ATOM      4  C   UNL     1       1.093   9.558  19.972  0.00  0.00    +0.000 A 
ATOM      5  C   UNL     1       0.424   9.074  21.115  0.00  0.00    +0.000 A 
ATOM      6  C   UNL     1       0.827   7.764  21.216  0.00  0.00    +0.000 A 
ATOM      7  N   UNL     1       1.707   7.522  20.174  0.00  0.00    +0.000 N 
ATOM      8  C   UNL     1       2.334   6.264  19.875  0.00  0.00    +0.000 A 
ATOM      9  N   UNL     1       3.246   6.219  18.887  0.00  0.00    +0.000 NA
ATOM     10  C   UNL     1       3.822   5.031  18.606  0.00  0.00    +0.000 A 
ATOM     11  C   UNL     1       3.450   3.878  19.273  0.00  0.00    +0.000 A 
ATOM     12  C   UNL     1       2.492   3.991  20.268  0.00  0.00    +0.000 A 
ATOM     13  N   UNL     1       1.947   5.190  20.595  0.00  0.00    +0.000 NA
ATOM     14  N   UNL     1       1.897   8.640  19.415  0.00  0.00    +0.000 NA
ENDROOT
BRANCH  10  15
ATOM     15  C   UNL     1       4.849   5.038  17.544  0.00  0.00    +0.000 A 
ATOM     16  C   UNL     1       5.924   5.948  17.559  0.00  0.00    +0.000 A 
ATOM     17  C   UNL     1       6.900   5.940  16.557  0.00  0.00    +0.000 A 
ATOM     18  C   UNL     1       6.819   5.026  15.513  0.00  0.00    +0.000 A 
ATOM     19  C   UNL     1       5.759   4.125  15.465  0.00  0.00    +0.000 A 
ATOM     20  C   UNL     1       4.785   4.134  16.467  0.00  0.00    +0.000 A 
ENDBRANCH  10  15
BRANCH  12  21
ATOM     21  C   UNL     1       2.011   2.743  20.992  0.00  0.00    +0.000 C 
ATOM     22  F   UNL     1       2.883   2.304  21.946  0.00  0.00    +0.000 F 
ATOM     23  F   UNL     1       0.825   2.928  21.637  0.00  0.00    +0.000 F 
ATOM     24  F   UNL     1       1.826   1.686  20.152  0.00  0.00    +0.000 F 
ENDBRANCH  12  21
TORSDOF 2
ENDMDL
MODEL 4
REMARK VINA RESULT:      -8.2      0.903      1.250
REMARK  Name = 
REMARK  2 active torsions:
REMARK  status: ('A' for Active; 'I' for Inactive)
REMARK    1  A    between atoms: C_10  and  C_11
REMARK    2  A    between atoms: C_18  and  C_19
REMARK                            x       y       z     vdW  Elec       q    Type
REMARK                         _______ _______ _______ _____ _____    ______ ____
ROOT
ATOM      1  O   UNL     1      -0.268  11.667  20.450  0.00  0.00    +0.000 OA
ATOM      2  N   UNL     1       0.555  10.940  19.872  0.00  0.00    +0.000 N 
ATOM      3  O   UNL     1       1.228  11.265  18.884  0.00  0.00    +0.000 OA
ATOM      4  C   UNL     1       0.705   9.598  20.410  0.00  0.00    +0.000 A 
ATOM      5  C   UNL     1       0.004   9.011  21.483  0.00  0.00    +0.000 A 
ATOM      6  C   UNL     1       0.482   7.724  21.538  0.00  0.00    +0.000 A 
ATOM      7  N   UNL     1       1.435   7.596  20.540  0.00  0.00    +0.000 N 
ATOM      8  C   UNL     1       2.157   6.396  20.214  0.00  0.00    +0.000 A 
ATOM      9  N   UNL     1       3.125   6.463  19.282  0.00  0.00    +0.000 NA
ATOM     10  C   UNL     1       3.790   5.330  18.974  0.00  0.00    +0.000 A 
ATOM     11  C   UNL     1       3.455   4.120  19.555  0.00  0.00    +0.000 A 
ATOM     12  C   UNL     1       2.436   4.118  20.494  0.00  0.00    +0.000 A 
ATOM     13  N   UNL     1       1.797   5.262  20.851  0.00  0.00    +0.000 NA
ATOM     14  N   UNL     1       1.597   8.764  19.855  0.00  0.00    +0.000 NA
ENDROOT
BRANCH  10  15
ATOM     15  C   UNL     1       4.874   5.459  17.979  0.00  0.00    +0.000 A 
ATOM     16  C   UNL     1       6.226   5.549  18.364  0.00  0.00    +0.000 A 
ATOM     17  C   UNL     1       7.248   5.658  17.415  0.00  0.00    +0.000 A 
ATOM     18  C   UNL     1       6.941   5.686  16.060  0.00  0.00    +0.000 A 
ATOM     19  C   UNL     1       5.612   5.612  15.652  0.00  0.00    +0.000 A 
ATOM     20  C   UNL     1       4.592   5.504  16.601  0.00  0.00    +0.000 A 
ENDBRANCH  10  15
BRANCH  12  21
ATOM     21  C   UNL     1       1.994   2.804  21.120  0.00  0.00    +0.000 C 
ATOM     22  F   UNL     1       1.647   1.859  20.200  0.00  0.00    +0.000 F 
ATOM     23  F   UNL     1       2.963   2.230  21.888  0.00  0.00    +0.000 F 
ATOM     24  F   UNL     1       0.904   2.947  21.927  0.00  0.00    +0.000 F 
ENDBRANCH  12  21
TORSDOF 2
ENDMDL
MODEL 5
REMARK VINA RESULT:      -8.0      3.052      4.906
REMARK  Name = 
REMARK  2 active torsions:
REMARK  status: ('A' for Active; 'I' for Inactive)
REMARK    1  A    between atoms: C_10  and  C_11
REMARK    2  A    between atoms: C_18  and  C_19
REMARK                            x       y       z     vdW  Elec       q    Type
REMARK                         _______ _______ _______ _____ _____    ______ ____
ROOT
ATOM      1  O   UNL     1      -0.454  12.541  20.535  0.00  0.00    +0.000 OA
ATOM      2  N   UNL     1      -0.203  11.334  20.676  0.00  0.00    +0.000 N 
ATOM      3  O   UNL     1      -0.611  10.623  21.606  0.00  0.00    +0.000 OA
ATOM      4  C   UNL     1       0.655  10.741  19.665  0.00  0.00    +0.000 A 
ATOM      5  C   UNL     1       1.267  11.376  18.566  0.00  0.00    +0.000 A 
ATOM      6  C   UNL     1       2.010  10.385  17.970  0.00  0.00    +0.000 A 
ATOM      7  N   UNL     1       1.808   9.225  18.700  0.00  0.00    +0.000 N 
ATOM      8  C   UNL     1       2.433   7.954  18.451  0.00  0.00    +0.000 A 
ATOM      9  N   UNL     1       2.052   6.896  19.190  0.00  0.00    +0.000 NA
ATOM     10  C   UNL     1       2.652   5.709  18.957  0.00  0.00    +0.000 A 
ATOM     11  C   UNL     1       3.667   5.589  18.026  0.00  0.00    +0.000 A 
ATOM     12  C   UNL     1       4.023   6.721  17.312  0.00  0.00    +0.000 A 
ATOM     13  N   UNL     1       3.389   7.907  17.500  0.00  0.00    +0.000 NA
ATOM     14  N   UNL     1       0.947   9.433  19.737  0.00  0.00    +0.000 NA
ENDROOT
BRANCH  10  15
ATOM     15  C   UNL     1       2.172   4.566  19.761  0.00  0.00    +0.000 A 
ATOM     16  C   UNL     1       1.315   3.588  19.219  0.00  0.00    +0.000 A 
ATOM     17  C   UNL     1       0.875   2.502  19.982  0.00  0.00    +0.000 A 
ATOM     18  C   UNL     1       1.276   2.372  21.307  0.00  0.00    +0.000 A 
ATOM     19  C   UNL     1       2.112   3.332  21.872  0.00  0.00    +0.000 A 
ATOM     20  C   UNL     1       2.550   4.417  21.108  0.00  0.00    +0.000 A 
ENDBRANCH  10  15
BRANCH  12  21
ATOM     21  C   UNL     1       5.171   6.652  16.316  0.00  0.00    +0.000 C 
ATOM     22  F   UNL     1       5.603   5.380  16.080  0.00  0.00    +0.000 F 
ATOM     23  F   UNL     1       4.844   7.161  15.095  0.00  0.00    +0.000 F 
ATOM     24  F   UNL     1       6.271   7.340  16.733  0.00  0.00    +0.000 F 
ENDBRANCH  12  21
TORSDOF 2
ENDMDL
MODEL 6
REMARK VINA RESULT:      -8.0      3.042      4.944
REMARK  Name = 
REMARK  2 active torsions:
REMARK  status: ('A' for Active; 'I' for Inactive)
REMARK    1  A    between atoms: C_10  and  C_11
REMARK    2  A    between atoms: C_18  and  C_19
REMARK                            x       y       z     vdW  Elec       q    Type
REMARK                         _______ _______ _______ _____ _____    ______ ____
ROOT
ATOM      1  O   UNL     1      -0.440  12.477  20.612  0.00  0.00    +0.000 OA
ATOM      2  N   UNL     1      -0.179  11.272  20.746  0.00  0.00    +0.000 N 
ATOM      3  O   UNL     1      -0.565  10.557  21.681  0.00  0.00    +0.000 OA
ATOM      4  C   UNL     1       0.665  10.686  19.719  0.00  0.00    +0.000 A 
ATOM      5  C   UNL     1       1.253  11.328  18.610  0.00  0.00    +0.000 A 
ATOM      6  C   UNL     1       1.991  10.343  17.998  0.00  0.00    +0.000 A 
ATOM      7  N   UNL     1       1.811   9.180  18.729  0.00  0.00    +0.000 N 
ATOM      8  C   UNL     1       2.439   7.914  18.466  0.00  0.00    +0.000 A 
ATOM      9  N   UNL     1       2.079   6.852  19.210  0.00  0.00    +0.000 NA
ATOM     10  C   UNL     1       2.682   5.670  18.964  0.00  0.00    +0.000 A 
ATOM     11  C   UNL     1       3.681   5.558  18.014  0.00  0.00    +0.000 A 
ATOM     12  C   UNL     1       4.016   6.694  17.296  0.00  0.00    +0.000 A 
ATOM     13  N   UNL     1       3.378   7.876  17.498  0.00  0.00    +0.000 NA
ATOM     14  N   UNL     1       0.967   9.380  19.782  0.00  0.00    +0.000 NA
ENDROOT
BRANCH  10  15
ATOM     15  C   UNL     1       2.224   4.522  19.773  0.00  0.00    +0.000 A 
ATOM     16  C   UNL     1       2.550   4.401  21.138  0.00  0.00    +0.000 A 
ATOM     17  C   UNL     1       2.103   3.318  21.901  0.00  0.00    +0.000 A 
ATOM     18  C   UNL     1       1.323   2.328  21.316  0.00  0.00    +0.000 A 
ATOM     19  C   UNL     1       0.997   2.415  19.965  0.00  0.00    +0.000 A 
ATOM     20  C   UNL     1       1.446   3.497  19.204  0.00  0.00    +0.000 A 
ENDBRANCH  10  15
BRANCH  12  21
ATOM     21  C   UNL     1       5.146   6.635  16.279  0.00  0.00    +0.000 C 
ATOM     22  F   UNL     1       4.809   7.164  15.068  0.00  0.00    +0.000 F 
ATOM     23  F   UNL     1       6.257   7.315  16.680  0.00  0.00    +0.000 F 
ATOM     24  F   UNL     1       5.553   5.360  16.020  0.00  0.00    +0.000 F 
ENDBRANCH  12  21
TORSDOF 2
ENDMDL
MODEL 7
REMARK VINA RESULT:      -8.0      4.743      6.080
REMARK  Name = 
REMARK  2 active torsions:
REMARK  status: ('A' for Active; 'I' for Inactive)
REMARK    1  A    between atoms: C_10  and  C_11
REMARK    2  A    between atoms: C_18  and  C_19
REMARK                            x       y       z     vdW  Elec       q    Type
REMARK                         _______ _______ _______ _____ _____    ______ ____
ROOT
ATOM      1  O   UNL     1       0.340   2.974  20.075  0.00  0.00    +0.000 OA
ATOM      2  N   UNL     1       1.103   2.969  19.096  0.00  0.00    +0.000 N 
ATOM      3  O   UNL     1       1.097   2.124  18.189  0.00  0.00    +0.000 OA
ATOM      4  C   UNL     1       2.081   4.041  19.048  0.00  0.00    +0.000 A 
ATOM      5  C   UNL     1       2.294   5.064  19.994  0.00  0.00    +0.000 A 
ATOM      6  C   UNL     1       3.365   5.769  19.500  0.00  0.00    +0.000 A 
ATOM      7  N   UNL     1       3.732   5.173  18.304  0.00  0.00    +0.000 N 
ATOM      8  C   UNL     1       4.838   5.564  17.472  0.00  0.00    +0.000 A 
ATOM      9  N   UNL     1       5.000   4.948  16.287  0.00  0.00    +0.000 NA
ATOM     10  C   UNL     1       6.047   5.313  15.518  0.00  0.00    +0.000 A 
ATOM     11  C   UNL     1       6.963   6.254  15.954  0.00  0.00    +0.000 A 
ATOM     12  C   UNL     1       6.747   6.837  17.191  0.00  0.00    +0.000 A 
ATOM     13  N   UNL     1       5.667   6.517  17.949  0.00  0.00    +0.000 NA
ATOM     14  N   UNL     1       2.921   4.118  18.004  0.00  0.00    +0.000 NA
ENDROOT
BRANCH  10  15
ATOM     15  C   UNL     1       6.161   4.642  14.207  0.00  0.00    +0.000 A 
ATOM     16  C   UNL     1       5.152   3.786  13.724  0.00  0.00    +0.000 A 
ATOM     17  C   UNL     1       5.260   3.164  12.476  0.00  0.00    +0.000 A 
ATOM     18  C   UNL     1       6.382   3.379  11.685  0.00  0.00    +0.000 A 
ATOM     19  C   UNL     1       7.401   4.210  12.144  0.00  0.00    +0.000 A 
ATOM     20  C   UNL     1       7.291   4.830  13.392  0.00  0.00    +0.000 A 
ENDBRANCH  10  15
BRANCH  12  21
ATOM     21  C   UNL     1       7.756   7.837  17.737  0.00  0.00    +0.000 C 
ATOM     22  F   UNL     1       8.723   8.173  16.835  0.00  0.00    +0.000 F 
ATOM     23  F   UNL     1       7.184   9.014  18.116  0.00  0.00    +0.000 F 
ATOM     24  F   UNL     1       8.422   7.368  18.830  0.00  0.00    +0.000 F 
ENDBRANCH  12  21
TORSDOF 2
ENDMDL
MODEL 8
REMARK VINA RESULT:      -7.9      4.776      6.131
REMARK  Name = 
REMARK  2 active torsions:
REMARK  status: ('A' for Active; 'I' for Inactive)
REMARK    1  A    between atoms: C_10  and  C_11
REMARK    2  A    between atoms: C_18  and  C_19
REMARK                            x       y       z     vdW  Elec       q    Type
REMARK                         _______ _______ _______ _____ _____    ______ ____
ROOT
ATOM      1  O   UNL     1       0.456   2.895  20.134  0.00  0.00    +0.000 OA
ATOM      2  N   UNL     1       1.207   2.905  19.146  0.00  0.00    +0.000 N 
ATOM      3  O   UNL     1       1.200   2.066  18.235  0.00  0.00    +0.000 OA
ATOM      4  C   UNL     1       2.172   3.989  19.091  0.00  0.00    +0.000 A 
ATOM      5  C   UNL     1       2.384   5.009  20.041  0.00  0.00    +0.000 A 
ATOM      6  C   UNL     1       3.441   5.729  19.537  0.00  0.00    +0.000 A 
ATOM      7  N   UNL     1       3.800   5.145  18.334  0.00  0.00    +0.000 N 
ATOM      8  C   UNL     1       4.890   5.554  17.491  0.00  0.00    +0.000 A 
ATOM      9  N   UNL     1       5.045   4.946  16.301  0.00  0.00    +0.000 NA
ATOM     10  C   UNL     1       6.078   5.328  15.521  0.00  0.00    +0.000 A 
ATOM     11  C   UNL     1       6.988   6.277  15.950  0.00  0.00    +0.000 A 
ATOM     12  C   UNL     1       6.781   6.851  17.194  0.00  0.00    +0.000 A 
ATOM     13  N   UNL     1       5.714   6.513  17.963  0.00  0.00    +0.000 NA
ATOM     14  N   UNL     1       2.998   4.082  18.038  0.00  0.00    +0.000 NA
ENDROOT
BRANCH  10  15
ATOM     15  C   UNL     1       6.183   4.666  14.204  0.00  0.00    +0.000 A 
ATOM     16  C   UNL     1       7.308   4.841  13.375  0.00  0.00    +0.000 A 
ATOM     17  C   UNL     1       7.406   4.201  12.135  0.00  0.00    +0.000 A 
ATOM     18  C   UNL     1       6.378   3.375  11.694  0.00  0.00    +0.000 A 
ATOM     19  C   UNL     1       5.249   3.195  12.488  0.00  0.00    +0.000 A 
ATOM     20  C   UNL     1       5.153   3.836  13.726  0.00  0.00    +0.000 A 
ENDBRANCH  10  15
BRANCH  12  21
ATOM     21  C   UNL     1       7.784   7.860  17.733  0.00  0.00    +0.000 C 
ATOM     22  F   UNL     1       7.214   9.045  18.096  0.00  0.00    +0.000 F 
ATOM     23  F   UNL     1       8.441   7.414  18.840  0.00  0.00    +0.000 F 
ATOM     24  F   UNL     1       8.747   8.181  16.823  0.00  0.00    +0.000 F 
ENDBRANCH  12  21
TORSDOF 2
ENDMDL
MODEL 9
REMARK VINA RESULT:      -7.9      3.029      4.865
REMARK  Name = 
REMARK  2 active torsions:
REMARK  status: ('A' for Active; 'I' for Inactive)
REMARK    1  A    between atoms: C_10  and  C_11
REMARK    2  A    between atoms: C_18  and  C_19
REMARK                            x       y       z     vdW  Elec       q    Type
REMARK                         _______ _______ _______ _____ _____    ______ ____
ROOT
ATOM      1  O   UNL     1      -0.501  12.111  20.800  0.00  0.00    +0.000 OA
ATOM      2  N   UNL     1      -0.139  10.933  20.944  0.00  0.00    +0.000 N 
ATOM      3  O   UNL     1      -0.389  10.224  21.929  0.00  0.00    +0.000 OA
ATOM      4  C   UNL     1       0.657  10.376  19.864  0.00  0.00    +0.000 A 
ATOM      5  C   UNL     1       1.098  11.020  18.690  0.00  0.00    +0.000 A 
ATOM      6  C   UNL     1       1.854  10.072  18.044  0.00  0.00    +0.000 A 
ATOM      7  N   UNL     1       1.825   8.925  18.820  0.00  0.00    +0.000 N 
ATOM      8  C   UNL     1       2.523   7.700  18.539  0.00  0.00    +0.000 A 
ATOM      9  N   UNL     1       2.309   6.640  19.340  0.00  0.00    +0.000 NA
ATOM     10  C   UNL     1       2.977   5.497  19.075  0.00  0.00    +0.000 A 
ATOM     11  C   UNL     1       3.897   5.427  18.045  0.00  0.00    +0.000 A 
ATOM     12  C   UNL     1       4.083   6.559  17.269  0.00  0.00    +0.000 A 
ATOM     13  N   UNL     1       3.376   7.697  17.493  0.00  0.00    +0.000 NA
ATOM     14  N   UNL     1       1.061   9.098  19.937  0.00  0.00    +0.000 NA
ENDROOT
BRANCH  10  15
ATOM     15  C   UNL     1       2.678   4.348  19.953  0.00  0.00    +0.000 A 
ATOM     16  C   UNL     1       3.623   3.331  20.189  0.00  0.00    +0.000 A 
ATOM     17  C   UNL     1       3.338   2.252  21.031  0.00  0.00    +0.000 A 
ATOM     18  C   UNL     1       2.097   2.161  21.652  0.00  0.00    +0.000 A 
ATOM     19  C   UNL     1       1.139   3.145  21.426  0.00  0.00    +0.000 A 
ATOM     20  C   UNL     1       1.426   4.223  20.583  0.00  0.00    +0.000 A 
ENDBRANCH  10  15
BRANCH  12  21
ATOM     21  C   UNL     1       5.124   6.548  16.160  0.00  0.00    +0.000 C 
ATOM     22  F   UNL     1       6.318   7.091  16.536  0.00  0.00    +0.000 F 
ATOM     23  F   UNL     1       5.415   5.292  15.719  0.00  0.00    +0.000 F 
ATOM     24  F   UNL     1       4.730   7.255  15.063  0.00  0.00    +0.000 F 
ENDBRANCH  12  21
TORSDOF 2
ENDMDL
