MODEL 1
REMARK VINA RESULT:      -7.2      0.000      0.000
REMARK  Name = 
REMARK  3 active torsions:
REMARK  status: ('A' for Active; 'I' for Inactive)
REMARK    1  A    between atoms: O_1  and  C_2
REMARK    2  A    between atoms: C_2  and  C_3
REMARK    3  A    between atoms: C_17  and  C_18
REMARK                            x       y       z     vdW  Elec       q    Type
REMARK                         _______ _______ _______ _____ _____    ______ ____
ROOT
ATOM      1  C   UNL     1       3.860   2.757  18.253  0.00  0.00    +0.000 C 
ATOM      2  C   UNL     1       3.773   3.195  19.725  0.00  0.00    +0.000 C 
ATOM      3  N   UNL     1       2.810   4.282  19.628  0.00  0.00    +0.000 NA
ATOM      4  C   UNL     1       2.637   5.107  20.826  0.00  0.00    +0.000 C 
ATOM      5  C   UNL     1       1.699   6.327  20.569  0.00  0.00    +0.000 C 
ATOM      6  N   UNL     1       2.001   6.999  19.298  0.00  0.00    +0.000 N 
ATOM      7  C   UNL     1       1.762   8.333  19.075  0.00  0.00    +0.000 A 
ATOM      8  C   UNL     1       0.839   9.059  19.823  0.00  0.00    +0.000 A 
ATOM      9  C   UNL     1       0.685  10.429  19.609  0.00  0.00    +0.000 A 
ATOM     10  C   UNL     1       1.473  11.057  18.659  0.00  0.00    +0.000 A 
ATOM     11  C   UNL     1       2.359  10.278  17.946  0.00  0.00    +0.000 A 
ATOM     12  N   UNL     1       2.500   8.948  18.120  0.00  0.00    +0.000 NA
ATOM     13  C   UNL     1       2.243   6.139  18.129  0.00  0.00    +0.000 C 
ATOM     14  C   UNL     1       3.320   5.118  18.515  0.00  0.00    +0.000 C 
ATOM     15  C   UNL     1       3.681   4.076  17.442  0.00  0.00    +0.000 C 
ENDROOT
BRANCH  15  16
ATOM     16  C   UNL     1       4.910   4.447  16.627  0.00  0.00    +0.000 A 
ATOM     17  C   UNL     1       5.934   5.253  17.155  0.00  0.00    +0.000 A 
ATOM     18  C   UNL     1       7.055   5.577  16.383  0.00  0.00    +0.000 A 
ATOM     19  C   UNL     1       7.170   5.107  15.081  0.00  0.00    +0.000 A 
ATOM     20  C   UNL     1       6.160   4.307  14.544  0.00  0.00    +0.000 A 
ATOM     21  C   UNL     1       5.039   3.981  15.311  0.00  0.00    +0.000 A 
ENDBRANCH  15  16
BRANCH   1  22
ATOM     22  C   UNL     1       2.737   1.777  17.894  0.00  0.00    +0.000 C 
BRANCH  22  23
ATOM     23  O   UNL     1       1.857   1.608  18.999  0.00  0.00    +0.000 OA
ATOM     24  H   UNL     1       1.959   0.686  19.297  0.00  0.00    +0.000 HD
ENDBRANCH  22  23
ENDBRANCH   1  22
TORSDOF 3
ENDMDL
MODEL 2
REMARK VINA RESULT:      -7.2      0.072      1.007
REMARK  Name = 
REMARK  3 active torsions:
REMARK  status: ('A' for Active; 'I' for Inactive)
REMARK    1  A    between atoms: O_1  and  C_2
REMARK    2  A    between atoms: C_2  and  C_3
REMARK    3  A    between atoms: C_17  and  C_18
REMARK                            x       y       z     vdW  Elec       q    Type
REMARK                         _______ _______ _______ _____ _____    ______ ____
ROOT
ATOM      1  C   UNL     1       3.879   2.742  18.282  0.00  0.00    +0.000 C 
ATOM      2  C   UNL     1       3.775   3.179  19.753  0.00  0.00    +0.000 C 
ATOM      3  N   UNL     1       2.811   4.264  19.646  0.00  0.00    +0.000 NA
ATOM      4  C   UNL     1       2.623   5.087  20.843  0.00  0.00    +0.000 C 
ATOM      5  C   UNL     1       1.686   6.306  20.577  0.00  0.00    +0.000 C 
ATOM      6  N   UNL     1       2.000   6.979  19.309  0.00  0.00    +0.000 N 
ATOM      7  C   UNL     1       1.761   8.313  19.084  0.00  0.00    +0.000 A 
ATOM      8  C   UNL     1       0.829   9.037  19.823  0.00  0.00    +0.000 A 
ATOM      9  C   UNL     1       0.674  10.407  19.609  0.00  0.00    +0.000 A 
ATOM     10  C   UNL     1       1.471  11.037  18.667  0.00  0.00    +0.000 A 
ATOM     11  C   UNL     1       2.366  10.261  17.963  0.00  0.00    +0.000 A 
ATOM     12  N   UNL     1       2.508   8.930  18.138  0.00  0.00    +0.000 NA
ATOM     13  C   UNL     1       2.257   6.121  18.143  0.00  0.00    +0.000 C 
ATOM     14  C   UNL     1       3.331   5.102  18.539  0.00  0.00    +0.000 C 
ATOM     15  C   UNL     1       3.706   4.061  17.469  0.00  0.00    +0.000 C 
ENDROOT
BRANCH  15  16
ATOM     16  C   UNL     1       4.942   4.435  16.668  0.00  0.00    +0.000 A 
ATOM     17  C   UNL     1       5.149   3.962  15.359  0.00  0.00    +0.000 A 
ATOM     18  C   UNL     1       6.294   4.324  14.643  0.00  0.00    +0.000 A 
ATOM     19  C   UNL     1       7.246   5.157  15.217  0.00  0.00    +0.000 A 
ATOM     20  C   UNL     1       7.055   5.633  16.515  0.00  0.00    +0.000 A 
ATOM     21  C   UNL     1       5.912   5.274  17.234  0.00  0.00    +0.000 A 
ENDBRANCH  15  16
BRANCH   1  22
ATOM     22  C   UNL     1       2.761   1.760  17.910  0.00  0.00    +0.000 C 
BRANCH  22  23
ATOM     23  O   UNL     1       1.817   1.663  18.969  0.00  0.00    +0.000 OA
ATOM     24  H   UNL     1       1.034   2.170  18.691  0.00  0.00    +0.000 HD
ENDBRANCH  22  23
ENDBRANCH   1  22
TORSDOF 3
ENDMDL
MODEL 3
REMARK VINA RESULT:      -7.0      1.859      5.976
REMARK  Name = 
REMARK  3 active torsions:
REMARK  status: ('A' for Active; 'I' for Inactive)
REMARK    1  A    between atoms: O_1  and  C_2
REMARK    2  A    between atoms: C_2  and  C_3
REMARK    3  A    between atoms: C_17  and  C_18
REMARK                            x       y       z     vdW  Elec       q    Type
REMARK                         _______ _______ _______ _____ _____    ______ ____
ROOT
ATOM      1  C   UNL     1       1.409   4.322  20.833  0.00  0.00    +0.000 C 
ATOM      2  C   UNL     1       1.035   3.299  19.748  0.00  0.00    +0.000 C 
ATOM      3  N   UNL     1       2.310   3.153  19.062  0.00  0.00    +0.000 NA
ATOM      4  C   UNL     1       2.289   2.406  17.802  0.00  0.00    +0.000 C 
ATOM      5  C   UNL     1       3.671   2.437  17.077  0.00  0.00    +0.000 C 
ATOM      6  N   UNL     1       4.269   3.779  17.083  0.00  0.00    +0.000 N 
ATOM      7  C   UNL     1       5.131   4.224  16.111  0.00  0.00    +0.000 A 
ATOM      8  C   UNL     1       5.855   3.352  15.302  0.00  0.00    +0.000 A 
ATOM      9  C   UNL     1       6.661   3.851  14.279  0.00  0.00    +0.000 A 
ATOM     10  C   UNL     1       6.717   5.218  14.068  0.00  0.00    +0.000 A 
ATOM     11  C   UNL     1       5.984   6.027  14.911  0.00  0.00    +0.000 A 
ATOM     12  N   UNL     1       5.222   5.562  15.923  0.00  0.00    +0.000 NA
ATOM     13  C   UNL     1       4.206   4.533  18.344  0.00  0.00    +0.000 C 
ATOM     14  C   UNL     1       2.746   4.547  18.809  0.00  0.00    +0.000 C 
ATOM     15  C   UNL     1       2.470   5.241  20.155  0.00  0.00    +0.000 C 
ENDROOT
BRANCH  15  16
ATOM     16  C   UNL     1       2.008   6.682  20.011  0.00  0.00    +0.000 A 
ATOM     17  C   UNL     1       2.233   7.418  18.833  0.00  0.00    +0.000 A 
ATOM     18  C   UNL     1       1.795   8.742  18.726  0.00  0.00    +0.000 A 
ATOM     19  C   UNL     1       1.130   9.348  19.784  0.00  0.00    +0.000 A 
ATOM     20  C   UNL     1       0.900   8.630  20.959  0.00  0.00    +0.000 A 
ATOM     21  C   UNL     1       1.336   7.307  21.071  0.00  0.00    +0.000 A 
ENDBRANCH  15  16
BRANCH   1  22
ATOM     22  C   UNL     1       2.030   3.637  22.057  0.00  0.00    +0.000 C 
BRANCH  22  23
ATOM     23  O   UNL     1       1.821   2.231  21.996  0.00  0.00    +0.000 OA
ATOM     24  H   UNL     1       2.633   1.815  22.334  0.00  0.00    +0.000 HD
ENDBRANCH  22  23
ENDBRANCH   1  22
TORSDOF 3
ENDMDL
MODEL 4
REMARK VINA RESULT:      -7.0      1.853      5.916
REMARK  Name = 
REMARK  3 active torsions:
REMARK  status: ('A' for Active; 'I' for Inactive)
REMARK    1  A    between atoms: O_1  and  C_2
REMARK    2  A    between atoms: C_2  and  C_3
REMARK    3  A    between atoms: C_17  and  C_18
REMARK                            x       y       z     vdW  Elec       q    Type
REMARK                         _______ _______ _______ _____ _____    ______ ____
ROOT
ATOM      1  C   UNL     1       1.409   4.342  20.840  0.00  0.00    +0.000 C 
ATOM      2  C   UNL     1       1.036   3.316  19.757  0.00  0.00    +0.000 C 
ATOM      3  N   UNL     1       2.311   3.169  19.071  0.00  0.00    +0.000 NA
ATOM      4  C   UNL     1       2.291   2.419  17.813  0.00  0.00    +0.000 C 
ATOM      5  C   UNL     1       3.673   2.450  17.088  0.00  0.00    +0.000 C 
ATOM      6  N   UNL     1       4.269   3.793  17.091  0.00  0.00    +0.000 N 
ATOM      7  C   UNL     1       5.132   4.236  16.118  0.00  0.00    +0.000 A 
ATOM      8  C   UNL     1       5.856   3.363  15.311  0.00  0.00    +0.000 A 
ATOM      9  C   UNL     1       6.662   3.859  14.287  0.00  0.00    +0.000 A 
ATOM     10  C   UNL     1       6.717   5.227  14.073  0.00  0.00    +0.000 A 
ATOM     11  C   UNL     1       5.984   6.036  14.914  0.00  0.00    +0.000 A 
ATOM     12  N   UNL     1       5.222   5.574  15.927  0.00  0.00    +0.000 NA
ATOM     13  C   UNL     1       4.207   4.549  18.351  0.00  0.00    +0.000 C 
ATOM     14  C   UNL     1       2.746   4.563  18.815  0.00  0.00    +0.000 C 
ATOM     15  C   UNL     1       2.470   5.260  20.160  0.00  0.00    +0.000 C 
ENDROOT
BRANCH  15  16
ATOM     16  C   UNL     1       2.006   6.700  20.012  0.00  0.00    +0.000 A 
ATOM     17  C   UNL     1       1.331   7.372  21.047  0.00  0.00    +0.000 A 
ATOM     18  C   UNL     1       0.918   8.698  20.885  0.00  0.00    +0.000 A 
ATOM     19  C   UNL     1       1.168   9.370  19.695  0.00  0.00    +0.000 A 
ATOM     20  C   UNL     1       1.836   8.715  18.659  0.00  0.00    +0.000 A 
ATOM     21  C   UNL     1       2.251   7.391  18.816  0.00  0.00    +0.000 A 
ENDBRANCH  15  16
BRANCH   1  22
ATOM     22  C   UNL     1       2.030   3.660  22.065  0.00  0.00    +0.000 C 
BRANCH  22  23
ATOM     23  O   UNL     1       1.814   2.255  22.012  0.00  0.00    +0.000 OA
ATOM     24  H   UNL     1       0.884   2.107  22.259  0.00  0.00    +0.000 HD
ENDBRANCH  22  23
ENDBRANCH   1  22
TORSDOF 3
ENDMDL
MODEL 5
REMARK VINA RESULT:      -6.7      1.999      2.746
REMARK  Name = 
REMARK  3 active torsions:
REMARK  status: ('A' for Active; 'I' for Inactive)
REMARK    1  A    between atoms: O_1  and  C_2
REMARK    2  A    between atoms: C_2  and  C_3
REMARK    3  A    between atoms: C_17  and  C_18
REMARK                            x       y       z     vdW  Elec       q    Type
REMARK                         _______ _______ _______ _____ _____    ______ ____
ROOT
ATOM      1  C   UNL     1       2.544   4.877  19.651  0.00  0.00    +0.000 C 
ATOM      2  C   UNL     1       2.127   5.582  20.953  0.00  0.00    +0.000 C 
ATOM      3  N   UNL     1       1.436   6.747  20.421  0.00  0.00    +0.000 NA
ATOM      4  C   UNL     1       1.082   7.790  21.386  0.00  0.00    +0.000 C 
ATOM      5  C   UNL     1       0.484   9.054  20.693  0.00  0.00    +0.000 C 
ATOM      6  N   UNL     1       1.244   9.440  19.495  0.00  0.00    +0.000 N 
ATOM      7  C   UNL     1       1.316  10.731  19.032  0.00  0.00    +0.000 A 
ATOM      8  C   UNL     1       0.363  11.693  19.358  0.00  0.00    +0.000 A 
ATOM      9  C   UNL     1       0.518  13.009  18.924  0.00  0.00    +0.000 A 
ATOM     10  C   UNL     1       1.639  13.349  18.184  0.00  0.00    +0.000 A 
ATOM     11  C   UNL     1       2.538  12.347  17.888  0.00  0.00    +0.000 A 
ATOM     12  N   UNL     1       2.388  11.063  18.275  0.00  0.00    +0.000 NA
ATOM     13  C   UNL     1       1.649   8.359  18.584  0.00  0.00    +0.000 C 
ATOM     14  C   UNL     1       2.377   7.296  19.415  0.00  0.00    +0.000 C 
ATOM     15  C   UNL     1       2.835   6.038  18.654  0.00  0.00    +0.000 C 
ENDROOT
BRANCH  15  16
ATOM     16  C   UNL     1       4.288   6.095  18.210  0.00  0.00    +0.000 A 
ATOM     17  C   UNL     1       4.677   6.749  17.027  0.00  0.00    +0.000 A 
ATOM     18  C   UNL     1       6.022   6.788  16.643  0.00  0.00    +0.000 A 
ATOM     19  C   UNL     1       6.993   6.179  17.428  0.00  0.00    +0.000 A 
ATOM     20  C   UNL     1       6.621   5.526  18.605  0.00  0.00    +0.000 A 
ATOM     21  C   UNL     1       5.279   5.485  18.992  0.00  0.00    +0.000 A 
ENDBRANCH  15  16
BRANCH   1  22
ATOM     22  C   UNL     1       1.413   4.000  19.102  0.00  0.00    +0.000 C 
BRANCH  22  23
ATOM     23  O   UNL     1       0.467   3.716  20.126  0.00  0.00    +0.000 OA
ATOM     24  H   UNL     1       0.387   4.524  20.663  0.00  0.00    +0.000 HD
ENDBRANCH  22  23
ENDBRANCH   1  22
TORSDOF 3
ENDMDL
MODEL 6
REMARK VINA RESULT:      -6.7      1.959      2.618
REMARK  Name = 
REMARK  3 active torsions:
REMARK  status: ('A' for Active; 'I' for Inactive)
REMARK    1  A    between atoms: O_1  and  C_2
REMARK    2  A    between atoms: C_2  and  C_3
REMARK    3  A    between atoms: C_17  and  C_18
REMARK                            x       y       z     vdW  Elec       q    Type
REMARK                         _______ _______ _______ _____ _____    ______ ____
ROOT
ATOM      1  C   UNL     1       2.584   4.845  19.637  0.00  0.00    +0.000 C 
ATOM      2  C   UNL     1       2.162   5.549  20.938  0.00  0.00    +0.000 C 
ATOM      3  N   UNL     1       1.472   6.714  20.404  0.00  0.00    +0.000 NA
ATOM      4  C   UNL     1       1.114   7.756  21.369  0.00  0.00    +0.000 C 
ATOM      5  C   UNL     1       0.516   9.019  20.674  0.00  0.00    +0.000 C 
ATOM      6  N   UNL     1       1.278   9.407  19.479  0.00  0.00    +0.000 N 
ATOM      7  C   UNL     1       1.350  10.698  19.016  0.00  0.00    +0.000 A 
ATOM      8  C   UNL     1       0.395  11.658  19.340  0.00  0.00    +0.000 A 
ATOM      9  C   UNL     1       0.550  12.975  18.907  0.00  0.00    +0.000 A 
ATOM     10  C   UNL     1       1.672  13.317  18.171  0.00  0.00    +0.000 A 
ATOM     11  C   UNL     1       2.574  12.316  17.876  0.00  0.00    +0.000 A 
ATOM     12  N   UNL     1       2.424  11.032  18.262  0.00  0.00    +0.000 NA
ATOM     13  C   UNL     1       1.688   8.326  18.569  0.00  0.00    +0.000 C 
ATOM     14  C   UNL     1       2.415   7.264  19.401  0.00  0.00    +0.000 C 
ATOM     15  C   UNL     1       2.877   6.007  18.641  0.00  0.00    +0.000 C 
ENDROOT
BRANCH  15  16
ATOM     16  C   UNL     1       4.331   6.066  18.201  0.00  0.00    +0.000 A 
ATOM     17  C   UNL     1       5.366   5.530  18.988  0.00  0.00    +0.000 A 
ATOM     18  C   UNL     1       6.695   5.596  18.559  0.00  0.00    +0.000 A 
ATOM     19  C   UNL     1       7.011   6.195  17.346  0.00  0.00    +0.000 A 
ATOM     20  C   UNL     1       5.994   6.733  16.555  0.00  0.00    +0.000 A 
ATOM     21  C   UNL     1       4.665   6.669  16.980  0.00  0.00    +0.000 A 
ENDBRANCH  15  16
BRANCH   1  22
ATOM     22  C   UNL     1       1.455   3.967  19.085  0.00  0.00    +0.000 C 
BRANCH  22  23
ATOM     23  O   UNL     1       0.468   3.744  20.085  0.00  0.00    +0.000 OA
ATOM     24  H   UNL     1       0.043   2.895  19.871  0.00  0.00    +0.000 HD
ENDBRANCH  22  23
ENDBRANCH   1  22
TORSDOF 3
ENDMDL
MODEL 7
REMARK VINA RESULT:      -6.5      2.676      5.111
REMARK  Name = 
REMARK  3 active torsions:
REMARK  status: ('A' for Active; 'I' for Inactive)
REMARK    1  A    between atoms: O_1  and  C_2
REMARK    2  A    between atoms: C_2  and  C_3
REMARK    3  A    between atoms: C_17  and  C_18
REMARK                            x       y       z     vdW  Elec       q    Type
REMARK                         _______ _______ _______ _____ _____    ______ ____
ROOT
ATOM      1  C   UNL     1       3.653   5.973  18.000  0.00  0.00    +0.000 C 
ATOM      2  C   UNL     1       2.870   6.990  17.153  0.00  0.00    +0.000 C 
ATOM      3  N   UNL     1       2.658   8.049  18.129  0.00  0.00    +0.000 NA
ATOM      4  C   UNL     1       1.734   9.117  17.740  0.00  0.00    +0.000 C 
ATOM      5  C   UNL     1       1.463  10.115  18.908  0.00  0.00    +0.000 C 
ATOM      6  N   UNL     1       1.233   9.423  20.185  0.00  0.00    +0.000 N 
ATOM      7  C   UNL     1       0.462   9.944  21.196  0.00  0.00    +0.000 A 
ATOM      8  C   UNL     1       0.200  11.307  21.305  0.00  0.00    +0.000 A 
ATOM      9  C   UNL     1      -0.649  11.780  22.306  0.00  0.00    +0.000 A 
ATOM     10  C   UNL     1      -1.239  10.876  23.173  0.00  0.00    +0.000 A 
ATOM     11  C   UNL     1      -0.930   9.542  23.017  0.00  0.00    +0.000 A 
ATOM     12  N   UNL     1      -0.088   9.072  22.073  0.00  0.00    +0.000 NA
ATOM     13  C   UNL     1       2.132   8.306  20.511  0.00  0.00    +0.000 C 
ATOM     14  C   UNL     1       2.130   7.341  19.320  0.00  0.00    +0.000 C 
ATOM     15  C   UNL     1       3.063   6.122  19.435  0.00  0.00    +0.000 C 
ENDROOT
BRANCH  15  16
ATOM     16  C   UNL     1       2.361   4.866  19.926  0.00  0.00    +0.000 A 
ATOM     17  C   UNL     1       1.556   4.086  19.076  0.00  0.00    +0.000 A 
ATOM     18  C   UNL     1       0.924   2.934  19.553  0.00  0.00    +0.000 A 
ATOM     19  C   UNL     1       1.082   2.545  20.878  0.00  0.00    +0.000 A 
ATOM     20  C   UNL     1       1.877   3.310  21.732  0.00  0.00    +0.000 A 
ATOM     21  C   UNL     1       2.511   4.461  21.260  0.00  0.00    +0.000 A 
ENDBRANCH  15  16
BRANCH   1  22
ATOM     22  C   UNL     1       5.151   6.300  18.024  0.00  0.00    +0.000 C 
BRANCH  22  23
ATOM     23  O   UNL     1       5.498   7.108  16.906  0.00  0.00    +0.000 OA
ATOM     24  H   UNL     1       6.446   6.960  16.739  0.00  0.00    +0.000 HD
ENDBRANCH  22  23
ENDBRANCH   1  22
TORSDOF 3
ENDMDL
MODEL 8
REMARK VINA RESULT:      -6.5      2.669      5.008
REMARK  Name = 
REMARK  3 active torsions:
REMARK  status: ('A' for Active; 'I' for Inactive)
REMARK    1  A    between atoms: O_1  and  C_2
REMARK    2  A    between atoms: C_2  and  C_3
REMARK    3  A    between atoms: C_17  and  C_18
REMARK                            x       y       z     vdW  Elec       q    Type
REMARK                         _______ _______ _______ _____ _____    ______ ____
ROOT
ATOM      1  C   UNL     1       3.673   5.932  18.028  0.00  0.00    +0.000 C 
ATOM      2  C   UNL     1       2.893   6.947  17.175  0.00  0.00    +0.000 C 
ATOM      3  N   UNL     1       2.673   8.007  18.147  0.00  0.00    +0.000 NA
ATOM      4  C   UNL     1       1.749   9.072  17.750  0.00  0.00    +0.000 C 
ATOM      5  C   UNL     1       1.470  10.072  18.915  0.00  0.00    +0.000 C 
ATOM      6  N   UNL     1       1.232   9.382  20.191  0.00  0.00    +0.000 N 
ATOM      7  C   UNL     1       0.455   9.904  21.196  0.00  0.00    +0.000 A 
ATOM      8  C   UNL     1       0.189  11.267  21.301  0.00  0.00    +0.000 A 
ATOM      9  C   UNL     1      -0.667  11.740  22.296  0.00  0.00    +0.000 A 
ATOM     10  C   UNL     1      -1.261  10.837  23.161  0.00  0.00    +0.000 A 
ATOM     11  C   UNL     1      -0.948   9.503  23.009  0.00  0.00    +0.000 A 
ATOM     12  N   UNL     1      -0.099   9.032  22.072  0.00  0.00    +0.000 NA
ATOM     13  C   UNL     1       2.132   8.268  20.525  0.00  0.00    +0.000 C 
ATOM     14  C   UNL     1       2.139   7.300  19.336  0.00  0.00    +0.000 C 
ATOM     15  C   UNL     1       3.074   6.083  19.459  0.00  0.00    +0.000 C 
ENDROOT
BRANCH  15  16
ATOM     16  C   UNL     1       2.371   4.827  19.948  0.00  0.00    +0.000 A 
ATOM     17  C   UNL     1       2.463   4.399  21.285  0.00  0.00    +0.000 A 
ATOM     18  C   UNL     1       1.804   3.240  21.709  0.00  0.00    +0.000 A 
ATOM     19  C   UNL     1       1.049   2.495  20.812  0.00  0.00    +0.000 A 
ATOM     20  C   UNL     1       0.950   2.907  19.482  0.00  0.00    +0.000 A 
ATOM     21  C   UNL     1       1.606   4.064  19.055  0.00  0.00    +0.000 A 
ENDBRANCH  15  16
BRANCH   1  22
ATOM     22  C   UNL     1       5.170   6.262  18.061  0.00  0.00    +0.000 C 
BRANCH  22  23
ATOM     23  O   UNL     1       5.493   7.194  17.035  0.00  0.00    +0.000 OA
ATOM     24  H   UNL     1       6.462   7.291  17.043  0.00  0.00    +0.000 HD
ENDBRANCH  22  23
ENDBRANCH   1  22
TORSDOF 3
ENDMDL
MODEL 9
REMARK VINA RESULT:      -6.5      1.458      2.087
REMARK  Name = 
REMARK  3 active torsions:
REMARK  status: ('A' for Active; 'I' for Inactive)
REMARK    1  A    between atoms: O_1  and  C_2
REMARK    2  A    between atoms: C_2  and  C_3
REMARK    3  A    between atoms: C_17  and  C_18
REMARK                            x       y       z     vdW  Elec       q    Type
REMARK                         _______ _______ _______ _____ _____    ______ ____
ROOT
ATOM      1  C   UNL     1       2.524   4.447  19.128  0.00  0.00    +0.000 C 
ATOM      2  C   UNL     1       2.385   5.088  20.519  0.00  0.00    +0.000 C 
ATOM      3  N   UNL     1       1.659   6.305  20.185  0.00  0.00    +0.000 NA
ATOM      4  C   UNL     1       1.534   7.301  21.252  0.00  0.00    +0.000 C 
ATOM      5  C   UNL     1       0.874   8.622  20.748  0.00  0.00    +0.000 C 
ATOM      6  N   UNL     1       1.417   9.052  19.452  0.00  0.00    +0.000 N 
ATOM      7  C   UNL     1       1.458  10.365  19.050  0.00  0.00    +0.000 A 
ATOM      8  C   UNL     1       0.625  11.337  19.597  0.00  0.00    +0.000 A 
ATOM      9  C   UNL     1       0.755  12.671  19.210  0.00  0.00    +0.000 A 
ATOM     10  C   UNL     1       1.734  13.016  18.293  0.00  0.00    +0.000 A 
ATOM     11  C   UNL     1       2.519  12.004  17.783  0.00  0.00    +0.000 A 
ATOM     12  N   UNL     1       2.386  10.705  18.125  0.00  0.00    +0.000 NA
ATOM     13  C   UNL     1       1.600   8.013  18.427  0.00  0.00    +0.000 C 
ATOM     14  C   UNL     1       2.422   6.880  19.052  0.00  0.00    +0.000 C 
ATOM     15  C   UNL     1       2.677   5.655  18.155  0.00  0.00    +0.000 C 
ENDROOT
BRANCH  15  16
ATOM     16  C   UNL     1       4.025   5.689  17.452  0.00  0.00    +0.000 A 
ATOM     17  C   UNL     1       4.883   6.800  17.548  0.00  0.00    +0.000 A 
ATOM     18  C   UNL     1       6.118   6.805  16.893  0.00  0.00    +0.000 A 
ATOM     19  C   UNL     1       6.515   5.709  16.136  0.00  0.00    +0.000 A 
ATOM     20  C   UNL     1       5.673   4.600  16.032  0.00  0.00    +0.000 A 
ATOM     21  C   UNL     1       4.438   4.591  16.685  0.00  0.00    +0.000 A 
ENDBRANCH  15  16
BRANCH   1  22
ATOM     22  C   UNL     1       1.274   3.642  18.755  0.00  0.00    +0.000 C 
BRANCH  22  23
ATOM     23  O   UNL     1       0.439   3.470  19.894  0.00  0.00    +0.000 OA
ATOM     24  H   UNL     1      -0.470   3.666  19.604  0.00  0.00    +0.000 HD
ENDBRANCH  22  23
ENDBRANCH   1  22
TORSDOF 3
ENDMDL
