MODEL 1
REMARK VINA RESULT:      -8.9      0.000      0.000
REMARK  Name = 
REMARK  3 active torsions:
REMARK  status: ('A' for Active; 'I' for Inactive)
REMARK    1  A    between atoms: C_2  and  C_15
REMARK    2  A    between atoms: N_3  and  N_4
REMARK    3  A    between atoms: N_4  and  C_5
REMARK                            x       y       z     vdW  Elec       q    Type
REMARK                         _______ _______ _______ _____ _____    ______ ____
ROOT
ATOM      1  O   UNL     1       2.666   7.296  18.434  0.00  0.00    +0.000 OA
ATOM      2  C   UNL     1       2.245   6.646  19.389  0.00  0.00    +0.000 C 
ATOM      3  N   UNL     1       1.772   7.292  20.518  0.00  0.00    +0.000 N 
ATOM      4  H   UNL     1       1.661   6.850  21.419  0.00  0.00    +0.000 HD
ENDROOT
BRANCH   2   5
ATOM      5  C   UNL     1       2.224   5.105  19.390  0.00  0.00    +0.000 C 
ATOM      6  C   UNL     1       3.639   4.589  19.764  0.00  0.00    +0.000 C 
ATOM      7  C   UNL     1       3.660   3.053  19.845  0.00  0.00    +0.000 C 
ATOM      8  C   UNL     1       2.648   2.584  20.903  0.00  0.00    +0.000 C 
ATOM      9  C   UNL     1       1.236   3.060  20.527  0.00  0.00    +0.000 C 
ATOM     10  C   UNL     1       0.851   2.481  19.156  0.00  0.00    +0.000 C 
ATOM     11  C   UNL     1       1.856   2.949  18.090  0.00  0.00    +0.000 C 
ATOM     12  C   UNL     1       3.264   2.468  18.480  0.00  0.00    +0.000 C 
ATOM     13  C   UNL     1       1.845   4.492  18.018  0.00  0.00    +0.000 C 
ATOM     14  C   UNL     1       1.223   4.595  20.451  0.00  0.00    +0.000 C 
ENDBRANCH   2   5
BRANCH   3  15
ATOM     15  N   UNL     1       1.810   8.708  20.474  0.00  0.00    +0.000 N 
ATOM     16  H   UNL     1       1.970   9.022  19.511  0.00  0.00    +0.000 HD
BRANCH  15  17
ATOM     17  C   UNL     1       0.745   9.380  21.144  0.00  0.00    +0.000 A 
ATOM     18  C   UNL     1       0.554   9.159  22.519  0.00  0.00    +0.000 A 
ATOM     19  C   UNL     1      -0.343   9.916  23.267  0.00  0.00    +0.000 A 
ATOM     20  C   UNL     1      -1.056  10.935  22.653  0.00  0.00    +0.000 A 
ATOM     21  C   UNL     1      -0.905  11.192  21.289  0.00  0.00    +0.000 A 
ATOM     22  C   UNL     1      -1.624  12.211  20.653  0.00  0.00    +0.000 A 
ATOM     23  N   UNL     1      -1.552  12.513  19.344  0.00  0.00    +0.000 NA
ATOM     24  C   UNL     1      -0.711  11.758  18.606  0.00  0.00    +0.000 A 
ATOM     25  C   UNL     1       0.063  10.733  19.132  0.00  0.00    +0.000 A 
ATOM     26  C   UNL     1      -0.004  10.417  20.501  0.00  0.00    +0.000 A 
ENDBRANCH  15  17
ENDBRANCH   3  15
TORSDOF 3
ENDMDL
MODEL 2
REMARK VINA RESULT:      -8.8      0.177      1.562
REMARK  Name = 
REMARK  3 active torsions:
REMARK  status: ('A' for Active; 'I' for Inactive)
REMARK    1  A    between atoms: C_2  and  C_15
REMARK    2  A    between atoms: N_3  and  N_4
REMARK    3  A    between atoms: N_4  and  C_5
REMARK                            x       y       z     vdW  Elec       q    Type
REMARK                         _______ _______ _______ _____ _____    ______ ____
ROOT
ATOM      1  O   UNL     1       2.501   7.204  18.206  0.00  0.00    +0.000 OA
ATOM      2  C   UNL     1       2.226   6.590  19.235  0.00  0.00    +0.000 C 
ATOM      3  N   UNL     1       1.841   7.275  20.374  0.00  0.00    +0.000 N 
ATOM      4  H   UNL     1       1.856   6.882  21.303  0.00  0.00    +0.000 HD
ENDROOT
BRANCH   2   5
ATOM      5  C   UNL     1       2.297   5.053  19.318  0.00  0.00    +0.000 C 
ATOM      6  C   UNL     1       1.254   4.562  20.358  0.00  0.00    +0.000 C 
ATOM      7  C   UNL     1       1.235   3.027  20.434  0.00  0.00    +0.000 C 
ATOM      8  C   UNL     1       0.889   2.451  19.051  0.00  0.00    +0.000 C 
ATOM      9  C   UNL     1       1.935   2.901  18.018  0.00  0.00    +0.000 C 
ATOM     10  C   UNL     1       3.324   2.404  18.449  0.00  0.00    +0.000 C 
ATOM     11  C   UNL     1       3.680   2.979  19.830  0.00  0.00    +0.000 C 
ATOM     12  C   UNL     1       2.625   2.522  20.853  0.00  0.00    +0.000 C 
ATOM     13  C   UNL     1       3.686   4.522  19.757  0.00  0.00    +0.000 C 
ATOM     14  C   UNL     1       1.946   4.436  17.946  0.00  0.00    +0.000 C 
ENDBRANCH   2   5
BRANCH   3  15
ATOM     15  N   UNL     1       1.790   8.686  20.251  0.00  0.00    +0.000 N 
ATOM     16  H   UNL     1       1.813   8.951  19.260  0.00  0.00    +0.000 HD
BRANCH  15  17
ATOM     17  C   UNL     1       0.775   9.340  21.012  0.00  0.00    +0.000 A 
ATOM     18  C   UNL     1       0.615   9.007  22.368  0.00  0.00    +0.000 A 
ATOM     19  C   UNL     1      -0.225   9.732  23.208  0.00  0.00    +0.000 A 
ATOM     20  C   UNL     1      -0.911  10.829  22.708  0.00  0.00    +0.000 A 
ATOM     21  C   UNL     1      -0.789  11.199  21.368  0.00  0.00    +0.000 A 
ATOM     22  C   UNL     1      -1.481  12.298  20.847  0.00  0.00    +0.000 A 
ATOM     23  N   UNL     1      -1.434  12.710  19.567  0.00  0.00    +0.000 NA
ATOM     24  C   UNL     1      -0.649  11.990  18.738  0.00  0.00    +0.000 A 
ATOM     25  C   UNL     1       0.095  10.891  19.148  0.00  0.00    +0.000 A 
ATOM     26  C   UNL     1       0.054  10.459  20.486  0.00  0.00    +0.000 A 
ENDBRANCH  15  17
ENDBRANCH   3  15
TORSDOF 3
ENDMDL
MODEL 3
REMARK VINA RESULT:      -8.8      0.111      1.539
REMARK  Name = 
REMARK  3 active torsions:
REMARK  status: ('A' for Active; 'I' for Inactive)
REMARK    1  A    between atoms: C_2  and  C_15
REMARK    2  A    between atoms: N_3  and  N_4
REMARK    3  A    between atoms: N_4  and  C_5
REMARK                            x       y       z     vdW  Elec       q    Type
REMARK                         _______ _______ _______ _____ _____    ______ ____
ROOT
ATOM      1  O   UNL     1       2.619   7.317  18.426  0.00  0.00    +0.000 OA
ATOM      2  C   UNL     1       2.222   6.689  19.405  0.00  0.00    +0.000 C 
ATOM      3  N   UNL     1       1.745   7.359  20.518  0.00  0.00    +0.000 N 
ATOM      4  H   UNL     1       1.652   6.943  21.433  0.00  0.00    +0.000 HD
ENDROOT
BRANCH   2   5
ATOM      5  C   UNL     1       2.234   5.148  19.453  0.00  0.00    +0.000 C 
ATOM      6  C   UNL     1       1.855   4.604  18.050  0.00  0.00    +0.000 C 
ATOM      7  C   UNL     1       1.917   3.067  18.022  0.00  0.00    +0.000 C 
ATOM      8  C   UNL     1       3.339   2.607  18.383  0.00  0.00    +0.000 C 
ATOM      9  C   UNL     1       3.714   3.111  19.785  0.00  0.00    +0.000 C 
ATOM     10  C   UNL     1       2.717   2.551  20.812  0.00  0.00    +0.000 C 
ATOM     11  C   UNL     1       1.293   3.011  20.462  0.00  0.00    +0.000 C 
ATOM     12  C   UNL     1       0.931   2.501  19.056  0.00  0.00    +0.000 C 
ATOM     13  C   UNL     1       1.233   4.554  20.477  0.00  0.00    +0.000 C 
ATOM     14  C   UNL     1       3.653   4.646  19.804  0.00  0.00    +0.000 C 
ENDBRANCH   2   5
BRANCH   3  15
ATOM     15  N   UNL     1       1.752   8.774  20.429  0.00  0.00    +0.000 N 
ATOM     16  H   UNL     1       1.864   9.061  19.451  0.00  0.00    +0.000 HD
BRANCH  15  17
ATOM     17  C   UNL     1       0.703   9.445  21.125  0.00  0.00    +0.000 A 
ATOM     18  C   UNL     1       0.513   9.186  22.493  0.00  0.00    +0.000 A 
ATOM     19  C   UNL     1      -0.366   9.937  23.268  0.00  0.00    +0.000 A 
ATOM     20  C   UNL     1      -1.062  10.988  22.688  0.00  0.00    +0.000 A 
ATOM     21  C   UNL     1      -0.912  11.283  21.332  0.00  0.00    +0.000 A 
ATOM     22  C   UNL     1      -1.613  12.335  20.730  0.00  0.00    +0.000 A 
ATOM     23  N   UNL     1      -1.540  12.674  19.431  0.00  0.00    +0.000 NA
ATOM     24  C   UNL     1      -0.717  11.927  18.666  0.00  0.00    +0.000 A 
ATOM     25  C   UNL     1       0.040  10.872  19.158  0.00  0.00    +0.000 A 
ATOM     26  C   UNL     1      -0.028  10.515  20.516  0.00  0.00    +0.000 A 
ENDBRANCH  15  17
ENDBRANCH   3  15
TORSDOF 3
ENDMDL
MODEL 4
REMARK VINA RESULT:      -8.6      1.277      2.341
REMARK  Name = 
REMARK  3 active torsions:
REMARK  status: ('A' for Active; 'I' for Inactive)
REMARK    1  A    between atoms: C_2  and  C_15
REMARK    2  A    between atoms: N_3  and  N_4
REMARK    3  A    between atoms: N_4  and  C_5
REMARK                            x       y       z     vdW  Elec       q    Type
REMARK                         _______ _______ _______ _____ _____    ______ ____
ROOT
ATOM      1  O   UNL     1       3.573   6.692  17.917  0.00  0.00    +0.000 OA
ATOM      2  C   UNL     1       2.685   6.337  18.691  0.00  0.00    +0.000 C 
ATOM      3  N   UNL     1       1.858   7.277  19.281  0.00  0.00    +0.000 N 
ATOM      4  H   UNL     1       1.299   7.103  20.103  0.00  0.00    +0.000 HD
ENDROOT
BRANCH   2   5
ATOM      5  C   UNL     1       2.448   4.857  19.047  0.00  0.00    +0.000 C 
ATOM      6  C   UNL     1       3.798   4.228  19.485  0.00  0.00    +0.000 C 
ATOM      7  C   UNL     1       3.607   2.764  19.917  0.00  0.00    +0.000 C 
ATOM      8  C   UNL     1       2.611   2.703  21.086  0.00  0.00    +0.000 C 
ATOM      9  C   UNL     1       1.258   3.291  20.655  0.00  0.00    +0.000 C 
ATOM     10  C   UNL     1       0.707   2.486  19.467  0.00  0.00    +0.000 C 
ATOM     11  C   UNL     1       1.696   2.547  18.291  0.00  0.00    +0.000 C 
ATOM     12  C   UNL     1       3.045   1.956  18.737  0.00  0.00    +0.000 C 
ATOM     13  C   UNL     1       1.898   4.018  17.866  0.00  0.00    +0.000 C 
ATOM     14  C   UNL     1       1.456   4.754  20.228  0.00  0.00    +0.000 C 
ENDBRANCH   2   5
BRANCH   3  15
ATOM     15  N   UNL     1       2.113   8.625  18.925  0.00  0.00    +0.000 N 
ATOM     16  H   UNL     1       2.398   8.678  17.942  0.00  0.00    +0.000 HD
BRANCH  15  17
ATOM     17  C   UNL     1       1.109   9.567  19.299  0.00  0.00    +0.000 A 
ATOM     18  C   UNL     1       0.362  10.206  18.295  0.00  0.00    +0.000 A 
ATOM     19  C   UNL     1      -0.748  10.991  18.592  0.00  0.00    +0.000 A 
ATOM     20  C   UNL     1      -1.150  11.135  19.912  0.00  0.00    +0.000 A 
ATOM     21  C   UNL     1      -0.439  10.524  20.947  0.00  0.00    +0.000 A 
ATOM     22  C   UNL     1      -0.828  10.667  22.284  0.00  0.00    +0.000 A 
ATOM     23  N   UNL     1      -0.191  10.128  23.339  0.00  0.00    +0.000 NA
ATOM     24  C   UNL     1       0.908   9.395  23.060  0.00  0.00    +0.000 A 
ATOM     25  C   UNL     1       1.375   9.173  21.773  0.00  0.00    +0.000 A 
ATOM     26  C   UNL     1       0.711   9.729  20.665  0.00  0.00    +0.000 A 
ENDBRANCH  15  17
ENDBRANCH   3  15
TORSDOF 3
ENDMDL
MODEL 5
REMARK VINA RESULT:      -8.6      1.311      2.800
REMARK  Name = 
REMARK  3 active torsions:
REMARK  status: ('A' for Active; 'I' for Inactive)
REMARK    1  A    between atoms: C_2  and  C_15
REMARK    2  A    between atoms: N_3  and  N_4
REMARK    3  A    between atoms: N_4  and  C_5
REMARK                            x       y       z     vdW  Elec       q    Type
REMARK                         _______ _______ _______ _____ _____    ______ ____
ROOT
ATOM      1  O   UNL     1       3.822   6.681  18.134  0.00  0.00    +0.000 OA
ATOM      2  C   UNL     1       2.824   6.304  18.745  0.00  0.00    +0.000 C 
ATOM      3  N   UNL     1       1.857   7.215  19.133  0.00  0.00    +0.000 N 
ATOM      4  H   UNL     1       1.163   7.036  19.844  0.00  0.00    +0.000 HD
ENDROOT
BRANCH   2   5
ATOM      5  C   UNL     1       2.595   4.824  19.112  0.00  0.00    +0.000 C 
ATOM      6  C   UNL     1       1.583   4.754  20.286  0.00  0.00    +0.000 C 
ATOM      7  C   UNL     1       1.266   3.294  20.651  0.00  0.00    +0.000 C 
ATOM      8  C   UNL     1       0.677   2.578  19.425  0.00  0.00    +0.000 C 
ATOM      9  C   UNL     1       1.684   2.610  18.264  0.00  0.00    +0.000 C 
ATOM     10  C   UNL     1       2.982   1.908  18.695  0.00  0.00    +0.000 C 
ATOM     11  C   UNL     1       3.580   2.622  19.918  0.00  0.00    +0.000 C 
ATOM     12  C   UNL     1       2.562   2.583  21.071  0.00  0.00    +0.000 C 
ATOM     13  C   UNL     1       3.886   4.092  19.556  0.00  0.00    +0.000 C 
ATOM     14  C   UNL     1       1.993   4.071  17.904  0.00  0.00    +0.000 C 
ENDBRANCH   2   5
BRANCH   3  15
ATOM     15  N   UNL     1       2.109   8.563  18.775  0.00  0.00    +0.000 N 
ATOM     16  H   UNL     1       2.374   8.617  17.786  0.00  0.00    +0.000 HD
BRANCH  15  17
ATOM     17  C   UNL     1       1.116   9.507  19.171  0.00  0.00    +0.000 A 
ATOM     18  C   UNL     1       0.339  10.140  18.184  0.00  0.00    +0.000 A 
ATOM     19  C   UNL     1      -0.762  10.927  18.508  0.00  0.00    +0.000 A 
ATOM     20  C   UNL     1      -1.125  11.079  19.838  0.00  0.00    +0.000 A 
ATOM     21  C   UNL     1      -0.385  10.475  20.856  0.00  0.00    +0.000 A 
ATOM     22  C   UNL     1      -0.734  10.627  22.203  0.00  0.00    +0.000 A 
ATOM     23  N   UNL     1      -0.067  10.096  23.243  0.00  0.00    +0.000 NA
ATOM     24  C   UNL     1       1.023   9.361  22.938  0.00  0.00    +0.000 A 
ATOM     25  C   UNL     1       1.453   9.130  21.638  0.00  0.00    +0.000 A 
ATOM     26  C   UNL     1       0.757   9.678  20.546  0.00  0.00    +0.000 A 
ENDBRANCH  15  17
ENDBRANCH   3  15
TORSDOF 3
ENDMDL
MODEL 6
REMARK VINA RESULT:      -8.5      1.442      2.473
REMARK  Name = 
REMARK  3 active torsions:
REMARK  status: ('A' for Active; 'I' for Inactive)
REMARK    1  A    between atoms: C_2  and  C_15
REMARK    2  A    between atoms: N_3  and  N_4
REMARK    3  A    between atoms: N_4  and  C_5
REMARK                            x       y       z     vdW  Elec       q    Type
REMARK                         _______ _______ _______ _____ _____    ______ ____
ROOT
ATOM      1  O   UNL     1       0.747   5.371  20.828  0.00  0.00    +0.000 OA
ATOM      2  C   UNL     1       1.811   5.602  20.259  0.00  0.00    +0.000 C 
ATOM      3  N   UNL     1       2.408   6.846  20.371  0.00  0.00    +0.000 N 
ATOM      4  H   UNL     1       3.118   7.193  19.743  0.00  0.00    +0.000 HD
ENDROOT
BRANCH   2   5
ATOM      5  C   UNL     1       2.530   4.544  19.398  0.00  0.00    +0.000 C 
ATOM      6  C   UNL     1       4.061   4.780  19.495  0.00  0.00    +0.000 C 
ATOM      7  C   UNL     1       4.833   3.709  18.707  0.00  0.00    +0.000 C 
ATOM      8  C   UNL     1       4.493   2.318  19.268  0.00  0.00    +0.000 C 
ATOM      9  C   UNL     1       2.983   2.057  19.147  0.00  0.00    +0.000 C 
ATOM     10  C   UNL     1       2.570   2.130  17.668  0.00  0.00    +0.000 C 
ATOM     11  C   UNL     1       2.903   3.519  17.100  0.00  0.00    +0.000 C 
ATOM     12  C   UNL     1       4.416   3.767  17.229  0.00  0.00    +0.000 C 
ATOM     13  C   UNL     1       2.138   4.597  17.900  0.00  0.00    +0.000 C 
ATOM     14  C   UNL     1       2.219   3.130  19.939  0.00  0.00    +0.000 C 
ENDBRANCH   2   5
BRANCH   3  15
ATOM     15  N   UNL     1       1.712   7.787  21.171  0.00  0.00    +0.000 N 
ATOM     16  H   UNL     1       2.274   8.028  21.994  0.00  0.00    +0.000 HD
BRANCH  15  17
ATOM     17  C   UNL     1       1.169   8.911  20.478  0.00  0.00    +0.000 A 
ATOM     18  C   UNL     1       1.376   9.026  19.093  0.00  0.00    +0.000 A 
ATOM     19  C   UNL     1       0.725   9.992  18.331  0.00  0.00    +0.000 A 
ATOM     20  C   UNL     1      -0.173  10.854  18.943  0.00  0.00    +0.000 A 
ATOM     21  C   UNL     1      -0.410  10.783  20.317  0.00  0.00    +0.000 A 
ATOM     22  C   UNL     1      -1.306  11.652  20.950  0.00  0.00    +0.000 A 
ATOM     23  N   UNL     1      -1.579  11.663  22.267  0.00  0.00    +0.000 NA
ATOM     24  C   UNL     1      -0.924  10.752  23.017  0.00  0.00    +0.000 A 
ATOM     25  C   UNL     1      -0.025   9.831  22.495  0.00  0.00    +0.000 A 
ATOM     26  C   UNL     1       0.259   9.811  21.118  0.00  0.00    +0.000 A 
ENDBRANCH  15  17
ENDBRANCH   3  15
TORSDOF 3
ENDMDL
MODEL 7
REMARK VINA RESULT:      -8.5      1.299      2.803
REMARK  Name = 
REMARK  3 active torsions:
REMARK  status: ('A' for Active; 'I' for Inactive)
REMARK    1  A    between atoms: C_2  and  C_15
REMARK    2  A    between atoms: N_3  and  N_4
REMARK    3  A    between atoms: N_4  and  C_5
REMARK                            x       y       z     vdW  Elec       q    Type
REMARK                         _______ _______ _______ _____ _____    ______ ____
ROOT
ATOM      1  O   UNL     1       3.063   6.488  17.510  0.00  0.00    +0.000 OA
ATOM      2  C   UNL     1       2.523   6.204  18.577  0.00  0.00    +0.000 C 
ATOM      3  N   UNL     1       2.039   7.203  19.403  0.00  0.00    +0.000 N 
ATOM      4  H   UNL     1       1.831   7.078  20.382  0.00  0.00    +0.000 HD
ENDROOT
BRANCH   2   5
ATOM      5  C   UNL     1       2.360   4.747  19.053  0.00  0.00    +0.000 C 
ATOM      6  C   UNL     1       1.936   3.872  17.843  0.00  0.00    +0.000 C 
ATOM      7  C   UNL     1       1.823   2.393  18.247  0.00  0.00    +0.000 C 
ATOM      8  C   UNL     1       3.180   1.905  18.781  0.00  0.00    +0.000 C 
ATOM      9  C   UNL     1       3.596   2.741  20.002  0.00  0.00    +0.000 C 
ATOM     10  C   UNL     1       2.531   2.602  21.102  0.00  0.00    +0.000 C 
ATOM     11  C   UNL     1       1.171   3.093  20.577  0.00  0.00    +0.000 C 
ATOM     12  C   UNL     1       0.768   2.249  19.356  0.00  0.00    +0.000 C 
ATOM     13  C   UNL     1       1.288   4.575  20.159  0.00  0.00    +0.000 C 
ATOM     14  C   UNL     1       3.709   4.217  19.589  0.00  0.00    +0.000 C 
ENDBRANCH   2   5
BRANCH   3  15
ATOM     15  N   UNL     1       2.211   8.527  18.925  0.00  0.00    +0.000 N 
ATOM     16  H   UNL     1       2.455   8.509  17.929  0.00  0.00    +0.000 HD
BRANCH  15  17
ATOM     17  C   UNL     1       1.176   9.449  19.262  0.00  0.00    +0.000 A 
ATOM     18  C   UNL     1       0.411  10.027  18.234  0.00  0.00    +0.000 A 
ATOM     19  C   UNL     1      -0.724  10.786  18.500  0.00  0.00    +0.000 A 
ATOM     20  C   UNL     1      -1.135  10.964  19.813  0.00  0.00    +0.000 A 
ATOM     21  C   UNL     1      -0.408  10.415  20.871  0.00  0.00    +0.000 A 
ATOM     22  C   UNL     1      -0.804  10.593  22.201  0.00  0.00    +0.000 A 
ATOM     23  N   UNL     1      -0.154  10.115  23.277  0.00  0.00    +0.000 NA
ATOM     24  C   UNL     1       0.969   9.408  23.027  0.00  0.00    +0.000 A 
ATOM     25  C   UNL     1       1.447   9.154  21.749  0.00  0.00    +0.000 A 
ATOM     26  C   UNL     1       0.768   9.647  20.620  0.00  0.00    +0.000 A 
ENDBRANCH  15  17
ENDBRANCH   3  15
TORSDOF 3
ENDMDL
MODEL 8
REMARK VINA RESULT:      -8.5      1.434      2.791
REMARK  Name = 
REMARK  3 active torsions:
REMARK  status: ('A' for Active; 'I' for Inactive)
REMARK    1  A    between atoms: C_2  and  C_15
REMARK    2  A    between atoms: N_3  and  N_4
REMARK    3  A    between atoms: N_4  and  C_5
REMARK                            x       y       z     vdW  Elec       q    Type
REMARK                         _______ _______ _______ _____ _____    ______ ____
ROOT
ATOM      1  O   UNL     1       0.687   5.387  20.734  0.00  0.00    +0.000 OA
ATOM      2  C   UNL     1       1.796   5.622  20.258  0.00  0.00    +0.000 C 
ATOM      3  N   UNL     1       2.395   6.853  20.461  0.00  0.00    +0.000 N 
ATOM      4  H   UNL     1       3.156   7.212  19.903  0.00  0.00    +0.000 HD
ENDROOT
BRANCH   2   5
ATOM      5  C   UNL     1       2.567   4.585  19.418  0.00  0.00    +0.000 C 
ATOM      6  C   UNL     1       2.327   3.177  20.025  0.00  0.00    +0.000 C 
ATOM      7  C   UNL     1       3.022   2.092  19.185  0.00  0.00    +0.000 C 
ATOM      8  C   UNL     1       2.475   2.130  17.749  0.00  0.00    +0.000 C 
ATOM      9  C   UNL     1       2.737   3.510  17.124  0.00  0.00    +0.000 C 
ATOM     10  C   UNL     1       4.249   3.783  17.105  0.00  0.00    +0.000 C 
ATOM     11  C   UNL     1       4.804   3.750  18.539  0.00  0.00    +0.000 C 
ATOM     12  C   UNL     1       4.534   2.365  19.152  0.00  0.00    +0.000 C 
ATOM     13  C   UNL     1       4.097   4.832  19.386  0.00  0.00    +0.000 C 
ATOM     14  C   UNL     1       2.038   4.588  17.966  0.00  0.00    +0.000 C 
ENDBRANCH   2   5
BRANCH   3  15
ATOM     15  N   UNL     1       1.650   7.775  21.238  0.00  0.00    +0.000 N 
ATOM     16  H   UNL     1       2.160   7.998  22.099  0.00  0.00    +0.000 HD
BRANCH  15  17
ATOM     17  C   UNL     1       1.148   8.913  20.540  0.00  0.00    +0.000 A 
ATOM     18  C   UNL     1       1.403   9.040  19.163  0.00  0.00    +0.000 A 
ATOM     19  C   UNL     1       0.793  10.022  18.390  0.00  0.00    +0.000 A 
ATOM     20  C   UNL     1      -0.113  10.892  18.980  0.00  0.00    +0.000 A 
ATOM     21  C   UNL     1      -0.398  10.810  20.344  0.00  0.00    +0.000 A 
ATOM     22  C   UNL     1      -1.303  11.686  20.955  0.00  0.00    +0.000 A 
ATOM     23  N   UNL     1      -1.621  11.688  22.262  0.00  0.00    +0.000 NA
ATOM     24  C   UNL     1      -1.004  10.760  23.025  0.00  0.00    +0.000 A 
ATOM     25  C   UNL     1      -0.102   9.831  22.524  0.00  0.00    +0.000 A 
ATOM     26  C   UNL     1       0.229   9.821  21.157  0.00  0.00    +0.000 A 
ENDBRANCH  15  17
ENDBRANCH   3  15
TORSDOF 3
ENDMDL
MODEL 9
REMARK VINA RESULT:      -8.4      1.435      2.857
REMARK  Name = 
REMARK  3 active torsions:
REMARK  status: ('A' for Active; 'I' for Inactive)
REMARK    1  A    between atoms: C_2  and  C_15
REMARK    2  A    between atoms: N_3  and  N_4
REMARK    3  A    between atoms: N_4  and  C_5
REMARK                            x       y       z     vdW  Elec       q    Type
REMARK                         _______ _______ _______ _____ _____    ______ ____
ROOT
ATOM      1  O   UNL     1       0.704   5.429  20.831  0.00  0.00    +0.000 OA
ATOM      2  C   UNL     1       1.798   5.617  20.302  0.00  0.00    +0.000 C 
ATOM      3  N   UNL     1       2.430   6.842  20.422  0.00  0.00    +0.000 N 
ATOM      4  H   UNL     1       3.175   7.157  19.818  0.00  0.00    +0.000 HD
ENDROOT
BRANCH   2   5
ATOM      5  C   UNL     1       2.514   4.524  19.484  0.00  0.00    +0.000 C 
ATOM      6  C   UNL     1       2.038   4.614  18.009  0.00  0.00    +0.000 C 
ATOM      7  C   UNL     1       2.772   3.587  17.131  0.00  0.00    +0.000 C 
ATOM      8  C   UNL     1       4.285   3.848  17.197  0.00  0.00    +0.000 C 
ATOM      9  C   UNL     1       4.777   3.728  18.649  0.00  0.00    +0.000 C 
ATOM     10  C   UNL     1       4.476   2.315  19.174  0.00  0.00    +0.000 C 
ATOM     11  C   UNL     1       2.963   2.047  19.115  0.00  0.00    +0.000 C 
ATOM     12  C   UNL     1       2.485   2.172  17.658  0.00  0.00    +0.000 C 
ATOM     13  C   UNL     1       2.224   3.087  19.987  0.00  0.00    +0.000 C 
ATOM     14  C   UNL     1       4.041   4.759  19.519  0.00  0.00    +0.000 C 
ENDBRANCH   2   5
BRANCH   3  15
ATOM     15  N   UNL     1       1.735   7.816  21.182  0.00  0.00    +0.000 N 
ATOM     16  H   UNL     1       2.294   8.085  21.998  0.00  0.00    +0.000 HD
BRANCH  15  17
ATOM     17  C   UNL     1       1.202   8.916  20.444  0.00  0.00    +0.000 A 
ATOM     18  C   UNL     1       1.431   8.986  19.059  0.00  0.00    +0.000 A 
ATOM     19  C   UNL     1       0.791   9.925  18.256  0.00  0.00    +0.000 A 
ATOM     20  C   UNL     1      -0.118  10.806  18.825  0.00  0.00    +0.000 A 
ATOM     21  C   UNL     1      -0.377  10.779  20.197  0.00  0.00    +0.000 A 
ATOM     22  C   UNL     1      -1.284  11.667  20.786  0.00  0.00    +0.000 A 
ATOM     23  N   UNL     1      -1.577  11.721  22.098  0.00  0.00    +0.000 NA
ATOM     24  C   UNL     1      -0.932  10.837  22.888  0.00  0.00    +0.000 A 
ATOM     25  C   UNL     1      -0.025   9.900  22.411  0.00  0.00    +0.000 A 
ATOM     26  C   UNL     1       0.281   9.836  21.040  0.00  0.00    +0.000 A 
ENDBRANCH  15  17
ENDBRANCH   3  15
TORSDOF 3
ENDMDL
