MODEL 1
REMARK VINA RESULT:      -8.2      0.000      0.000
REMARK  Name = 
REMARK  9 active torsions:
REMARK  status: ('A' for Active; 'I' for Inactive)
REMARK    1  A    between atoms: C_1  and  C_2
REMARK    2  A    between atoms: C_2  and  C_3
REMARK    3  A    between atoms: C_2  and  C_4
REMARK    4  A    between atoms: C_2  and  C_5
REMARK    5  A    between atoms: C_8  and  C_9
REMARK    6  A    between atoms: C_9  and  C_11
REMARK    7  A    between atoms: C_14  and  C_15
REMARK    8  A    between atoms: N_17  and  C_18
REMARK    9  A    between atoms: C_18  and  C_19
REMARK                            x       y       z     vdW  Elec       q    Type
REMARK                         _______ _______ _______ _____ _____    ______ ____
ROOT
ATOM      1  C   UNL     1       7.017   6.852  17.552  0.00  0.00    +0.000 A 
ATOM      2  C   UNL     1       7.876   6.432  18.551  0.00  0.00    +0.000 A 
ATOM      3  N   UNL     1       8.598   7.515  18.980  0.00  0.00    +0.000 N 
ATOM      4  C   UNL     1       8.239   8.646  18.274  0.00  0.00    +0.000 A 
ATOM      5  C   UNL     1       7.287   8.241  17.355  0.00  0.00    +0.000 A 
ATOM      6  H   UNL     1       9.304   7.514  19.707  0.00  0.00    +0.000 HD
ENDROOT
BRANCH   4   7
ATOM      7  C   UNL     1       8.855   9.922  18.560  0.00  0.00    +0.000 C 
ATOM      8  O   UNL     1       8.926  10.809  17.715  0.00  0.00    +0.000 OA
ATOM      9  N   UNL     1       9.373  10.052  19.822  0.00  0.00    +0.000 N 
ATOM     10  H   UNL     1       9.333   9.278  20.470  0.00  0.00    +0.000 HD
BRANCH   9  11
ATOM     11  C   UNL     1      10.085  11.239  20.265  0.00  0.00    +0.000 C 
BRANCH  11  12
ATOM     12  C   UNL     1       9.163  12.227  20.985  0.00  0.00    +0.000 C 
ATOM     13  C   UNL     1       9.852  13.478  21.511  0.00  0.00    +0.000 C 
ATOM     14  C   UNL     1       8.970  13.858  22.674  0.00  0.00    +0.000 C 
ATOM     15  C   UNL     1       8.549  12.510  23.220  0.00  0.00    +0.000 C 
ATOM     16  O   UNL     1       8.550  11.587  22.123  0.00  0.00    +0.000 OA
ENDBRANCH  11  12
ENDBRANCH   9  11
ENDBRANCH   4   7
BRANCH   1  17
ATOM     17  C   UNL     1       6.058   6.050  16.797  0.00  0.00    +0.000 C 
ATOM     18  O   UNL     1       6.117   5.976  15.572  0.00  0.00    +0.000 OA
BRANCH  17  22
ATOM     19  C   UNL     1       2.899   4.019  18.951  0.00  0.00    +0.000 A 
ATOM     20  C   UNL     1       3.264   5.346  19.235  0.00  0.00    +0.000 A 
ATOM     21  C   UNL     1       4.283   5.992  18.525  0.00  0.00    +0.000 A 
ATOM     22  C   UNL     1       4.967   5.327  17.507  0.00  0.00    +0.000 A 
ATOM     23  C   UNL     1       4.649   3.993  17.237  0.00  0.00    +0.000 A 
ATOM     24  C   UNL     1       3.626   3.352  17.945  0.00  0.00    +0.000 A 
BRANCH  19  26
ATOM     25  C   UNL     1       2.236   2.376  20.819  0.00  0.00    +0.000 C 
ATOM     26  C   UNL     1       1.748   3.305  19.685  0.00  0.00    +0.000 C 
ATOM     27  C   UNL     1       0.932   2.442  18.701  0.00  0.00    +0.000 C 
ATOM     28  C   UNL     1       0.809   4.353  20.324  0.00  0.00    +0.000 C 
ENDBRANCH  19  26
ENDBRANCH  17  22
ENDBRANCH   1  17
TORSDOF 6
ENDMDL
MODEL 2
REMARK VINA RESULT:      -8.2      2.043      2.532
REMARK  Name = 
REMARK  9 active torsions:
REMARK  status: ('A' for Active; 'I' for Inactive)
REMARK    1  A    between atoms: C_1  and  C_2
REMARK    2  A    between atoms: C_2  and  C_3
REMARK    3  A    between atoms: C_2  and  C_4
REMARK    4  A    between atoms: C_2  and  C_5
REMARK    5  A    between atoms: C_8  and  C_9
REMARK    6  A    between atoms: C_9  and  C_11
REMARK    7  A    between atoms: C_14  and  C_15
REMARK    8  A    between atoms: N_17  and  C_18
REMARK    9  A    between atoms: C_18  and  C_19
REMARK                            x       y       z     vdW  Elec       q    Type
REMARK                         _______ _______ _______ _____ _____    ______ ____
ROOT
ATOM      1  C   UNL     1       7.041   7.229  17.665  0.00  0.00    +0.000 A 
ATOM      2  C   UNL     1       7.933   6.719  18.592  0.00  0.00    +0.000 A 
ATOM      3  N   UNL     1       8.731   7.743  19.029  0.00  0.00    +0.000 N 
ATOM      4  C   UNL     1       8.391   8.924  18.400  0.00  0.00    +0.000 A 
ATOM      5  C   UNL     1       7.370   8.612  17.520  0.00  0.00    +0.000 A 
ATOM      6  H   UNL     1       9.475   7.671  19.713  0.00  0.00    +0.000 HD
ENDROOT
BRANCH   4   7
ATOM      7  C   UNL     1       9.085  10.152  18.712  0.00  0.00    +0.000 C 
ATOM      8  O   UNL     1       9.660  10.316  19.784  0.00  0.00    +0.000 OA
ATOM      9  N   UNL     1       9.026  11.121  17.744  0.00  0.00    +0.000 N 
ATOM     10  H   UNL     1       8.501  10.960  16.896  0.00  0.00    +0.000 HD
BRANCH   9  11
ATOM     11  C   UNL     1       9.609  12.441  17.910  0.00  0.00    +0.000 C 
BRANCH  11  12
ATOM     12  C   UNL     1       8.578  13.470  18.384  0.00  0.00    +0.000 C 
ATOM     13  C   UNL     1       7.346  13.594  17.500  0.00  0.00    +0.000 C 
ATOM     14  C   UNL     1       6.918  15.017  17.754  0.00  0.00    +0.000 C 
ATOM     15  C   UNL     1       8.242  15.733  17.918  0.00  0.00    +0.000 C 
ATOM     16  O   UNL     1       9.180  14.780  18.435  0.00  0.00    +0.000 OA
ENDBRANCH  11  12
ENDBRANCH   9  11
ENDBRANCH   4   7
BRANCH   1  17
ATOM     17  C   UNL     1       6.002   6.514  16.929  0.00  0.00    +0.000 C 
ATOM     18  O   UNL     1       5.908   6.610  15.708  0.00  0.00    +0.000 OA
BRANCH  17  22
ATOM     19  C   UNL     1       3.094   4.160  19.109  0.00  0.00    +0.000 A 
ATOM     20  C   UNL     1       2.929   5.539  18.892  0.00  0.00    +0.000 A 
ATOM     21  C   UNL     1       3.875   6.286  18.179  0.00  0.00    +0.000 A 
ATOM     22  C   UNL     1       5.015   5.672  17.661  0.00  0.00    +0.000 A 
ATOM     23  C   UNL     1       5.221   4.310  17.901  0.00  0.00    +0.000 A 
ATOM     24  C   UNL     1       4.270   3.566  18.609  0.00  0.00    +0.000 A 
BRANCH  19  26
ATOM     25  C   UNL     1       0.836   4.136  20.346  0.00  0.00    +0.000 C 
ATOM     26  C   UNL     1       2.043   3.310  19.847  0.00  0.00    +0.000 C 
ATOM     27  C   UNL     1       2.671   2.622  21.077  0.00  0.00    +0.000 C 
ATOM     28  C   UNL     1       1.492   2.223  18.897  0.00  0.00    +0.000 C 
ENDBRANCH  19  26
ENDBRANCH  17  22
ENDBRANCH   1  17
TORSDOF 6
ENDMDL
MODEL 3
REMARK VINA RESULT:      -8.1      1.889      2.210
REMARK  Name = 
REMARK  9 active torsions:
REMARK  status: ('A' for Active; 'I' for Inactive)
REMARK    1  A    between atoms: C_1  and  C_2
REMARK    2  A    between atoms: C_2  and  C_3
REMARK    3  A    between atoms: C_2  and  C_4
REMARK    4  A    between atoms: C_2  and  C_5
REMARK    5  A    between atoms: C_8  and  C_9
REMARK    6  A    between atoms: C_9  and  C_11
REMARK    7  A    between atoms: C_14  and  C_15
REMARK    8  A    between atoms: N_17  and  C_18
REMARK    9  A    between atoms: C_18  and  C_19
REMARK                            x       y       z     vdW  Elec       q    Type
REMARK                         _______ _______ _______ _____ _____    ______ ____
ROOT
ATOM      1  C   UNL     1       6.987   7.246  17.649  0.00  0.00    +0.000 A 
ATOM      2  C   UNL     1       7.872   6.647  18.526  0.00  0.00    +0.000 A 
ATOM      3  N   UNL     1       8.708   7.614  19.020  0.00  0.00    +0.000 N 
ATOM      4  C   UNL     1       8.399   8.844  18.475  0.00  0.00    +0.000 A 
ATOM      5  C   UNL     1       7.358   8.624  17.590  0.00  0.00    +0.000 A 
ATOM      6  H   UNL     1       9.458   7.473  19.687  0.00  0.00    +0.000 HD
ENDROOT
BRANCH   4   7
ATOM      7  C   UNL     1       9.135  10.027  18.858  0.00  0.00    +0.000 C 
ATOM      8  O   UNL     1       9.275  10.350  20.034  0.00  0.00    +0.000 OA
ATOM      9  N   UNL     1       9.634  10.769  17.819  0.00  0.00    +0.000 N 
ATOM     10  H   UNL     1       9.455  10.491  16.865  0.00  0.00    +0.000 HD
BRANCH   9  11
ATOM     11  C   UNL     1      10.343  12.023  18.012  0.00  0.00    +0.000 C 
BRANCH  11  12
ATOM     12  C   UNL     1       9.562  13.217  17.457  0.00  0.00    +0.000 C 
ATOM     13  C   UNL     1       9.721  14.508  18.246  0.00  0.00    +0.000 C 
ATOM     14  C   UNL     1       8.425  15.219  17.952  0.00  0.00    +0.000 C 
ATOM     15  C   UNL     1       7.434  14.078  17.882  0.00  0.00    +0.000 C 
ATOM     16  O   UNL     1       8.151  12.917  17.442  0.00  0.00    +0.000 OA
ENDBRANCH  11  12
ENDBRANCH   9  11
ENDBRANCH   4   7
BRANCH   1  17
ATOM     17  C   UNL     1       5.917   6.614  16.882  0.00  0.00    +0.000 C 
ATOM     18  O   UNL     1       5.825   6.775  15.667  0.00  0.00    +0.000 OA
BRANCH  17  22
ATOM     19  C   UNL     1       2.905   4.283  18.942  0.00  0.00    +0.000 A 
ATOM     20  C   UNL     1       2.742   5.656  18.685  0.00  0.00    +0.000 A 
ATOM     21  C   UNL     1       3.722   6.395  18.011  0.00  0.00    +0.000 A 
ATOM     22  C   UNL     1       4.895   5.779  17.573  0.00  0.00    +0.000 A 
ATOM     23  C   UNL     1       5.096   4.425  17.856  0.00  0.00    +0.000 A 
ATOM     24  C   UNL     1       4.111   3.689  18.524  0.00  0.00    +0.000 A 
BRANCH  19  26
ATOM     25  C   UNL     1       2.387   2.480  20.706  0.00  0.00    +0.000 C 
ATOM     26  C   UNL     1       1.819   3.440  19.637  0.00  0.00    +0.000 C 
ATOM     27  C   UNL     1       1.058   2.582  18.605  0.00  0.00    +0.000 C 
ATOM     28  C   UNL     1       0.812   4.372  20.347  0.00  0.00    +0.000 C 
ENDBRANCH  19  26
ENDBRANCH  17  22
ENDBRANCH   1  17
TORSDOF 6
ENDMDL
MODEL 4
REMARK VINA RESULT:      -8.1      8.059     10.639
REMARK  Name = 
REMARK  9 active torsions:
REMARK  status: ('A' for Active; 'I' for Inactive)
REMARK    1  A    between atoms: C_1  and  C_2
REMARK    2  A    between atoms: C_2  and  C_3
REMARK    3  A    between atoms: C_2  and  C_4
REMARK    4  A    between atoms: C_2  and  C_5
REMARK    5  A    between atoms: C_8  and  C_9
REMARK    6  A    between atoms: C_9  and  C_11
REMARK    7  A    between atoms: C_14  and  C_15
REMARK    8  A    between atoms: N_17  and  C_18
REMARK    9  A    between atoms: C_18  and  C_19
REMARK                            x       y       z     vdW  Elec       q    Type
REMARK                         _______ _______ _______ _____ _____    ______ ____
ROOT
ATOM      1  C   UNL     1      -0.334  11.261  19.151  0.00  0.00    +0.000 A 
ATOM      2  C   UNL     1      -0.223  12.460  18.470  0.00  0.00    +0.000 A 
ATOM      3  N   UNL     1      -1.349  12.626  17.707  0.00  0.00    +0.000 N 
ATOM      4  C   UNL     1      -2.201  11.552  17.862  0.00  0.00    +0.000 A 
ATOM      5  C   UNL     1      -1.566  10.676  18.725  0.00  0.00    +0.000 A 
ATOM      6  H   UNL     1      -1.550  13.414  17.103  0.00  0.00    +0.000 HD
ENDROOT
BRANCH   4   7
ATOM      7  C   UNL     1      -3.467  11.508  17.167  0.00  0.00    +0.000 C 
ATOM      8  O   UNL     1      -3.581  10.984  16.063  0.00  0.00    +0.000 OA
ATOM      9  N   UNL     1      -4.512  12.115  17.813  0.00  0.00    +0.000 N 
ATOM     10  H   UNL     1      -4.362  12.575  18.700  0.00  0.00    +0.000 HD
BRANCH   9  11
ATOM     11  C   UNL     1      -5.842  12.226  17.237  0.00  0.00    +0.000 C 
BRANCH  11  12
ATOM     12  C   UNL     1      -6.936  11.845  18.238  0.00  0.00    +0.000 C 
ATOM     13  C   UNL     1      -6.817  12.513  19.600  0.00  0.00    +0.000 C 
ATOM     14  C   UNL     1      -7.495  11.513  20.501  0.00  0.00    +0.000 C 
ATOM     15  C   UNL     1      -7.104  10.191  19.877  0.00  0.00    +0.000 C 
ATOM     16  O   UNL     1      -6.911  10.422  18.476  0.00  0.00    +0.000 OA
ENDBRANCH  11  12
ENDBRANCH   9  11
ENDBRANCH   4   7
BRANCH   1  17
ATOM     17  C   UNL     1       0.621  10.663  20.080  0.00  0.00    +0.000 C 
ATOM     18  O   UNL     1       0.977  11.257  21.095  0.00  0.00    +0.000 OA
BRANCH  17  22
ATOM     19  C   UNL     1       2.340   6.756  19.352  0.00  0.00    +0.000 A 
ATOM     20  C   UNL     1       1.803   7.117  20.600  0.00  0.00    +0.000 A 
ATOM     21  C   UNL     1       1.244   8.382  20.818  0.00  0.00    +0.000 A 
ATOM     22  C   UNL     1       1.206   9.324  19.791  0.00  0.00    +0.000 A 
ATOM     23  C   UNL     1       1.772   9.002  18.554  0.00  0.00    +0.000 A 
ATOM     24  C   UNL     1       2.325   7.734  18.338  0.00  0.00    +0.000 A 
BRANCH  19  26
ATOM     25  C   UNL     1       4.423   5.371  18.742  0.00  0.00    +0.000 C 
ATOM     26  C   UNL     1       2.914   5.354  19.075  0.00  0.00    +0.000 C 
ATOM     27  C   UNL     1       2.187   4.698  17.883  0.00  0.00    +0.000 C 
ATOM     28  C   UNL     1       2.731   4.461  20.323  0.00  0.00    +0.000 C 
ENDBRANCH  19  26
ENDBRANCH  17  22
ENDBRANCH   1  17
TORSDOF 6
ENDMDL
MODEL 5
REMARK VINA RESULT:      -8.1      1.790      2.597
REMARK  Name = 
REMARK  9 active torsions:
REMARK  status: ('A' for Active; 'I' for Inactive)
REMARK    1  A    between atoms: C_1  and  C_2
REMARK    2  A    between atoms: C_2  and  C_3
REMARK    3  A    between atoms: C_2  and  C_4
REMARK    4  A    between atoms: C_2  and  C_5
REMARK    5  A    between atoms: C_8  and  C_9
REMARK    6  A    between atoms: C_9  and  C_11
REMARK    7  A    between atoms: C_14  and  C_15
REMARK    8  A    between atoms: N_17  and  C_18
REMARK    9  A    between atoms: C_18  and  C_19
REMARK                            x       y       z     vdW  Elec       q    Type
REMARK                         _______ _______ _______ _____ _____    ______ ____
ROOT
ATOM      1  C   UNL     1       7.265   6.373  17.751  0.00  0.00    +0.000 A 
ATOM      2  C   UNL     1       8.106   6.313  18.847  0.00  0.00    +0.000 A 
ATOM      3  N   UNL     1       8.596   7.570  19.083  0.00  0.00    +0.000 N 
ATOM      4  C   UNL     1       8.102   8.463  18.154  0.00  0.00    +0.000 A 
ATOM      5  C   UNL     1       7.305   7.727  17.295  0.00  0.00    +0.000 A 
ATOM      6  H   UNL     1       9.236   7.834  19.823  0.00  0.00    +0.000 HD
ENDROOT
BRANCH   4   7
ATOM      7  C   UNL     1       8.464   9.861  18.209  0.00  0.00    +0.000 C 
ATOM      8  O   UNL     1       7.925  10.698  17.489  0.00  0.00    +0.000 OA
ATOM      9  N   UNL     1       9.464  10.174  19.092  0.00  0.00    +0.000 N 
ATOM     10  H   UNL     1       9.911   9.446  19.631  0.00  0.00    +0.000 HD
BRANCH   9  11
ATOM     11  C   UNL     1      10.002  11.517  19.234  0.00  0.00    +0.000 C 
BRANCH  11  12
ATOM     12  C   UNL     1      10.613  12.032  17.928  0.00  0.00    +0.000 C 
ATOM     13  C   UNL     1      12.124  12.208  17.955  0.00  0.00    +0.000 C 
ATOM     14  C   UNL     1      12.333  13.295  16.931  0.00  0.00    +0.000 C 
ATOM     15  C   UNL     1      11.112  14.167  17.125  0.00  0.00    +0.000 C 
ATOM     16  O   UNL     1      10.057  13.323  17.601  0.00  0.00    +0.000 OA
ENDBRANCH  11  12
ENDBRANCH   9  11
ENDBRANCH   4   7
BRANCH   1  17
ATOM     17  C   UNL     1       6.517   5.283  17.131  0.00  0.00    +0.000 C 
ATOM     18  O   UNL     1       6.871   4.799  16.058  0.00  0.00    +0.000 OA
BRANCH  17  22
ATOM     19  C   UNL     1       2.982   3.781  19.130  0.00  0.00    +0.000 A 
ATOM     20  C   UNL     1       3.793   4.782  19.695  0.00  0.00    +0.000 A 
ATOM     21  C   UNL     1       4.930   5.262  19.033  0.00  0.00    +0.000 A 
ATOM     22  C   UNL     1       5.287   4.755  17.784  0.00  0.00    +0.000 A 
ATOM     23  C   UNL     1       4.520   3.730  17.223  0.00  0.00    +0.000 A 
ATOM     24  C   UNL     1       3.381   3.257  17.885  0.00  0.00    +0.000 A 
BRANCH  19  26
ATOM     25  C   UNL     1       0.841   2.369  18.906  0.00  0.00    +0.000 C 
ATOM     26  C   UNL     1       1.701   3.274  19.817  0.00  0.00    +0.000 C 
ATOM     27  C   UNL     1       0.816   4.459  20.256  0.00  0.00    +0.000 C 
ATOM     28  C   UNL     1       2.073   2.443  21.066  0.00  0.00    +0.000 C 
ENDBRANCH  19  26
ENDBRANCH  17  22
ENDBRANCH   1  17
TORSDOF 6
ENDMDL
MODEL 6
REMARK VINA RESULT:      -8.0      0.830      1.540
REMARK  Name = 
REMARK  9 active torsions:
REMARK  status: ('A' for Active; 'I' for Inactive)
REMARK    1  A    between atoms: C_1  and  C_2
REMARK    2  A    between atoms: C_2  and  C_3
REMARK    3  A    between atoms: C_2  and  C_4
REMARK    4  A    between atoms: C_2  and  C_5
REMARK    5  A    between atoms: C_8  and  C_9
REMARK    6  A    between atoms: C_9  and  C_11
REMARK    7  A    between atoms: C_14  and  C_15
REMARK    8  A    between atoms: N_17  and  C_18
REMARK    9  A    between atoms: C_18  and  C_19
REMARK                            x       y       z     vdW  Elec       q    Type
REMARK                         _______ _______ _______ _____ _____    ______ ____
ROOT
ATOM      1  C   UNL     1       7.110   7.260  17.651  0.00  0.00    +0.000 A 
ATOM      2  C   UNL     1       7.958   6.791  18.638  0.00  0.00    +0.000 A 
ATOM      3  N   UNL     1       8.738   7.833  19.065  0.00  0.00    +0.000 N 
ATOM      4  C   UNL     1       8.429   8.985  18.370  0.00  0.00    +0.000 A 
ATOM      5  C   UNL     1       7.447   8.635  17.459  0.00  0.00    +0.000 A 
ATOM      6  H   UNL     1       9.451   7.791  19.784  0.00  0.00    +0.000 HD
ENDROOT
BRANCH   4   7
ATOM      7  C   UNL     1       9.111  10.226  18.657  0.00  0.00    +0.000 C 
ATOM      8  O   UNL     1       9.331  11.060  17.783  0.00  0.00    +0.000 OA
ATOM      9  N   UNL     1       9.514  10.387  19.957  0.00  0.00    +0.000 N 
ATOM     10  H   UNL     1       9.352   9.654  20.633  0.00  0.00    +0.000 HD
BRANCH   9  11
ATOM     11  C   UNL     1      10.269  11.541  20.413  0.00  0.00    +0.000 C 
BRANCH  11  12
ATOM     12  C   UNL     1       9.572  12.265  21.568  0.00  0.00    +0.000 C 
ATOM     13  C   UNL     1       8.408  11.507  22.188  0.00  0.00    +0.000 C 
ATOM     14  C   UNL     1       7.551  12.627  22.722  0.00  0.00    +0.000 C 
ATOM     15  C   UNL     1       7.741  13.710  21.682  0.00  0.00    +0.000 C 
ATOM     16  O   UNL     1       9.042  13.526  21.109  0.00  0.00    +0.000 OA
ENDBRANCH  11  12
ENDBRANCH   9  11
ENDBRANCH   4   7
BRANCH   1  17
ATOM     17  C   UNL     1       6.104   6.512  16.902  0.00  0.00    +0.000 C 
ATOM     18  O   UNL     1       6.107   6.497  15.674  0.00  0.00    +0.000 OA
BRANCH  17  22
ATOM     19  C   UNL     1       3.034   4.266  18.971  0.00  0.00    +0.000 A 
ATOM     20  C   UNL     1       4.296   3.717  18.682  0.00  0.00    +0.000 A 
ATOM     21  C   UNL     1       5.281   4.459  18.018  0.00  0.00    +0.000 A 
ATOM     22  C   UNL     1       5.031   5.773  17.625  0.00  0.00    +0.000 A 
ATOM     23  C   UNL     1       3.769   6.324  17.864  0.00  0.00    +0.000 A 
ATOM     24  C   UNL     1       2.789   5.582  18.533  0.00  0.00    +0.000 A 
BRANCH  19  26
ATOM     25  C   UNL     1       0.923   4.403  20.438  0.00  0.00    +0.000 C 
ATOM     26  C   UNL     1       1.954   3.486  19.744  0.00  0.00    +0.000 C 
ATOM     27  C   UNL     1       2.598   2.607  20.836  0.00  0.00    +0.000 C 
ATOM     28  C   UNL     1       1.173   2.575  18.770  0.00  0.00    +0.000 C 
ENDBRANCH  19  26
ENDBRANCH  17  22
ENDBRANCH   1  17
TORSDOF 6
ENDMDL
MODEL 7
REMARK VINA RESULT:      -8.0      1.769      2.171
REMARK  Name = 
REMARK  9 active torsions:
REMARK  status: ('A' for Active; 'I' for Inactive)
REMARK    1  A    between atoms: C_1  and  C_2
REMARK    2  A    between atoms: C_2  and  C_3
REMARK    3  A    between atoms: C_2  and  C_4
REMARK    4  A    between atoms: C_2  and  C_5
REMARK    5  A    between atoms: C_8  and  C_9
REMARK    6  A    between atoms: C_9  and  C_11
REMARK    7  A    between atoms: C_14  and  C_15
REMARK    8  A    between atoms: N_17  and  C_18
REMARK    9  A    between atoms: C_18  and  C_19
REMARK                            x       y       z     vdW  Elec       q    Type
REMARK                         _______ _______ _______ _____ _____    ______ ____
ROOT
ATOM      1  C   UNL     1       6.970   7.267  17.634  0.00  0.00    +0.000 A 
ATOM      2  C   UNL     1       7.863   6.662  18.501  0.00  0.00    +0.000 A 
ATOM      3  N   UNL     1       8.705   7.625  18.992  0.00  0.00    +0.000 N 
ATOM      4  C   UNL     1       8.393   8.858  18.457  0.00  0.00    +0.000 A 
ATOM      5  C   UNL     1       7.344   8.645  17.580  0.00  0.00    +0.000 A 
ATOM      6  H   UNL     1       9.460   7.478  19.651  0.00  0.00    +0.000 HD
ENDROOT
BRANCH   4   7
ATOM      7  C   UNL     1       9.136  10.038  18.839  0.00  0.00    +0.000 C 
ATOM      8  O   UNL     1       9.331  10.325  20.017  0.00  0.00    +0.000 OA
ATOM      9  N   UNL     1       9.574  10.818  17.801  0.00  0.00    +0.000 N 
ATOM     10  H   UNL     1       9.350  10.567  16.848  0.00  0.00    +0.000 HD
BRANCH   9  11
ATOM     11  C   UNL     1      10.279  12.073  17.998  0.00  0.00    +0.000 C 
BRANCH  11  12
ATOM     12  C   UNL     1       9.349  13.282  17.861  0.00  0.00    +0.000 C 
ATOM     13  C   UNL     1      10.057  14.613  17.655  0.00  0.00    +0.000 C 
ATOM     14  C   UNL     1       9.065  15.590  18.233  0.00  0.00    +0.000 C 
ATOM     15  C   UNL     1       8.476  14.814  19.391  0.00  0.00    +0.000 C 
ATOM     16  O   UNL     1       8.548  13.424  19.052  0.00  0.00    +0.000 OA
ENDBRANCH  11  12
ENDBRANCH   9  11
ENDBRANCH   4   7
BRANCH   1  17
ATOM     17  C   UNL     1       5.892   6.642  16.874  0.00  0.00    +0.000 C 
ATOM     18  O   UNL     1       5.822   6.764  15.653  0.00  0.00    +0.000 OA
BRANCH  17  22
ATOM     19  C   UNL     1       2.866   4.280  18.876  0.00  0.00    +0.000 A 
ATOM     20  C   UNL     1       4.090   3.729  18.459  0.00  0.00    +0.000 A 
ATOM     21  C   UNL     1       5.062   4.507  17.818  0.00  0.00    +0.000 A 
ATOM     22  C   UNL     1       4.837   5.862  17.578  0.00  0.00    +0.000 A 
ATOM     23  C   UNL     1       3.609   6.421  17.946  0.00  0.00    +0.000 A 
ATOM     24  C   UNL     1       2.642   5.641  18.591  0.00  0.00    +0.000 A 
BRANCH  19  26
ATOM     25  C   UNL     1       2.408   2.502  20.681  0.00  0.00    +0.000 C 
ATOM     26  C   UNL     1       1.803   3.455  19.626  0.00  0.00    +0.000 C 
ATOM     27  C   UNL     1       0.993   2.591  18.637  0.00  0.00    +0.000 C 
ATOM     28  C   UNL     1       0.834   4.403  20.366  0.00  0.00    +0.000 C 
ENDBRANCH  19  26
ENDBRANCH  17  22
ENDBRANCH   1  17
TORSDOF 6
ENDMDL
MODEL 8
REMARK VINA RESULT:      -8.0      5.107      8.432
REMARK  Name = 
REMARK  9 active torsions:
REMARK  status: ('A' for Active; 'I' for Inactive)
REMARK    1  A    between atoms: C_1  and  C_2
REMARK    2  A    between atoms: C_2  and  C_3
REMARK    3  A    between atoms: C_2  and  C_4
REMARK    4  A    between atoms: C_2  and  C_5
REMARK    5  A    between atoms: C_8  and  C_9
REMARK    6  A    between atoms: C_9  and  C_11
REMARK    7  A    between atoms: C_14  and  C_15
REMARK    8  A    between atoms: N_17  and  C_18
REMARK    9  A    between atoms: C_18  and  C_19
REMARK                            x       y       z     vdW  Elec       q    Type
REMARK                         _______ _______ _______ _____ _____    ______ ____
ROOT
ATOM      1  C   UNL     1       3.930   4.715  18.597  0.00  0.00    +0.000 A 
ATOM      2  C   UNL     1       4.944   4.128  19.333  0.00  0.00    +0.000 A 
ATOM      3  N   UNL     1       6.034   3.975  18.518  0.00  0.00    +0.000 N 
ATOM      4  C   UNL     1       5.758   4.442  17.249  0.00  0.00    +0.000 A 
ATOM      5  C   UNL     1       4.441   4.867  17.272  0.00  0.00    +0.000 A 
ATOM      6  H   UNL     1       6.927   3.576  18.782  0.00  0.00    +0.000 HD
ENDROOT
BRANCH   4   7
ATOM      7  C   UNL     1       6.764   4.403  16.212  0.00  0.00    +0.000 C 
ATOM      8  O   UNL     1       7.958   4.539  16.465  0.00  0.00    +0.000 OA
ATOM      9  N   UNL     1       6.288   4.237  14.938  0.00  0.00    +0.000 N 
ATOM     10  H   UNL     1       5.293   4.176  14.772  0.00  0.00    +0.000 HD
BRANCH   9  11
ATOM     11  C   UNL     1       7.147   4.239  13.766  0.00  0.00    +0.000 C 
BRANCH  11  12
ATOM     12  C   UNL     1       6.364   3.967  12.479  0.00  0.00    +0.000 C 
ATOM     13  C   UNL     1       4.860   3.837  12.660  0.00  0.00    +0.000 C 
ATOM     14  C   UNL     1       4.479   2.942  11.508  0.00  0.00    +0.000 C 
ATOM     15  C   UNL     1       5.669   2.012  11.409  0.00  0.00    +0.000 C 
ATOM     16  O   UNL     1       6.814   2.732  11.882  0.00  0.00    +0.000 OA
ENDBRANCH  11  12
ENDBRANCH   9  11
ENDBRANCH   4   7
BRANCH   1  17
ATOM     17  C   UNL     1       2.585   5.068  19.043  0.00  0.00    +0.000 C 
ATOM     18  O   UNL     1       1.766   4.201  19.337  0.00  0.00    +0.000 OA
BRANCH  17  22
ATOM     19  C   UNL     1       1.460   9.247  19.176  0.00  0.00    +0.000 A 
ATOM     20  C   UNL     1       1.938   8.637  18.002  0.00  0.00    +0.000 A 
ATOM     21  C   UNL     1       2.291   7.283  17.973  0.00  0.00    +0.000 A 
ATOM     22  C   UNL     1       2.175   6.497  19.120  0.00  0.00    +0.000 A 
ATOM     23  C   UNL     1       1.744   7.092  20.309  0.00  0.00    +0.000 A 
ATOM     24  C   UNL     1       1.386   8.446  20.332  0.00  0.00    +0.000 A 
BRANCH  19  26
ATOM     25  C   UNL     1      -0.404  10.946  18.662  0.00  0.00    +0.000 C 
ATOM     26  C   UNL     1       1.019  10.722  19.219  0.00  0.00    +0.000 C 
ATOM     27  C   UNL     1       1.981  11.598  18.389  0.00  0.00    +0.000 C 
ATOM     28  C   UNL     1       1.024  11.225  20.679  0.00  0.00    +0.000 C 
ENDBRANCH  19  26
ENDBRANCH  17  22
ENDBRANCH   1  17
TORSDOF 6
ENDMDL
MODEL 9
REMARK VINA RESULT:      -7.9      0.756      1.459
REMARK  Name = 
REMARK  9 active torsions:
REMARK  status: ('A' for Active; 'I' for Inactive)
REMARK    1  A    between atoms: C_1  and  C_2
REMARK    2  A    between atoms: C_2  and  C_3
REMARK    3  A    between atoms: C_2  and  C_4
REMARK    4  A    between atoms: C_2  and  C_5
REMARK    5  A    between atoms: C_8  and  C_9
REMARK    6  A    between atoms: C_9  and  C_11
REMARK    7  A    between atoms: C_14  and  C_15
REMARK    8  A    between atoms: N_17  and  C_18
REMARK    9  A    between atoms: C_18  and  C_19
REMARK                            x       y       z     vdW  Elec       q    Type
REMARK                         _______ _______ _______ _____ _____    ______ ____
ROOT
ATOM      1  C   UNL     1       7.049   7.146  17.611  0.00  0.00    +0.000 A 
ATOM      2  C   UNL     1       7.886   6.648  18.593  0.00  0.00    +0.000 A 
ATOM      3  N   UNL     1       8.684   7.670  19.036  0.00  0.00    +0.000 N 
ATOM      4  C   UNL     1       8.396   8.837  18.358  0.00  0.00    +0.000 A 
ATOM      5  C   UNL     1       7.411   8.518  17.440  0.00  0.00    +0.000 A 
ATOM      6  H   UNL     1       9.394   7.605  19.756  0.00  0.00    +0.000 HD
ENDROOT
BRANCH   4   7
ATOM      7  C   UNL     1       9.099  10.062  18.665  0.00  0.00    +0.000 C 
ATOM      8  O   UNL     1       9.451  10.843  17.785  0.00  0.00    +0.000 OA
ATOM      9  N   UNL     1       9.367  10.268  19.992  0.00  0.00    +0.000 N 
ATOM     10  H   UNL     1       9.100   9.575  20.678  0.00  0.00    +0.000 HD
BRANCH   9  11
ATOM     11  C   UNL     1      10.121  11.411  20.479  0.00  0.00    +0.000 C 
BRANCH  11  12
ATOM     12  C   UNL     1       9.214  12.599  20.811  0.00  0.00    +0.000 C 
ATOM     13  C   UNL     1       9.501  13.864  20.016  0.00  0.00    +0.000 C 
ATOM     14  C   UNL     1       9.024  14.942  20.956  0.00  0.00    +0.000 C 
ATOM     15  C   UNL     1       9.388  14.378  22.312  0.00  0.00    +0.000 C 
ATOM     16  O   UNL     1       9.353  12.950  22.203  0.00  0.00    +0.000 OA
ENDBRANCH  11  12
ENDBRANCH   9  11
ENDBRANCH   4   7
BRANCH   1  17
ATOM     17  C   UNL     1       6.031   6.428  16.850  0.00  0.00    +0.000 C 
ATOM     18  O   UNL     1       6.035   6.432  15.621  0.00  0.00    +0.000 OA
BRANCH  17  22
ATOM     19  C   UNL     1       2.920   4.201  18.877  0.00  0.00    +0.000 A 
ATOM     20  C   UNL     1       4.162   3.626  18.554  0.00  0.00    +0.000 A 
ATOM     21  C   UNL     1       5.161   4.361  17.904  0.00  0.00    +0.000 A 
ATOM     22  C   UNL     1       4.945   5.696  17.560  0.00  0.00    +0.000 A 
ATOM     23  C   UNL     1       3.703   6.274  17.832  0.00  0.00    +0.000 A 
ATOM     24  C   UNL     1       2.708   5.537  18.487  0.00  0.00    +0.000 A 
BRANCH  19  26
ATOM     25  C   UNL     1       0.950   2.551  18.710  0.00  0.00    +0.000 C 
ATOM     26  C   UNL     1       1.826   3.426  19.635  0.00  0.00    +0.000 C 
ATOM     27  C   UNL     1       0.885   4.401  20.372  0.00  0.00    +0.000 C 
ATOM     28  C   UNL     1       2.478   2.485  20.673  0.00  0.00    +0.000 C 
ENDBRANCH  19  26
ENDBRANCH  17  22
ENDBRANCH   1  17
TORSDOF 6
ENDMDL
