MODEL 1
REMARK VINA RESULT:      -6.7      0.000      0.000
REMARK  Name = 
REMARK  10 active torsions:
REMARK  status: ('A' for Active; 'I' for Inactive)
REMARK    1  A    between atoms: C_1  and  O_2
REMARK    2  A    between atoms: O_2  and  C_3
REMARK    3  A    between atoms: C_3  and  C_4
REMARK    4  A    between atoms: C_13  and  C_14
REMARK    5  A    between atoms: C_24  and  C_25
REMARK    6  A    between atoms: C_27  and  O_28
REMARK    7  A    between atoms: O_28  and  C_29
REMARK    8  A    between atoms: C_29  and  C_31
REMARK    9  A    between atoms: C_31  and  C_32
REMARK   10  A    between atoms: C_31  and  C_33
REMARK                            x       y       z     vdW  Elec       q    Type
REMARK                         _______ _______ _______ _____ _____    ______ ____
ROOT
ATOM      1  C   UNL     1      -0.591  12.890  22.095  0.00  0.00    +0.000 C 
ATOM      2  O   UNL     1       0.672  13.703  22.135  0.00  0.00    +0.000 OA
ATOM      3  C   UNL     1       1.468  13.844  21.006  0.00  0.00    +0.000 C 
ATOM      4  O   UNL     1       2.602  14.296  21.056  0.00  0.00    +0.000 OA
ATOM      5  C   UNL     1       0.818  13.440  19.776  0.00  0.00    +0.000 A 
ATOM      6  C   UNL     1       1.282  13.179  18.507  0.00  0.00    +0.000 A 
ATOM      7  O   UNL     1       0.273  12.689  17.718  0.00  0.00    +0.000 OA
ATOM      8  C   UNL     1      -0.858  12.693  18.494  0.00  0.00    +0.000 A 
ATOM      9  C   UNL     1      -0.565  13.215  19.716  0.00  0.00    +0.000 A 
ATOM     10  C   UNL     1      -1.483  13.356  20.870  0.00  0.00    +0.000 C 
ATOM     11  C   UNL     1      -1.776  14.874  21.072  0.00  0.00    +0.000 C 
ATOM     12  C   UNL     1      -2.855  12.688  20.504  0.00  0.00    +0.000 C 
ATOM     13  C   UNL     1      -3.192  12.260  19.233  0.00  0.00    +0.000 C 
ATOM     14  C   UNL     1      -2.146  12.161  18.119  0.00  0.00    +0.000 C 
ATOM     15  O   UNL     1      -2.413  11.634  17.046  0.00  0.00    +0.000 OA
ATOM     16  C   UNL     1      -4.616  11.832  18.885  0.00  0.00    +0.000 C 
ATOM     17  C   UNL     1      -5.300  11.968  17.498  0.00  0.00    +0.000 C 
ATOM     18  C   UNL     1      -6.801  11.706  17.779  0.00  0.00    +0.000 C 
ATOM     19  C   UNL     1      -6.893  11.927  19.268  0.00  0.00    +0.000 C 
ATOM     20  O   UNL     1      -7.860  11.630  19.958  0.00  0.00    +0.000 OA
ATOM     21  C   UNL     1      -5.634  12.568  19.791  0.00  0.00    +0.000 C 
ATOM     22  C   UNL     1      -5.737  14.094  19.568  0.00  0.00    +0.000 C 
ATOM     23  C   UNL     1      -5.328  12.224  21.231  0.00  0.00    +0.000 C 
ATOM     24  C   UNL     1      -3.922  12.734  21.612  0.00  0.00    +0.000 C 
ENDROOT
BRANCH   1  25
ATOM     25  C   UNL     1      -0.159  11.407  22.144  0.00  0.00    +0.000 C 
BRANCH  25  27
ATOM     26  C   UNL     1      -0.334   9.472  23.511  0.00  0.00    +0.000 C 
ATOM     27  O   UNL     1      -0.539  10.877  23.423  0.00  0.00    +0.000 OA
ENDBRANCH  25  27
ENDBRANCH   1  25
BRANCH  24  28
ATOM     28  O   UNL     1      -3.519  12.152  22.858  0.00  0.00    +0.000 OA
BRANCH  28  29
ATOM     29  C   UNL     1      -4.051  12.710  23.977  0.00  0.00    +0.000 C 
ATOM     30  O   UNL     1      -4.696  12.097  24.814  0.00  0.00    +0.000 OA
BRANCH  29  31
ATOM     31  C   UNL     1      -3.872  14.206  23.964  0.00  0.00    +0.000 C 
ATOM     32  C   UNL     1      -5.270  14.820  24.006  0.00  0.00    +0.000 C 
ATOM     33  C   UNL     1      -3.017  14.628  25.142  0.00  0.00    +0.000 C 
ENDBRANCH  29  31
ENDBRANCH  28  29
ENDBRANCH  24  28
TORSDOF 5
ENDMDL
MODEL 2
REMARK VINA RESULT:      -6.5      2.073      5.593
REMARK  Name = 
REMARK  10 active torsions:
REMARK  status: ('A' for Active; 'I' for Inactive)
REMARK    1  A    between atoms: C_1  and  O_2
REMARK    2  A    between atoms: O_2  and  C_3
REMARK    3  A    between atoms: C_3  and  C_4
REMARK    4  A    between atoms: C_13  and  C_14
REMARK    5  A    between atoms: C_24  and  C_25
REMARK    6  A    between atoms: C_27  and  O_28
REMARK    7  A    between atoms: O_28  and  C_29
REMARK    8  A    between atoms: C_29  and  C_31
REMARK    9  A    between atoms: C_31  and  C_32
REMARK   10  A    between atoms: C_31  and  C_33
REMARK                            x       y       z     vdW  Elec       q    Type
REMARK                         _______ _______ _______ _____ _____    ______ ____
ROOT
ATOM      1  C   UNL     1      -4.992  14.062  22.285  0.00  0.00    +0.000 C 
ATOM      2  O   UNL     1      -5.192  15.350  23.032  0.00  0.00    +0.000 OA
ATOM      3  C   UNL     1      -4.270  15.779  23.978  0.00  0.00    +0.000 C 
ATOM      4  O   UNL     1      -4.507  16.687  24.760  0.00  0.00    +0.000 OA
ATOM      5  C   UNL     1      -3.004  15.075  23.923  0.00  0.00    +0.000 A 
ATOM      6  C   UNL     1      -1.936  14.991  24.787  0.00  0.00    +0.000 A 
ATOM      7  O   UNL     1      -1.025  14.071  24.335  0.00  0.00    +0.000 OA
ATOM      8  C   UNL     1      -1.507  13.609  23.137  0.00  0.00    +0.000 A 
ATOM      9  C   UNL     1      -2.663  14.260  22.835  0.00  0.00    +0.000 A 
ATOM     10  C   UNL     1      -3.535  14.032  21.659  0.00  0.00    +0.000 C 
ATOM     11  C   UNL     1      -3.417  15.271  20.721  0.00  0.00    +0.000 C 
ATOM     12  C   UNL     1      -2.975  12.811  20.849  0.00  0.00    +0.000 C 
ATOM     13  C   UNL     1      -1.747  12.222  21.088  0.00  0.00    +0.000 C 
ATOM     14  C   UNL     1      -0.936  12.547  22.345  0.00  0.00    +0.000 C 
ATOM     15  O   UNL     1       0.071  11.910  22.631  0.00  0.00    +0.000 OA
ATOM     16  C   UNL     1      -1.152  11.195  20.127  0.00  0.00    +0.000 C 
ATOM     17  C   UNL     1       0.359  10.954  19.863  0.00  0.00    +0.000 C 
ATOM     18  C   UNL     1       0.394  10.068  18.592  0.00  0.00    +0.000 C 
ATOM     19  C   UNL     1      -0.978  10.290  18.007  0.00  0.00    +0.000 C 
ATOM     20  O   UNL     1      -1.464   9.628  17.100  0.00  0.00    +0.000 OA
ATOM     21  C   UNL     1      -1.667  11.444  18.688  0.00  0.00    +0.000 C 
ATOM     22  C   UNL     1      -1.184  12.756  18.029  0.00  0.00    +0.000 C 
ATOM     23  C   UNL     1      -3.175  11.335  18.695  0.00  0.00    +0.000 C 
ATOM     24  C   UNL     1      -3.784  12.429  19.596  0.00  0.00    +0.000 C 
ENDROOT
BRANCH   1  25
ATOM     25  C   UNL     1      -5.378  12.926  23.259  0.00  0.00    +0.000 C 
BRANCH  25  27
ATOM     26  C   UNL     1      -7.689  12.411  23.454  0.00  0.00    +0.000 C 
ATOM     27  O   UNL     1      -6.498  12.223  22.699  0.00  0.00    +0.000 OA
ENDBRANCH  25  27
ENDBRANCH   1  25
BRANCH  24  28
ATOM     28  O   UNL     1      -5.166  12.141  19.839  0.00  0.00    +0.000 OA
BRANCH  28  29
ATOM     29  C   UNL     1      -6.016  12.379  18.807  0.00  0.00    +0.000 C 
ATOM     30  O   UNL     1      -6.329  11.550  17.965  0.00  0.00    +0.000 OA
BRANCH  29  31
ATOM     31  C   UNL     1      -6.394  13.836  18.752  0.00  0.00    +0.000 C 
ATOM     32  C   UNL     1      -6.778  14.141  17.305  0.00  0.00    +0.000 C 
ATOM     33  C   UNL     1      -7.527  14.107  19.722  0.00  0.00    +0.000 C 
ENDBRANCH  29  31
ENDBRANCH  28  29
ENDBRANCH  24  28
TORSDOF 5
ENDMDL
MODEL 3
REMARK VINA RESULT:      -6.3      7.516     10.968
REMARK  Name = 
REMARK  10 active torsions:
REMARK  status: ('A' for Active; 'I' for Inactive)
REMARK    1  A    between atoms: C_1  and  O_2
REMARK    2  A    between atoms: O_2  and  C_3
REMARK    3  A    between atoms: C_3  and  C_4
REMARK    4  A    between atoms: C_13  and  C_14
REMARK    5  A    between atoms: C_24  and  C_25
REMARK    6  A    between atoms: C_27  and  O_28
REMARK    7  A    between atoms: O_28  and  C_29
REMARK    8  A    between atoms: C_29  and  C_31
REMARK    9  A    between atoms: C_31  and  C_32
REMARK   10  A    between atoms: C_31  and  C_33
REMARK                            x       y       z     vdW  Elec       q    Type
REMARK                         _______ _______ _______ _____ _____    ______ ____
ROOT
ATOM      1  C   UNL     1       4.393   4.033  18.182  0.00  0.00    +0.000 C 
ATOM      2  O   UNL     1       4.130   2.558  18.064  0.00  0.00    +0.000 OA
ATOM      3  C   UNL     1       3.352   1.893  19.003  0.00  0.00    +0.000 C 
ATOM      4  O   UNL     1       3.306   0.674  19.071  0.00  0.00    +0.000 OA
ATOM      5  C   UNL     1       2.585   2.775  19.860  0.00  0.00    +0.000 A 
ATOM      6  C   UNL     1       1.904   2.582  21.040  0.00  0.00    +0.000 A 
ATOM      7  O   UNL     1       1.452   3.779  21.533  0.00  0.00    +0.000 OA
ATOM      8  C   UNL     1       1.813   4.734  20.617  0.00  0.00    +0.000 A 
ATOM      9  C   UNL     1       2.431   4.136  19.563  0.00  0.00    +0.000 A 
ATOM     10  C   UNL     1       3.021   4.803  18.378  0.00  0.00    +0.000 C 
ATOM     11  C   UNL     1       2.131   4.469  17.142  0.00  0.00    +0.000 C 
ATOM     12  C   UNL     1       2.929   6.356  18.580  0.00  0.00    +0.000 C 
ATOM     13  C   UNL     1       2.206   6.964  19.590  0.00  0.00    +0.000 C 
ATOM     14  C   UNL     1       1.642   6.159  20.765  0.00  0.00    +0.000 C 
ATOM     15  O   UNL     1       1.142   6.719  21.733  0.00  0.00    +0.000 OA
ATOM     16  C   UNL     1       1.963   8.471  19.603  0.00  0.00    +0.000 C 
ATOM     17  C   UNL     1       0.723   9.194  20.197  0.00  0.00    +0.000 C 
ATOM     18  C   UNL     1       0.822  10.641  19.656  0.00  0.00    +0.000 C 
ATOM     19  C   UNL     1       1.762  10.485  18.486  0.00  0.00    +0.000 C 
ATOM     20  O   UNL     1       2.284  11.412  17.883  0.00  0.00    +0.000 OA
ATOM     21  C   UNL     1       1.965   9.028  18.158  0.00  0.00    +0.000 C 
ATOM     22  C   UNL     1       0.792   8.562  17.267  0.00  0.00    +0.000 C 
ATOM     23  C   UNL     1       3.308   8.726  17.533  0.00  0.00    +0.000 C 
ATOM     24  C   UNL     1       3.519   7.201  17.437  0.00  0.00    +0.000 C 
ENDROOT
BRANCH   1  25
ATOM     25  C   UNL     1       5.471   4.199  19.277  0.00  0.00    +0.000 C 
BRANCH  25  27
ATOM     26  C   UNL     1       7.397   5.585  19.164  0.00  0.00    +0.000 C 
ATOM     27  O   UNL     1       6.727   4.451  18.628  0.00  0.00    +0.000 OA
ENDBRANCH  25  27
ENDBRANCH   1  25
BRANCH  24  28
ATOM     28  O   UNL     1       4.892   6.922  17.131  0.00  0.00    +0.000 OA
BRANCH  28  29
ATOM     29  C   UNL     1       5.168   6.638  15.832  0.00  0.00    +0.000 C 
ATOM     30  O   UNL     1       4.832   7.336  14.886  0.00  0.00    +0.000 OA
BRANCH  29  31
ATOM     31  C   UNL     1       5.802   5.278  15.706  0.00  0.00    +0.000 C 
ATOM     32  C   UNL     1       5.083   4.556  14.566  0.00  0.00    +0.000 C 
ATOM     33  C   UNL     1       7.288   5.428  15.450  0.00  0.00    +0.000 C 
ENDBRANCH  29  31
ENDBRANCH  28  29
ENDBRANCH  24  28
TORSDOF 5
ENDMDL
MODEL 4
REMARK VINA RESULT:      -6.3      2.375      5.311
REMARK  Name = 
REMARK  10 active torsions:
REMARK  status: ('A' for Active; 'I' for Inactive)
REMARK    1  A    between atoms: C_1  and  O_2
REMARK    2  A    between atoms: O_2  and  C_3
REMARK    3  A    between atoms: C_3  and  C_4
REMARK    4  A    between atoms: C_13  and  C_14
REMARK    5  A    between atoms: C_24  and  C_25
REMARK    6  A    between atoms: C_27  and  O_28
REMARK    7  A    between atoms: O_28  and  C_29
REMARK    8  A    between atoms: C_29  and  C_31
REMARK    9  A    between atoms: C_31  and  C_32
REMARK   10  A    between atoms: C_31  and  C_33
REMARK                            x       y       z     vdW  Elec       q    Type
REMARK                         _______ _______ _______ _____ _____    ______ ____
ROOT
ATOM      1  C   UNL     1       0.835  11.649  18.555  0.00  0.00    +0.000 C 
ATOM      2  O   UNL     1       1.335  10.484  17.750  0.00  0.00    +0.000 OA
ATOM      3  C   UNL     1       1.648   9.276  18.359  0.00  0.00    +0.000 C 
ATOM      4  O   UNL     1       2.267   8.393  17.785  0.00  0.00    +0.000 OA
ATOM      5  C   UNL     1       1.145   9.154  19.713  0.00  0.00    +0.000 A 
ATOM      6  C   UNL     1       1.415   8.281  20.743  0.00  0.00    +0.000 A 
ATOM      7  O   UNL     1       0.772   8.677  21.887  0.00  0.00    +0.000 OA
ATOM      8  C   UNL     1       0.043   9.790  21.555  0.00  0.00    +0.000 A 
ATOM      9  C   UNL     1       0.196  10.048  20.227  0.00  0.00    +0.000 A 
ATOM     10  C   UNL     1      -0.376  11.184  19.467  0.00  0.00    +0.000 C 
ATOM     11  C   UNL     1      -1.474  10.623  18.513  0.00  0.00    +0.000 C 
ATOM     12  C   UNL     1      -1.111  12.140  20.471  0.00  0.00    +0.000 C 
ATOM     13  C   UNL     1      -1.364  11.825  21.794  0.00  0.00    +0.000 C 
ATOM     14  C   UNL     1      -0.710  10.615  22.467  0.00  0.00    +0.000 C 
ATOM     15  O   UNL     1      -0.810  10.432  23.674  0.00  0.00    +0.000 OA
ATOM     16  C   UNL     1      -2.281  12.687  22.659  0.00  0.00    +0.000 C 
ATOM     17  C   UNL     1      -3.164  12.190  23.836  0.00  0.00    +0.000 C 
ATOM     18  C   UNL     1      -4.117  13.375  24.132  0.00  0.00    +0.000 C 
ATOM     19  C   UNL     1      -4.030  14.184  22.863  0.00  0.00    +0.000 C 
ATOM     20  O   UNL     1      -4.468  15.319  22.728  0.00  0.00    +0.000 OA
ATOM     21  C   UNL     1      -3.335  13.401  21.778  0.00  0.00    +0.000 C 
ATOM     22  C   UNL     1      -4.374  12.475  21.106  0.00  0.00    +0.000 C 
ATOM     23  C   UNL     1      -2.611  14.266  20.772  0.00  0.00    +0.000 C 
ATOM     24  C   UNL     1      -1.752  13.388  19.838  0.00  0.00    +0.000 C 
ENDROOT
BRANCH   1  25
ATOM     25  C   UNL     1       2.069  12.258  19.259  0.00  0.00    +0.000 C 
BRANCH  25  27
ATOM     26  C   UNL     1       3.340  14.181  18.682  0.00  0.00    +0.000 C 
ATOM     27  O   UNL     1       2.874  12.904  18.261  0.00  0.00    +0.000 OA
ENDBRANCH  25  27
ENDBRANCH   1  25
BRANCH  24  28
ATOM     28  O   UNL     1      -0.846  14.215  19.096  0.00  0.00    +0.000 OA
BRANCH  28  29
ATOM     29  C   UNL     1      -0.274  15.238  19.783  0.00  0.00    +0.000 C 
ATOM     30  O   UNL     1       0.536  15.096  20.687  0.00  0.00    +0.000 OA
BRANCH  29  31
ATOM     31  C   UNL     1      -0.888  16.556  19.387  0.00  0.00    +0.000 C 
ATOM     32  C   UNL     1      -0.640  17.526  20.541  0.00  0.00    +0.000 C 
ATOM     33  C   UNL     1      -0.277  17.034  18.085  0.00  0.00    +0.000 C 
ENDBRANCH  29  31
ENDBRANCH  28  29
ENDBRANCH  24  28
TORSDOF 5
ENDMDL
MODEL 5
REMARK VINA RESULT:      -6.3      2.040      5.745
REMARK  Name = 
REMARK  10 active torsions:
REMARK  status: ('A' for Active; 'I' for Inactive)
REMARK    1  A    between atoms: C_1  and  O_2
REMARK    2  A    between atoms: O_2  and  C_3
REMARK    3  A    between atoms: C_3  and  C_4
REMARK    4  A    between atoms: C_13  and  C_14
REMARK    5  A    between atoms: C_24  and  C_25
REMARK    6  A    between atoms: C_27  and  O_28
REMARK    7  A    between atoms: O_28  and  C_29
REMARK    8  A    between atoms: C_29  and  C_31
REMARK    9  A    between atoms: C_31  and  C_32
REMARK   10  A    between atoms: C_31  and  C_33
REMARK                            x       y       z     vdW  Elec       q    Type
REMARK                         _______ _______ _______ _____ _____    ______ ____
ROOT
ATOM      1  C   UNL     1      -5.081  14.280  22.496  0.00  0.00    +0.000 C 
ATOM      2  O   UNL     1      -5.281  15.571  23.237  0.00  0.00    +0.000 OA
ATOM      3  C   UNL     1      -4.371  15.993  24.198  0.00  0.00    +0.000 C 
ATOM      4  O   UNL     1      -4.613  16.905  24.974  0.00  0.00    +0.000 OA
ATOM      5  C   UNL     1      -3.112  15.278  24.167  0.00  0.00    +0.000 A 
ATOM      6  C   UNL     1      -2.059  15.185  25.049  0.00  0.00    +0.000 A 
ATOM      7  O   UNL     1      -1.149  14.256  24.614  0.00  0.00    +0.000 OA
ATOM      8  C   UNL     1      -1.615  13.796  23.409  0.00  0.00    +0.000 A 
ATOM      9  C   UNL     1      -2.760  14.457  23.086  0.00  0.00    +0.000 A 
ATOM     10  C   UNL     1      -3.614  14.235  21.896  0.00  0.00    +0.000 C 
ATOM     11  C   UNL     1      -3.467  15.471  20.957  0.00  0.00    +0.000 C 
ATOM     12  C   UNL     1      -3.051  13.007  21.097  0.00  0.00    +0.000 C 
ATOM     13  C   UNL     1      -1.832  12.407  21.358  0.00  0.00    +0.000 C 
ATOM     14  C   UNL     1      -1.040  12.727  22.629  0.00  0.00    +0.000 C 
ATOM     15  O   UNL     1      -0.045  12.080  22.933  0.00  0.00    +0.000 OA
ATOM     16  C   UNL     1      -1.231  11.372  20.410  0.00  0.00    +0.000 C 
ATOM     17  C   UNL     1       0.282  11.116  20.173  0.00  0.00    +0.000 C 
ATOM     18  C   UNL     1       0.330  10.228  18.905  0.00  0.00    +0.000 C 
ATOM     19  C   UNL     1      -1.029  10.462  18.295  0.00  0.00    +0.000 C 
ATOM     20  O   UNL     1      -1.506   9.802  17.381  0.00  0.00    +0.000 OA
ATOM     21  C   UNL     1      -1.719  11.623  18.962  0.00  0.00    +0.000 C 
ATOM     22  C   UNL     1      -1.212  12.929  18.309  0.00  0.00    +0.000 C 
ATOM     23  C   UNL     1      -3.228  11.528  18.943  0.00  0.00    +0.000 C 
ATOM     24  C   UNL     1      -3.842  12.631  19.831  0.00  0.00    +0.000 C 
ENDROOT
BRANCH   1  25
ATOM     25  C   UNL     1      -5.494  13.150  23.465  0.00  0.00    +0.000 C 
BRANCH  25  27
ATOM     26  C   UNL     1      -7.617  12.254  22.886  0.00  0.00    +0.000 C 
ATOM     27  O   UNL     1      -6.916  13.225  23.654  0.00  0.00    +0.000 OA
ENDBRANCH  25  27
ENDBRANCH   1  25
BRANCH  24  28
ATOM     28  O   UNL     1      -5.231  12.356  20.051  0.00  0.00    +0.000 OA
BRANCH  28  29
ATOM     29  C   UNL     1      -6.106  13.052  19.280  0.00  0.00    +0.000 C 
ATOM     30  O   UNL     1      -6.304  14.254  19.374  0.00  0.00    +0.000 OA
BRANCH  29  31
ATOM     31  C   UNL     1      -6.907  12.120  18.409  0.00  0.00    +0.000 C 
ATOM     32  C   UNL     1      -6.357  12.257  16.989  0.00  0.00    +0.000 C 
ATOM     33  C   UNL     1      -6.798  10.704  18.938  0.00  0.00    +0.000 C 
ENDBRANCH  29  31
ENDBRANCH  28  29
ENDBRANCH  24  28
TORSDOF 5
ENDMDL
MODEL 6
REMARK VINA RESULT:      -6.2      2.433      6.683
REMARK  Name = 
REMARK  10 active torsions:
REMARK  status: ('A' for Active; 'I' for Inactive)
REMARK    1  A    between atoms: C_1  and  O_2
REMARK    2  A    between atoms: O_2  and  C_3
REMARK    3  A    between atoms: C_3  and  C_4
REMARK    4  A    between atoms: C_13  and  C_14
REMARK    5  A    between atoms: C_24  and  C_25
REMARK    6  A    between atoms: C_27  and  O_28
REMARK    7  A    between atoms: O_28  and  C_29
REMARK    8  A    between atoms: C_29  and  C_31
REMARK    9  A    between atoms: C_31  and  C_32
REMARK   10  A    between atoms: C_31  and  C_33
REMARK                            x       y       z     vdW  Elec       q    Type
REMARK                         _______ _______ _______ _____ _____    ______ ____
ROOT
ATOM      1  C   UNL     1      -2.510  12.173  22.272  0.00  0.00    +0.000 C 
ATOM      2  O   UNL     1      -3.819  12.084  23.003  0.00  0.00    +0.000 OA
ATOM      3  C   UNL     1      -4.052  12.835  24.147  0.00  0.00    +0.000 C 
ATOM      4  O   UNL     1      -4.999  12.623  24.890  0.00  0.00    +0.000 OA
ATOM      5  C   UNL     1      -3.095  13.903  24.352  0.00  0.00    +0.000 A 
ATOM      6  C   UNL     1      -2.794  14.705  25.431  0.00  0.00    +0.000 A 
ATOM      7  O   UNL     1      -1.697  15.481  25.160  0.00  0.00    +0.000 OA
ATOM      8  C   UNL     1      -1.334  15.198  23.868  0.00  0.00    +0.000 A 
ATOM      9  C   UNL     1      -2.213  14.304  23.339  0.00  0.00    +0.000 A 
ATOM     10  C   UNL     1      -2.162  13.694  21.989  0.00  0.00    +0.000 C 
ATOM     11  C   UNL     1      -3.337  14.281  21.149  0.00  0.00    +0.000 C 
ATOM     12  C   UNL     1      -0.840  14.155  21.280  0.00  0.00    +0.000 C 
ATOM     13  C   UNL     1      -0.006  15.145  21.767  0.00  0.00    +0.000 C 
ATOM     14  C   UNL     1      -0.165  15.698  23.186  0.00  0.00    +0.000 C 
ATOM     15  O   UNL     1       0.669  16.456  23.666  0.00  0.00    +0.000 OA
ATOM     16  C   UNL     1       1.135  15.713  20.927  0.00  0.00    +0.000 C 
ATOM     17  C   UNL     1       1.696  17.159  21.001  0.00  0.00    +0.000 C 
ATOM     18  C   UNL     1       2.584  17.295  19.738  0.00  0.00    +0.000 C 
ATOM     19  C   UNL     1       2.081  16.171  18.868  0.00  0.00    +0.000 C 
ATOM     20  O   UNL     1       2.635  15.776  17.851  0.00  0.00    +0.000 OA
ATOM     21  C   UNL     1       0.799  15.603  19.419  0.00  0.00    +0.000 C 
ATOM     22  C   UNL     1      -0.372  16.488  18.936  0.00  0.00    +0.000 C 
ATOM     23  C   UNL     1       0.584  14.145  19.083  0.00  0.00    +0.000 C 
ATOM     24  C   UNL     1      -0.626  13.591  19.864  0.00  0.00    +0.000 C 
ENDROOT
BRANCH   1  25
ATOM     25  C   UNL     1      -1.494  11.346  23.091  0.00  0.00    +0.000 C 
BRANCH  25  27
ATOM     26  C   UNL     1      -0.436   9.257  22.687  0.00  0.00    +0.000 C 
ATOM     27  O   UNL     1      -0.726  10.552  22.174  0.00  0.00    +0.000 OA
ENDBRANCH  25  27
ENDBRANCH   1  25
BRANCH  24  28
ATOM     28  O   UNL     1      -0.641  12.161  19.780  0.00  0.00    +0.000 OA
BRANCH  28  29
ATOM     29  C   UNL     1      -1.503  11.626  18.876  0.00  0.00    +0.000 C 
ATOM     30  O   UNL     1      -2.528  12.170  18.493  0.00  0.00    +0.000 OA
BRANCH  29  31
ATOM     31  C   UNL     1      -1.106  10.214  18.531  0.00  0.00    +0.000 C 
ATOM     32  C   UNL     1      -1.734   9.895  17.175  0.00  0.00    +0.000 C 
ATOM     33  C   UNL     1       0.405  10.098  18.512  0.00  0.00    +0.000 C 
ENDBRANCH  29  31
ENDBRANCH  28  29
ENDBRANCH  24  28
TORSDOF 5
ENDMDL
MODEL 7
REMARK VINA RESULT:      -6.1      7.603     12.020
REMARK  Name = 
REMARK  10 active torsions:
REMARK  status: ('A' for Active; 'I' for Inactive)
REMARK    1  A    between atoms: C_1  and  O_2
REMARK    2  A    between atoms: O_2  and  C_3
REMARK    3  A    between atoms: C_3  and  C_4
REMARK    4  A    between atoms: C_13  and  C_14
REMARK    5  A    between atoms: C_24  and  C_25
REMARK    6  A    between atoms: C_27  and  O_28
REMARK    7  A    between atoms: O_28  and  C_29
REMARK    8  A    between atoms: C_29  and  C_31
REMARK    9  A    between atoms: C_31  and  C_32
REMARK   10  A    between atoms: C_31  and  C_33
REMARK                            x       y       z     vdW  Elec       q    Type
REMARK                         _______ _______ _______ _____ _____    ______ ____
ROOT
ATOM      1  C   UNL     1       5.823  15.016  23.109  0.00  0.00    +0.000 C 
ATOM      2  O   UNL     1       5.396  14.863  24.541  0.00  0.00    +0.000 OA
ATOM      3  C   UNL     1       5.634  13.684  25.236  0.00  0.00    +0.000 C 
ATOM      4  O   UNL     1       5.106  13.438  26.310  0.00  0.00    +0.000 OA
ATOM      5  C   UNL     1       6.582  12.801  24.586  0.00  0.00    +0.000 A 
ATOM      6  C   UNL     1       6.916  11.478  24.770  0.00  0.00    +0.000 A 
ATOM      7  O   UNL     1       7.786  11.064  23.794  0.00  0.00    +0.000 OA
ATOM      8  C   UNL     1       8.043  12.163  23.015  0.00  0.00    +0.000 A 
ATOM      9  C   UNL     1       7.385  13.240  23.524  0.00  0.00    +0.000 A 
ATOM     10  C   UNL     1       7.349  14.611  22.963  0.00  0.00    +0.000 C 
ATOM     11  C   UNL     1       8.160  15.543  23.913  0.00  0.00    +0.000 C 
ATOM     12  C   UNL     1       8.110  14.611  21.590  0.00  0.00    +0.000 C 
ATOM     13  C   UNL     1       8.871  13.553  21.128  0.00  0.00    +0.000 C 
ATOM     14  C   UNL     1       8.822  12.179  21.801  0.00  0.00    +0.000 C 
ATOM     15  O   UNL     1       9.373  11.208  21.297  0.00  0.00    +0.000 OA
ATOM     16  C   UNL     1       9.772  13.693  19.903  0.00  0.00    +0.000 C 
ATOM     17  C   UNL     1      11.101  12.930  19.652  0.00  0.00    +0.000 C 
ATOM     18  C   UNL     1      11.757  13.675  18.463  0.00  0.00    +0.000 C 
ATOM     19  C   UNL     1      11.036  15.000  18.476  0.00  0.00    +0.000 C 
ATOM     20  O   UNL     1      11.092  15.832  17.581  0.00  0.00    +0.000 OA
ATOM     21  C   UNL     1      10.240  15.161  19.745  0.00  0.00    +0.000 C 
ATOM     22  C   UNL     1      11.188  15.677  20.851  0.00  0.00    +0.000 C 
ATOM     23  C   UNL     1       9.018  16.037  19.591  0.00  0.00    +0.000 C 
ATOM     24  C   UNL     1       8.149  15.968  20.864  0.00  0.00    +0.000 C 
ENDROOT
BRANCH   1  25
ATOM     25  C   UNL     1       4.791  14.240  22.259  0.00  0.00    +0.000 C 
BRANCH  25  27
ATOM     26  C   UNL     1       3.162  15.961  22.075  0.00  0.00    +0.000 C 
ATOM     27  O   UNL     1       3.480  14.691  22.634  0.00  0.00    +0.000 OA
ENDBRANCH  25  27
ENDBRANCH   1  25
BRANCH  24  28
ATOM     28  O   UNL     1       6.864  16.546  20.604  0.00  0.00    +0.000 OA
BRANCH  28  29
ATOM     29  C   UNL     1       6.489  16.603  19.299  0.00  0.00    +0.000 C 
ATOM     30  O   UNL     1       6.682  17.561  18.566  0.00  0.00    +0.000 OA
BRANCH  29  31
ATOM     31  C   UNL     1       5.668  15.395  18.927  0.00  0.00    +0.000 C 
ATOM     32  C   UNL     1       4.296  15.907  18.491  0.00  0.00    +0.000 C 
ATOM     33  C   UNL     1       6.371  14.617  17.832  0.00  0.00    +0.000 C 
ENDBRANCH  29  31
ENDBRANCH  28  29
ENDBRANCH  24  28
TORSDOF 5
ENDMDL
MODEL 8
REMARK VINA RESULT:      -6.1      2.444      5.276
REMARK  Name = 
REMARK  10 active torsions:
REMARK  status: ('A' for Active; 'I' for Inactive)
REMARK    1  A    between atoms: C_1  and  O_2
REMARK    2  A    between atoms: O_2  and  C_3
REMARK    3  A    between atoms: C_3  and  C_4
REMARK    4  A    between atoms: C_13  and  C_14
REMARK    5  A    between atoms: C_24  and  C_25
REMARK    6  A    between atoms: C_27  and  O_28
REMARK    7  A    between atoms: O_28  and  C_29
REMARK    8  A    between atoms: C_29  and  C_31
REMARK    9  A    between atoms: C_31  and  C_32
REMARK   10  A    between atoms: C_31  and  C_33
REMARK                            x       y       z     vdW  Elec       q    Type
REMARK                         _______ _______ _______ _____ _____    ______ ____
ROOT
ATOM      1  C   UNL     1       0.807  11.725  18.539  0.00  0.00    +0.000 C 
ATOM      2  O   UNL     1       1.304  10.580  17.703  0.00  0.00    +0.000 OA
ATOM      3  C   UNL     1       1.621   9.357  18.281  0.00  0.00    +0.000 C 
ATOM      4  O   UNL     1       2.238   8.489  17.681  0.00  0.00    +0.000 OA
ATOM      5  C   UNL     1       1.127   9.203  19.634  0.00  0.00    +0.000 A 
ATOM      6  C   UNL     1       1.404   8.305  20.641  0.00  0.00    +0.000 A 
ATOM      7  O   UNL     1       0.768   8.673  21.799  0.00  0.00    +0.000 OA
ATOM      8  C   UNL     1       0.036   9.793  21.497  0.00  0.00    +0.000 A 
ATOM      9  C   UNL     1       0.181  10.083  20.176  0.00  0.00    +0.000 A 
ATOM     10  C   UNL     1      -0.398  11.236  19.447  0.00  0.00    +0.000 C 
ATOM     11  C   UNL     1      -1.501  10.698  18.486  0.00  0.00    +0.000 C 
ATOM     12  C   UNL     1      -1.127  12.167  20.479  0.00  0.00    +0.000 C 
ATOM     13  C   UNL     1      -1.371  11.820  21.795  0.00  0.00    +0.000 C 
ATOM     14  C   UNL     1      -0.712  10.595  22.434  0.00  0.00    +0.000 C 
ATOM     15  O   UNL     1      -0.804  10.383  23.637  0.00  0.00    +0.000 OA
ATOM     16  C   UNL     1      -2.283  12.660  22.686  0.00  0.00    +0.000 C 
ATOM     17  C   UNL     1      -3.158  12.134  23.856  0.00  0.00    +0.000 C 
ATOM     18  C   UNL     1      -4.110  13.310  24.187  0.00  0.00    +0.000 C 
ATOM     19  C   UNL     1      -4.032  14.150  22.937  0.00  0.00    +0.000 C 
ATOM     20  O   UNL     1      -4.472  15.287  22.833  0.00  0.00    +0.000 OA
ATOM     21  C   UNL     1      -3.344  13.394  21.830  0.00  0.00    +0.000 C 
ATOM     22  C   UNL     1      -4.386  12.483  21.142  0.00  0.00    +0.000 C 
ATOM     23  C   UNL     1      -2.627  14.283  20.840  0.00  0.00    +0.000 C 
ATOM     24  C   UNL     1      -1.773  13.430  19.880  0.00  0.00    +0.000 C 
ENDROOT
BRANCH   1  25
ATOM     25  C   UNL     1       2.045  12.317  19.249  0.00  0.00    +0.000 C 
BRANCH  25  27
ATOM     26  C   UNL     1       3.372  14.060  18.327  0.00  0.00    +0.000 C 
ATOM     27  O   UNL     1       2.998  12.690  18.241  0.00  0.00    +0.000 OA
ENDBRANCH  25  27
ENDBRANCH   1  25
BRANCH  24  28
ATOM     28  O   UNL     1      -0.873  14.275  19.152  0.00  0.00    +0.000 OA
BRANCH  28  29
ATOM     29  C   UNL     1      -0.596  15.479  19.719  0.00  0.00    +0.000 C 
ATOM     30  O   UNL     1      -1.262  16.490  19.553  0.00  0.00    +0.000 OA
BRANCH  29  31
ATOM     31  C   UNL     1       0.722  15.434  20.447  0.00  0.00    +0.000 C 
ATOM     32  C   UNL     1       1.491  16.694  20.050  0.00  0.00    +0.000 C 
ATOM     33  C   UNL     1       0.478  15.351  21.940  0.00  0.00    +0.000 C 
ENDBRANCH  29  31
ENDBRANCH  28  29
ENDBRANCH  24  28
TORSDOF 5
ENDMDL
MODEL 9
REMARK VINA RESULT:      -6.1      2.316      4.850
REMARK  Name = 
REMARK  10 active torsions:
REMARK  status: ('A' for Active; 'I' for Inactive)
REMARK    1  A    between atoms: C_1  and  O_2
REMARK    2  A    between atoms: O_2  and  C_3
REMARK    3  A    between atoms: C_3  and  C_4
REMARK    4  A    between atoms: C_13  and  C_14
REMARK    5  A    between atoms: C_24  and  C_25
REMARK    6  A    between atoms: C_27  and  O_28
REMARK    7  A    between atoms: O_28  and  C_29
REMARK    8  A    between atoms: C_29  and  C_31
REMARK    9  A    between atoms: C_31  and  C_32
REMARK   10  A    between atoms: C_31  and  C_33
REMARK                            x       y       z     vdW  Elec       q    Type
REMARK                         _______ _______ _______ _____ _____    ______ ____
ROOT
ATOM      1  C   UNL     1       0.368  13.894  19.438  0.00  0.00    +0.000 C 
ATOM      2  O   UNL     1       1.531  14.726  18.977  0.00  0.00    +0.000 OA
ATOM      3  C   UNL     1       1.353  16.046  18.580  0.00  0.00    +0.000 C 
ATOM      4  O   UNL     1       2.218  16.674  17.988  0.00  0.00    +0.000 OA
ATOM      5  C   UNL     1       0.072  16.605  18.960  0.00  0.00    +0.000 A 
ATOM      6  C   UNL     1      -0.612  17.738  18.579  0.00  0.00    +0.000 A 
ATOM      7  O   UNL     1      -1.867  17.749  19.132  0.00  0.00    +0.000 OA
ATOM      8  C   UNL     1      -1.952  16.627  19.917  0.00  0.00    +0.000 A 
ATOM      9  C   UNL     1      -0.764  15.964  19.886  0.00  0.00    +0.000 A 
ATOM     10  C   UNL     1      -0.440  14.682  20.553  0.00  0.00    +0.000 C 
ATOM     11  C   UNL     1       0.559  14.978  21.713  0.00  0.00    +0.000 C 
ATOM     12  C   UNL     1      -1.743  14.122  21.225  0.00  0.00    +0.000 C 
ATOM     13  C   UNL     1      -2.916  14.842  21.353  0.00  0.00    +0.000 C 
ATOM     14  C   UNL     1      -3.128  16.165  20.611  0.00  0.00    +0.000 C 
ATOM     15  O   UNL     1      -4.222  16.716  20.602  0.00  0.00    +0.000 OA
ATOM     16  C   UNL     1      -4.072  14.339  22.216  0.00  0.00    +0.000 C 
ATOM     17  C   UNL     1      -5.096  15.221  22.980  0.00  0.00    +0.000 C 
ATOM     18  C   UNL     1      -5.816  14.237  23.936  0.00  0.00    +0.000 C 
ATOM     19  C   UNL     1      -4.859  13.072  23.981  0.00  0.00    +0.000 C 
ATOM     20  O   UNL     1      -5.118  11.976  24.460  0.00  0.00    +0.000 OA
ATOM     21  C   UNL     1      -3.537  13.445  23.361  0.00  0.00    +0.000 C 
ATOM     22  C   UNL     1      -2.688  14.172  24.428  0.00  0.00    +0.000 C 
ATOM     23  C   UNL     1      -2.800  12.275  22.750  0.00  0.00    +0.000 C 
ATOM     24  C   UNL     1      -1.579  12.775  21.951  0.00  0.00    +0.000 C 
ENDROOT
BRANCH   1  25
ATOM     25  C   UNL     1      -0.397  13.468  18.165  0.00  0.00    +0.000 C 
BRANCH  25  27
ATOM     26  C   UNL     1      -1.888  11.658  17.780  0.00  0.00    +0.000 C 
ATOM     27  O   UNL     1      -0.592  12.046  18.220  0.00  0.00    +0.000 OA
ENDBRANCH  25  27
ENDBRANCH   1  25
BRANCH  24  28
ATOM     28  O   UNL     1      -1.067  11.713  21.136  0.00  0.00    +0.000 OA
BRANCH  28  29
ATOM     29  C   UNL     1       0.028  11.067  21.616  0.00  0.00    +0.000 C 
ATOM     30  O   UNL     1       1.156  11.536  21.626  0.00  0.00    +0.000 OA
BRANCH  29  31
ATOM     31  C   UNL     1      -0.311   9.646  21.985  0.00  0.00    +0.000 C 
ATOM     32  C   UNL     1       0.632   8.744  21.190  0.00  0.00    +0.000 C 
ATOM     33  C   UNL     1      -0.165   9.459  23.482  0.00  0.00    +0.000 C 
ENDBRANCH  29  31
ENDBRANCH  28  29
ENDBRANCH  24  28
TORSDOF 5
ENDMDL
