MODEL 1
REMARK VINA RESULT:      -7.6      0.000      0.000
REMARK  Name = 
REMARK  7 active torsions:
REMARK  status: ('A' for Active; 'I' for Inactive)
REMARK    1  A    between atoms: C_1  and  C_2
REMARK    2  A    between atoms: C_2  and  S_3
REMARK    3  A    between atoms: S_3  and  C_4
REMARK    4  A    between atoms: N_14  and  C_15
REMARK    5  A    between atoms: C_16  and  C_17
REMARK    6  A    between atoms: N_18  and  C_19
REMARK    7  A    between atoms: N_20  and  C_21
REMARK                            x       y       z     vdW  Elec       q    Type
REMARK                         _______ _______ _______ _____ _____    ______ ____
ROOT
ATOM      1  C   UNL     1       7.016   5.770  16.464  0.00  0.00    +0.000 A 
ATOM      2  N   UNL     1       7.764   5.744  15.404  0.00  0.00    +0.000 NA
ATOM      3  C   UNL     1       7.273   5.066  14.258  0.00  0.00    +0.000 A 
ATOM      4  C   UNL     1       7.967   5.115  13.041  0.00  0.00    +0.000 A 
ATOM      5  C   UNL     1       7.483   4.466  11.898  0.00  0.00    +0.000 A 
ATOM      6  C   UNL     1       6.291   3.747  11.939  0.00  0.00    +0.000 A 
ATOM      7  C   UNL     1       5.575   3.696  13.126  0.00  0.00    +0.000 A 
ATOM      8  C   UNL     1       6.076   4.354  14.263  0.00  0.00    +0.000 A 
ATOM      9  C   UNL     1       5.297   4.345  15.492  0.00  0.00    +0.000 A 
ATOM     10  O   UNL     1       4.277   3.654  15.542  0.00  0.00    +0.000 OA
ATOM     11  N   UNL     1       5.770   5.140  16.531  0.00  0.00    +0.000 N 
ENDROOT
BRANCH  11  12
ATOM     12  C   UNL     1       4.878   5.311  17.558  0.00  0.00    +0.000 A 
ATOM     13  C   UNL     1       3.997   6.314  17.706  0.00  0.00    +0.000 A 
ATOM     14  C   UNL     1       4.058   7.614  16.971  0.00  0.00    +0.000 C 
ATOM     15  N   UNL     1       3.021   6.004  18.650  0.00  0.00    +0.000 N 
ATOM     16  C   UNL     1       2.266   6.981  19.416  0.00  0.00    +0.000 C 
ATOM     17  N   UNL     1       3.471   4.829  19.306  0.00  0.00    +0.000 N 
ATOM     18  C   UNL     1       4.541   4.283  18.573  0.00  0.00    +0.000 A 
ATOM     19  O   UNL     1       5.094   3.199  18.671  0.00  0.00    +0.000 OA
BRANCH  17  20
ATOM     20  C   UNL     1       2.675   4.045  20.155  0.00  0.00    +0.000 A 
ATOM     21  C   UNL     1       1.551   3.426  19.595  0.00  0.00    +0.000 A 
ATOM     22  C   UNL     1       0.708   2.633  20.377  0.00  0.00    +0.000 A 
ATOM     23  C   UNL     1       0.975   2.488  21.734  0.00  0.00    +0.000 A 
ATOM     24  C   UNL     1       2.083   3.116  22.306  0.00  0.00    +0.000 A 
ATOM     25  C   UNL     1       2.950   3.877  21.516  0.00  0.00    +0.000 A 
ENDBRANCH  17  20
ENDBRANCH  11  12
BRANCH   1  26
ATOM     26  S   UNL     1       7.442   6.703  17.898  0.00  0.00    +0.000 S 
BRANCH  26  28
ATOM     27  C   UNL     1       8.531   9.194  18.473  0.00  0.00    +0.000 C 
ATOM     28  C   UNL     1       7.759   8.408  17.430  0.00  0.00    +0.000 C 
ENDBRANCH  26  28
ENDBRANCH   1  26
TORSDOF 4
ENDMDL
MODEL 2
REMARK VINA RESULT:      -7.3      1.434      3.105
REMARK  Name = 
REMARK  7 active torsions:
REMARK  status: ('A' for Active; 'I' for Inactive)
REMARK    1  A    between atoms: C_1  and  C_2
REMARK    2  A    between atoms: C_2  and  S_3
REMARK    3  A    between atoms: S_3  and  C_4
REMARK    4  A    between atoms: N_14  and  C_15
REMARK    5  A    between atoms: C_16  and  C_17
REMARK    6  A    between atoms: N_18  and  C_19
REMARK    7  A    between atoms: N_20  and  C_21
REMARK                            x       y       z     vdW  Elec       q    Type
REMARK                         _______ _______ _______ _____ _____    ______ ____
ROOT
ATOM      1  C   UNL     1       6.655   5.938  16.628  0.00  0.00    +0.000 A 
ATOM      2  N   UNL     1       7.472   5.872  15.622  0.00  0.00    +0.000 NA
ATOM      3  C   UNL     1       7.075   5.114  14.490  0.00  0.00    +0.000 A 
ATOM      4  C   UNL     1       7.848   5.111  13.320  0.00  0.00    +0.000 A 
ATOM      5  C   UNL     1       7.457   4.382  12.189  0.00  0.00    +0.000 A 
ATOM      6  C   UNL     1       6.284   3.633  12.196  0.00  0.00    +0.000 A 
ATOM      7  C   UNL     1       5.492   3.631  13.335  0.00  0.00    +0.000 A 
ATOM      8  C   UNL     1       5.900   4.369  14.460  0.00  0.00    +0.000 A 
ATOM      9  C   UNL     1       5.041   4.410  15.634  0.00  0.00    +0.000 A 
ATOM     10  O   UNL     1       4.038   3.693  15.660  0.00  0.00    +0.000 OA
ATOM     11  N   UNL     1       5.424   5.278  16.652  0.00  0.00    +0.000 N 
ENDROOT
BRANCH  11  12
ATOM     12  C   UNL     1       4.461   5.482  17.606  0.00  0.00    +0.000 A 
ATOM     13  C   UNL     1       4.312   4.812  18.761  0.00  0.00    +0.000 A 
ATOM     14  C   UNL     1       4.944   3.492  19.066  0.00  0.00    +0.000 C 
ATOM     15  N   UNL     1       3.473   5.490  19.641  0.00  0.00    +0.000 N 
ATOM     16  C   UNL     1       2.700   4.863  20.701  0.00  0.00    +0.000 C 
ATOM     17  N   UNL     1       2.869   6.528  18.886  0.00  0.00    +0.000 N 
ATOM     18  C   UNL     1       3.552   6.653  17.662  0.00  0.00    +0.000 A 
ATOM     19  O   UNL     1       3.490   7.522  16.808  0.00  0.00    +0.000 OA
BRANCH  17  20
ATOM     20  C   UNL     1       2.144   7.591  19.445  0.00  0.00    +0.000 A 
ATOM     21  C   UNL     1       1.801   8.653  18.598  0.00  0.00    +0.000 A 
ATOM     22  C   UNL     1       1.082   9.748  19.081  0.00  0.00    +0.000 A 
ATOM     23  C   UNL     1       0.737   9.797  20.427  0.00  0.00    +0.000 A 
ATOM     24  C   UNL     1       1.090   8.753  21.284  0.00  0.00    +0.000 A 
ATOM     25  C   UNL     1       1.774   7.637  20.792  0.00  0.00    +0.000 A 
ENDBRANCH  17  20
ENDBRANCH  11  12
BRANCH   1  26
ATOM     26  S   UNL     1       6.961   6.966  18.028  0.00  0.00    +0.000 S 
BRANCH  26  28
ATOM     27  C   UNL     1       8.584   9.154  18.574  0.00  0.00    +0.000 C 
ATOM     28  C   UNL     1       7.759   8.484  17.491  0.00  0.00    +0.000 C 
ENDBRANCH  26  28
ENDBRANCH   1  26
TORSDOF 4
ENDMDL
MODEL 3
REMARK VINA RESULT:      -6.9      0.852      1.044
REMARK  Name = 
REMARK  7 active torsions:
REMARK  status: ('A' for Active; 'I' for Inactive)
REMARK    1  A    between atoms: C_1  and  C_2
REMARK    2  A    between atoms: C_2  and  S_3
REMARK    3  A    between atoms: S_3  and  C_4
REMARK    4  A    between atoms: N_14  and  C_15
REMARK    5  A    between atoms: C_16  and  C_17
REMARK    6  A    between atoms: N_18  and  C_19
REMARK    7  A    between atoms: N_20  and  C_21
REMARK                            x       y       z     vdW  Elec       q    Type
REMARK                         _______ _______ _______ _____ _____    ______ ____
ROOT
ATOM      1  C   UNL     1       6.915   5.917  16.261  0.00  0.00    +0.000 A 
ATOM      2  N   UNL     1       7.653   5.872  15.195  0.00  0.00    +0.000 NA
ATOM      3  C   UNL     1       7.200   5.086  14.103  0.00  0.00    +0.000 A 
ATOM      4  C   UNL     1       7.877   5.101  12.876  0.00  0.00    +0.000 A 
ATOM      5  C   UNL     1       7.430   4.343  11.786  0.00  0.00    +0.000 A 
ATOM      6  C   UNL     1       6.292   3.547  11.892  0.00  0.00    +0.000 A 
ATOM      7  C   UNL     1       5.593   3.527  13.090  0.00  0.00    +0.000 A 
ATOM      8  C   UNL     1       6.057   4.293  14.173  0.00  0.00    +0.000 A 
ATOM      9  C   UNL     1       5.293   4.313  15.411  0.00  0.00    +0.000 A 
ATOM     10  O   UNL     1       4.325   3.556  15.522  0.00  0.00    +0.000 OA
ATOM     11  N   UNL     1       5.718   5.208  16.388  0.00  0.00    +0.000 N 
ENDROOT
BRANCH  11  12
ATOM     12  C   UNL     1       4.826   5.384  17.414  0.00  0.00    +0.000 A 
ATOM     13  C   UNL     1       3.931   6.377  17.545  0.00  0.00    +0.000 A 
ATOM     14  C   UNL     1       3.971   7.664  16.787  0.00  0.00    +0.000 C 
ATOM     15  N   UNL     1       2.962   6.070  18.497  0.00  0.00    +0.000 N 
ATOM     16  C   UNL     1       2.194   7.050  19.248  0.00  0.00    +0.000 C 
ATOM     17  N   UNL     1       3.430   4.914  19.173  0.00  0.00    +0.000 N 
ATOM     18  C   UNL     1       4.507   4.370  18.448  0.00  0.00    +0.000 A 
ATOM     19  O   UNL     1       5.075   3.296  18.564  0.00  0.00    +0.000 OA
BRANCH  17  20
ATOM     20  C   UNL     1       2.648   4.134  20.039  0.00  0.00    +0.000 A 
ATOM     21  C   UNL     1       1.508   3.522  19.503  0.00  0.00    +0.000 A 
ATOM     22  C   UNL     1       0.678   2.733  20.302  0.00  0.00    +0.000 A 
ATOM     23  C   UNL     1       0.972   2.586  21.653  0.00  0.00    +0.000 A 
ATOM     24  C   UNL     1       2.096   3.207  22.202  0.00  0.00    +0.000 A 
ATOM     25  C   UNL     1       2.950   3.963  21.394  0.00  0.00    +0.000 A 
ENDBRANCH  17  20
ENDBRANCH  11  12
BRANCH   1  26
ATOM     26  S   UNL     1       7.287   6.973  17.624  0.00  0.00    +0.000 S 
BRANCH  26  28
ATOM     27  C   UNL     1       8.316   4.599  18.635  0.00  0.00    +0.000 C 
ATOM     28  C   UNL     1       7.819   5.979  19.022  0.00  0.00    +0.000 C 
ENDBRANCH  26  28
ENDBRANCH   1  26
TORSDOF 4
ENDMDL
MODEL 4
REMARK VINA RESULT:      -6.9      1.711      3.374
REMARK  Name = 
REMARK  7 active torsions:
REMARK  status: ('A' for Active; 'I' for Inactive)
REMARK    1  A    between atoms: C_1  and  C_2
REMARK    2  A    between atoms: C_2  and  S_3
REMARK    3  A    between atoms: S_3  and  C_4
REMARK    4  A    between atoms: N_14  and  C_15
REMARK    5  A    between atoms: C_16  and  C_17
REMARK    6  A    between atoms: N_18  and  C_19
REMARK    7  A    between atoms: N_20  and  C_21
REMARK                            x       y       z     vdW  Elec       q    Type
REMARK                         _______ _______ _______ _____ _____    ______ ____
ROOT
ATOM      1  C   UNL     1       6.536   5.992  16.502  0.00  0.00    +0.000 A 
ATOM      2  N   UNL     1       7.350   5.869  15.499  0.00  0.00    +0.000 NA
ATOM      3  C   UNL     1       6.954   5.041  14.416  0.00  0.00    +0.000 A 
ATOM      4  C   UNL     1       7.722   4.972  13.245  0.00  0.00    +0.000 A 
ATOM      5  C   UNL     1       7.332   4.172  12.163  0.00  0.00    +0.000 A 
ATOM      6  C   UNL     1       6.164   3.417  12.220  0.00  0.00    +0.000 A 
ATOM      7  C   UNL     1       5.376   3.480  13.361  0.00  0.00    +0.000 A 
ATOM      8  C   UNL     1       5.783   4.288  14.436  0.00  0.00    +0.000 A 
ATOM      9  C   UNL     1       4.929   4.395  15.609  0.00  0.00    +0.000 A 
ATOM     10  O   UNL     1       3.930   3.674  15.683  0.00  0.00    +0.000 OA
ATOM     11  N   UNL     1       5.309   5.326  16.571  0.00  0.00    +0.000 N 
ENDROOT
BRANCH  11  12
ATOM     12  C   UNL     1       4.348   5.582  17.515  0.00  0.00    +0.000 A 
ATOM     13  C   UNL     1       4.174   4.944  18.684  0.00  0.00    +0.000 A 
ATOM     14  C   UNL     1       4.765   3.614  19.024  0.00  0.00    +0.000 C 
ATOM     15  N   UNL     1       3.351   5.668  19.544  0.00  0.00    +0.000 N 
ATOM     16  C   UNL     1       2.555   5.090  20.614  0.00  0.00    +0.000 C 
ATOM     17  N   UNL     1       2.783   6.705  18.761  0.00  0.00    +0.000 N 
ATOM     18  C   UNL     1       3.475   6.780  17.538  0.00  0.00    +0.000 A 
ATOM     19  O   UNL     1       3.442   7.630  16.662  0.00  0.00    +0.000 OA
BRANCH  17  20
ATOM     20  C   UNL     1       2.087   7.803  19.290  0.00  0.00    +0.000 A 
ATOM     21  C   UNL     1       1.758   7.763  20.650  0.00  0.00    +0.000 A 
ATOM     22  C   UNL     1       1.063   8.817  21.248  0.00  0.00    +0.000 A 
ATOM     23  C   UNL     1       0.667   9.900  20.471  0.00  0.00    +0.000 A 
ATOM     24  C   UNL     1       0.974   9.941  19.110  0.00  0.00    +0.000 A 
ATOM     25  C   UNL     1       1.705   8.906  18.520  0.00  0.00    +0.000 A 
ENDBRANCH  17  20
ENDBRANCH  11  12
BRANCH   1  26
ATOM     26  S   UNL     1       6.839   7.105  17.835  0.00  0.00    +0.000 S 
BRANCH  26  28
ATOM     27  C   UNL     1       7.781   5.467  19.872  0.00  0.00    +0.000 C 
ATOM     28  C   UNL     1       8.201   6.488  18.831  0.00  0.00    +0.000 C 
ENDBRANCH  26  28
ENDBRANCH   1  26
TORSDOF 4
ENDMDL
MODEL 5
REMARK VINA RESULT:      -6.7     11.586     14.325
REMARK  Name = 
REMARK  7 active torsions:
REMARK  status: ('A' for Active; 'I' for Inactive)
REMARK    1  A    between atoms: C_1  and  C_2
REMARK    2  A    between atoms: C_2  and  S_3
REMARK    3  A    between atoms: S_3  and  C_4
REMARK    4  A    between atoms: N_14  and  C_15
REMARK    5  A    between atoms: C_16  and  C_17
REMARK    6  A    between atoms: N_18  and  C_19
REMARK    7  A    between atoms: N_20  and  C_21
REMARK                            x       y       z     vdW  Elec       q    Type
REMARK                         _______ _______ _______ _____ _____    ______ ____
ROOT
ATOM      1  C   UNL     1      -6.060  12.863  17.971  0.00  0.00    +0.000 A 
ATOM      2  N   UNL     1      -5.643  12.216  16.927  0.00  0.00    +0.000 NA
ATOM      3  C   UNL     1      -4.423  11.498  17.031  0.00  0.00    +0.000 A 
ATOM      4  C   UNL     1      -3.984  10.670  15.988  0.00  0.00    +0.000 A 
ATOM      5  C   UNL     1      -2.791   9.942  16.087  0.00  0.00    +0.000 A 
ATOM      6  C   UNL     1      -2.001  10.022  17.230  0.00  0.00    +0.000 A 
ATOM      7  C   UNL     1      -2.420  10.822  18.285  0.00  0.00    +0.000 A 
ATOM      8  C   UNL     1      -3.620  11.544  18.168  0.00  0.00    +0.000 A 
ATOM      9  C   UNL     1      -4.085  12.339  19.294  0.00  0.00    +0.000 A 
ATOM     10  O   UNL     1      -3.350  12.459  20.278  0.00  0.00    +0.000 OA
ATOM     11  N   UNL     1      -5.350  12.904  19.174  0.00  0.00    +0.000 N 
ENDROOT
BRANCH  11  12
ATOM     12  C   UNL     1      -5.852  13.411  20.345  0.00  0.00    +0.000 A 
ATOM     13  C   UNL     1      -6.540  12.744  21.286  0.00  0.00    +0.000 A 
ATOM     14  C   UNL     1      -7.191  11.414  21.081  0.00  0.00    +0.000 C 
ATOM     15  N   UNL     1      -6.591  13.454  22.483  0.00  0.00    +0.000 N 
ATOM     16  C   UNL     1      -7.628  13.309  23.491  0.00  0.00    +0.000 C 
ATOM     17  N   UNL     1      -6.112  14.756  22.186  0.00  0.00    +0.000 N 
ATOM     18  C   UNL     1      -5.512  14.738  20.913  0.00  0.00    +0.000 A 
ATOM     19  O   UNL     1      -4.820  15.574  20.354  0.00  0.00    +0.000 OA
BRANCH  17  20
ATOM     20  C   UNL     1      -5.772  15.712  23.155  0.00  0.00    +0.000 A 
ATOM     21  C   UNL     1      -6.533  16.887  23.196  0.00  0.00    +0.000 A 
ATOM     22  C   UNL     1      -6.253  17.887  24.130  0.00  0.00    +0.000 A 
ATOM     23  C   UNL     1      -5.183  17.723  25.004  0.00  0.00    +0.000 A 
ATOM     24  C   UNL     1      -4.407  16.564  24.959  0.00  0.00    +0.000 A 
ATOM     25  C   UNL     1      -4.712  15.545  24.051  0.00  0.00    +0.000 A 
ENDBRANCH  17  20
ENDBRANCH  11  12
BRANCH   1  26
ATOM     26  S   UNL     1      -7.630  13.666  18.020  0.00  0.00    +0.000 S 
BRANCH  26  28
ATOM     27  C   UNL     1      -6.786  16.258  17.482  0.00  0.00    +0.000 C 
ATOM     28  C   UNL     1      -7.601  15.100  16.938  0.00  0.00    +0.000 C 
ENDBRANCH  26  28
ENDBRANCH   1  26
TORSDOF 4
ENDMDL
MODEL 6
REMARK VINA RESULT:      -6.3     10.867     14.581
REMARK  Name = 
REMARK  7 active torsions:
REMARK  status: ('A' for Active; 'I' for Inactive)
REMARK    1  A    between atoms: C_1  and  C_2
REMARK    2  A    between atoms: C_2  and  S_3
REMARK    3  A    between atoms: S_3  and  C_4
REMARK    4  A    between atoms: N_14  and  C_15
REMARK    5  A    between atoms: C_16  and  C_17
REMARK    6  A    between atoms: N_18  and  C_19
REMARK    7  A    between atoms: N_20  and  C_21
REMARK                            x       y       z     vdW  Elec       q    Type
REMARK                         _______ _______ _______ _____ _____    ______ ____
ROOT
ATOM      1  C   UNL     1      -5.325  15.104  21.304  0.00  0.00    +0.000 A 
ATOM      2  N   UNL     1      -5.059  16.114  22.075  0.00  0.00    +0.000 NA
ATOM      3  C   UNL     1      -4.302  15.873  23.251  0.00  0.00    +0.000 A 
ATOM      4  C   UNL     1      -3.864  16.935  24.054  0.00  0.00    +0.000 A 
ATOM      5  C   UNL     1      -3.101  16.712  25.208  0.00  0.00    +0.000 A 
ATOM      6  C   UNL     1      -2.754  15.419  25.592  0.00  0.00    +0.000 A 
ATOM      7  C   UNL     1      -3.160  14.350  24.806  0.00  0.00    +0.000 A 
ATOM      8  C   UNL     1      -3.925  14.594  23.653  0.00  0.00    +0.000 A 
ATOM      9  C   UNL     1      -4.304  13.477  22.800  0.00  0.00    +0.000 A 
ATOM     10  O   UNL     1      -4.052  12.331  23.179  0.00  0.00    +0.000 OA
ATOM     11  N   UNL     1      -4.925  13.798  21.597  0.00  0.00    +0.000 N 
ENDROOT
BRANCH  11  12
ATOM     12  C   UNL     1      -5.020  12.750  20.718  0.00  0.00    +0.000 A 
ATOM     13  C   UNL     1      -6.131  12.071  20.387  0.00  0.00    +0.000 A 
ATOM     14  C   UNL     1      -7.405  12.092  21.167  0.00  0.00    +0.000 C 
ATOM     15  N   UNL     1      -5.945  11.320  19.228  0.00  0.00    +0.000 N 
ATOM     16  C   UNL     1      -6.694  10.123  18.886  0.00  0.00    +0.000 C 
ATOM     17  N   UNL     1      -4.551  11.346  18.965  0.00  0.00    +0.000 N 
ATOM     18  C   UNL     1      -3.956  12.332  19.774  0.00  0.00    +0.000 A 
ATOM     19  O   UNL     1      -2.833  12.810  19.739  0.00  0.00    +0.000 OA
BRANCH  17  20
ATOM     20  C   UNL     1      -3.967  10.920  17.762  0.00  0.00    +0.000 A 
ATOM     21  C   UNL     1      -4.437  11.499  16.576  0.00  0.00    +0.000 A 
ATOM     22  C   UNL     1      -3.908  11.124  15.340  0.00  0.00    +0.000 A 
ATOM     23  C   UNL     1      -2.927  10.138  15.288  0.00  0.00    +0.000 A 
ATOM     24  C   UNL     1      -2.466   9.542  16.463  0.00  0.00    +0.000 A 
ATOM     25  C   UNL     1      -2.966   9.946  17.704  0.00  0.00    +0.000 A 
ENDBRANCH  17  20
ENDBRANCH  11  12
BRANCH   1  26
ATOM     26  S   UNL     1      -6.123  15.292  19.743  0.00  0.00    +0.000 S 
BRANCH  26  28
ATOM     27  C   UNL     1      -6.393  17.404  17.959  0.00  0.00    +0.000 C 
ATOM     28  C   UNL     1      -6.421  17.035  19.430  0.00  0.00    +0.000 C 
ENDBRANCH  26  28
ENDBRANCH   1  26
TORSDOF 4
ENDMDL
MODEL 7
REMARK VINA RESULT:      -6.2      7.487     11.199
REMARK  Name = 
REMARK  7 active torsions:
REMARK  status: ('A' for Active; 'I' for Inactive)
REMARK    1  A    between atoms: C_1  and  C_2
REMARK    2  A    between atoms: C_2  and  S_3
REMARK    3  A    between atoms: S_3  and  C_4
REMARK    4  A    between atoms: N_14  and  C_15
REMARK    5  A    between atoms: C_16  and  C_17
REMARK    6  A    between atoms: N_18  and  C_19
REMARK    7  A    between atoms: N_20  and  C_21
REMARK                            x       y       z     vdW  Elec       q    Type
REMARK                         _______ _______ _______ _____ _____    ______ ____
ROOT
ATOM      1  C   UNL     1      -2.636  12.358  21.485  0.00  0.00    +0.000 A 
ATOM      2  N   UNL     1      -3.806  12.560  22.008  0.00  0.00    +0.000 NA
ATOM      3  C   UNL     1      -4.935  12.532  21.147  0.00  0.00    +0.000 A 
ATOM      4  C   UNL     1      -6.236  12.607  21.664  0.00  0.00    +0.000 A 
ATOM      5  C   UNL     1      -7.358  12.563  20.827  0.00  0.00    +0.000 A 
ATOM      6  C   UNL     1      -7.212  12.444  19.447  0.00  0.00    +0.000 A 
ATOM      7  C   UNL     1      -5.936  12.350  18.910  0.00  0.00    +0.000 A 
ATOM      8  C   UNL     1      -4.822  12.397  19.766  0.00  0.00    +0.000 A 
ATOM      9  C   UNL     1      -3.488  12.244  19.206  0.00  0.00    +0.000 A 
ATOM     10  O   UNL     1      -3.360  12.206  17.980  0.00  0.00    +0.000 OA
ATOM     11  N   UNL     1      -2.441  12.144  20.118  0.00  0.00    +0.000 N 
ENDROOT
BRANCH  11  12
ATOM     12  C   UNL     1      -1.253  11.738  19.565  0.00  0.00    +0.000 A 
ATOM     13  C   UNL     1      -0.153  12.485  19.376  0.00  0.00    +0.000 A 
ATOM     14  C   UNL     1      -0.124  13.979  19.405  0.00  0.00    +0.000 C 
ATOM     15  N   UNL     1       0.966  11.694  19.127  0.00  0.00    +0.000 N 
ATOM     16  C   UNL     1       2.143  12.128  18.393  0.00  0.00    +0.000 C 
ATOM     17  N   UNL     1       0.475  10.382  18.905  0.00  0.00    +0.000 N 
ATOM     18  C   UNL     1      -0.874  10.329  19.304  0.00  0.00    +0.000 A 
ATOM     19  O   UNL     1      -1.615   9.371  19.459  0.00  0.00    +0.000 OA
BRANCH  17  20
ATOM     20  C   UNL     1       1.282   9.234  18.860  0.00  0.00    +0.000 A 
ATOM     21  C   UNL     1       1.410   8.489  20.039  0.00  0.00    +0.000 A 
ATOM     22  C   UNL     1       2.198   7.336  20.073  0.00  0.00    +0.000 A 
ATOM     23  C   UNL     1       2.889   6.949  18.930  0.00  0.00    +0.000 A 
ATOM     24  C   UNL     1       2.783   7.695  17.755  0.00  0.00    +0.000 A 
ATOM     25  C   UNL     1       1.962   8.826  17.709  0.00  0.00    +0.000 A 
ENDBRANCH  17  20
ENDBRANCH  11  12
BRANCH   1  26
ATOM     26  S   UNL     1      -1.176  12.216  22.463  0.00  0.00    +0.000 S 
BRANCH  26  28
ATOM     27  C   UNL     1       0.164   9.830  22.944  0.00  0.00    +0.000 C 
ATOM     28  C   UNL     1      -1.121  10.588  23.221  0.00  0.00    +0.000 C 
ENDBRANCH  26  28
ENDBRANCH   1  26
TORSDOF 4
ENDMDL
MODEL 8
REMARK VINA RESULT:      -6.2     11.054     14.767
REMARK  Name = 
REMARK  7 active torsions:
REMARK  status: ('A' for Active; 'I' for Inactive)
REMARK    1  A    between atoms: C_1  and  C_2
REMARK    2  A    between atoms: C_2  and  S_3
REMARK    3  A    between atoms: S_3  and  C_4
REMARK    4  A    between atoms: N_14  and  C_15
REMARK    5  A    between atoms: C_16  and  C_17
REMARK    6  A    between atoms: N_18  and  C_19
REMARK    7  A    between atoms: N_20  and  C_21
REMARK                            x       y       z     vdW  Elec       q    Type
REMARK                         _______ _______ _______ _____ _____    ______ ____
ROOT
ATOM      1  C   UNL     1      -4.418  14.004  23.079  0.00  0.00    +0.000 A 
ATOM      2  N   UNL     1      -4.518  14.977  23.932  0.00  0.00    +0.000 NA
ATOM      3  C   UNL     1      -5.181  16.162  23.515  0.00  0.00    +0.000 A 
ATOM      4  C   UNL     1      -5.443  17.196  24.425  0.00  0.00    +0.000 A 
ATOM      5  C   UNL     1      -6.112  18.362  24.031  0.00  0.00    +0.000 A 
ATOM      6  C   UNL     1      -6.538  18.528  22.715  0.00  0.00    +0.000 A 
ATOM      7  C   UNL     1      -6.307  17.512  21.799  0.00  0.00    +0.000 A 
ATOM      8  C   UNL     1      -5.633  16.350  22.212  0.00  0.00    +0.000 A 
ATOM      9  C   UNL     1      -5.440  15.264  21.264  0.00  0.00    +0.000 A 
ATOM     10  O   UNL     1      -5.759  15.442  20.086  0.00  0.00    +0.000 OA
ATOM     11  N   UNL     1      -4.907  14.084  21.773  0.00  0.00    +0.000 N 
ENDROOT
BRANCH  11  12
ATOM     12  C   UNL     1      -4.990  13.015  20.917  0.00  0.00    +0.000 A 
ATOM     13  C   UNL     1      -6.085  12.291  20.633  0.00  0.00    +0.000 A 
ATOM     14  C   UNL     1      -7.336  12.283  21.452  0.00  0.00    +0.000 C 
ATOM     15  N   UNL     1      -5.907  11.524  19.485  0.00  0.00    +0.000 N 
ATOM     16  C   UNL     1      -6.623  10.294  19.188  0.00  0.00    +0.000 C 
ATOM     17  N   UNL     1      -4.524  11.594  19.178  0.00  0.00    +0.000 N 
ATOM     18  C   UNL     1      -3.940  12.616  19.949  0.00  0.00    +0.000 A 
ATOM     19  O   UNL     1      -2.837  13.133  19.871  0.00  0.00    +0.000 OA
BRANCH  17  20
ATOM     20  C   UNL     1      -3.961  11.164  17.966  0.00  0.00    +0.000 A 
ATOM     21  C   UNL     1      -2.857  10.306  18.037  0.00  0.00    +0.000 A 
ATOM     22  C   UNL     1      -2.240   9.838  16.875  0.00  0.00    +0.000 A 
ATOM     23  C   UNL     1      -2.712  10.259  15.636  0.00  0.00    +0.000 A 
ATOM     24  C   UNL     1      -3.801  11.129  15.555  0.00  0.00    +0.000 A 
ATOM     25  C   UNL     1      -4.444  11.565  16.717  0.00  0.00    +0.000 A 
ENDBRANCH  17  20
ENDBRANCH  11  12
BRANCH   1  26
ATOM     26  S   UNL     1      -3.755  12.429  23.517  0.00  0.00    +0.000 S 
BRANCH  26  28
ATOM     27  C   UNL     1      -1.278  13.680  23.399  0.00  0.00    +0.000 C 
ATOM     28  C   UNL     1      -2.007  12.382  23.108  0.00  0.00    +0.000 C 
ENDBRANCH  26  28
ENDBRANCH   1  26
TORSDOF 4
ENDMDL
MODEL 9
REMARK VINA RESULT:      -6.1      8.026     11.622
REMARK  Name = 
REMARK  7 active torsions:
REMARK  status: ('A' for Active; 'I' for Inactive)
REMARK    1  A    between atoms: C_1  and  C_2
REMARK    2  A    between atoms: C_2  and  S_3
REMARK    3  A    between atoms: S_3  and  C_4
REMARK    4  A    between atoms: N_14  and  C_15
REMARK    5  A    between atoms: C_16  and  C_17
REMARK    6  A    between atoms: N_18  and  C_19
REMARK    7  A    between atoms: N_20  and  C_21
REMARK                            x       y       z     vdW  Elec       q    Type
REMARK                         _______ _______ _______ _____ _____    ______ ____
ROOT
ATOM      1  C   UNL     1      -0.207  14.890  20.878  0.00  0.00    +0.000 A 
ATOM      2  N   UNL     1      -0.036  15.988  21.548  0.00  0.00    +0.000 NA
ATOM      3  C   UNL     1      -0.418  16.001  22.916  0.00  0.00    +0.000 A 
ATOM      4  C   UNL     1      -0.136  17.106  23.730  0.00  0.00    +0.000 A 
ATOM      5  C   UNL     1      -0.492  17.124  25.086  0.00  0.00    +0.000 A 
ATOM      6  C   UNL     1      -1.140  16.037  25.665  0.00  0.00    +0.000 A 
ATOM      7  C   UNL     1      -1.416  14.922  24.885  0.00  0.00    +0.000 A 
ATOM      8  C   UNL     1      -1.052  14.923  23.528  0.00  0.00    +0.000 A 
ATOM      9  C   UNL     1      -1.293  13.733  22.726  0.00  0.00    +0.000 A 
ATOM     10  O   UNL     1      -1.926  12.800  23.225  0.00  0.00    +0.000 OA
ATOM     11  N   UNL     1      -0.772  13.740  21.435  0.00  0.00    +0.000 N 
ENDROOT
BRANCH  11  12
ATOM     12  C   UNL     1      -0.788  12.516  20.817  0.00  0.00    +0.000 A 
ATOM     13  C   UNL     1      -1.666  12.087  19.895  0.00  0.00    +0.000 A 
ATOM     14  C   UNL     1      -2.992  12.722  19.623  0.00  0.00    +0.000 C 
ATOM     15  N   UNL     1      -1.198  10.956  19.231  0.00  0.00    +0.000 N 
ATOM     16  C   UNL     1      -2.042   9.962  18.589  0.00  0.00    +0.000 C 
ATOM     17  N   UNL     1      -0.065  10.514  19.960  0.00  0.00    +0.000 N 
ATOM     18  C   UNL     1       0.313  11.524  20.865  0.00  0.00    +0.000 A 
ATOM     19  O   UNL     1       1.322  11.640  21.543  0.00  0.00    +0.000 OA
BRANCH  17  20
ATOM     20  C   UNL     1       0.846   9.552  19.498  0.00  0.00    +0.000 A 
ATOM     21  C   UNL     1       1.343   9.707  18.198  0.00  0.00    +0.000 A 
ATOM     22  C   UNL     1       2.250   8.789  17.665  0.00  0.00    +0.000 A 
ATOM     23  C   UNL     1       2.635   7.691  18.427  0.00  0.00    +0.000 A 
ATOM     24  C   UNL     1       2.131   7.517  19.718  0.00  0.00    +0.000 A 
ATOM     25  C   UNL     1       1.254   8.457  20.266  0.00  0.00    +0.000 A 
ENDBRANCH  17  20
ENDBRANCH  11  12
BRANCH   1  26
ATOM     26  S   UNL     1       0.363  14.696  19.221  0.00  0.00    +0.000 S 
BRANCH  26  28
ATOM     27  C   UNL     1       2.511  13.214  18.268  0.00  0.00    +0.000 C 
ATOM     28  C   UNL     1       2.119  14.316  19.234  0.00  0.00    +0.000 C 
ENDBRANCH  26  28
ENDBRANCH   1  26
TORSDOF 4
ENDMDL
