MODEL 1
REMARK VINA RESULT:      -6.8      0.000      0.000
REMARK  Name = 
REMARK  4 active torsions:
REMARK  status: ('A' for Active; 'I' for Inactive)
REMARK    1  A    between atoms: O_1  and  C_2
REMARK    2  A    between atoms: C_2  and  C_3
REMARK    3  A    between atoms: N_6  and  C_7
REMARK    4  A    between atoms: C_15  and  O_16
REMARK                            x       y       z     vdW  Elec       q    Type
REMARK                         _______ _______ _______ _____ _____    ______ ____
ROOT
ATOM      1  C   UNL     1       2.556   3.284  19.982  0.00  0.00    +0.000 C 
ATOM      2  C   UNL     1       2.735   2.609  18.620  0.00  0.00    +0.000 C 
ATOM      3  C   UNL     1       3.953   3.186  17.905  0.00  0.00    +0.000 C 
ATOM      4  N   UNL     1       4.073   4.635  18.087  0.00  0.00    +0.000 N 
ATOM      5  C   UNL     1       2.868   5.368  18.499  0.00  0.00    +0.000 C 
ATOM      6  C   UNL     1       2.236   4.776  19.782  0.00  0.00    +0.000 C 
ENDROOT
BRANCH   4   7
ATOM      7  C   UNL     1       5.315   5.250  18.168  0.00  0.00    +0.000 A 
ATOM      8  N   UNL     1       6.033   4.999  19.294  0.00  0.00    +0.000 NA
ATOM      9  C   UNL     1       7.246   5.583  19.457  0.00  0.00    +0.000 A 
ATOM     10  C   UNL     1       7.834   6.415  18.528  0.00  0.00    +0.000 A 
ATOM     11  C   UNL     1       7.125   6.675  17.368  0.00  0.00    +0.000 A 
ATOM     12  C   UNL     1       5.857   6.110  17.182  0.00  0.00    +0.000 A 
ATOM     13 CL   UNL     1       5.033   6.633  15.748  0.00  0.00    +0.000 Cl
ENDBRANCH   4   7
BRANCH   6  14
ATOM     14  O   UNL     1       2.675   5.490  20.944  0.00  0.00    +0.000 OA
ATOM     15  H   UNL     1       3.644   5.373  20.982  0.00  0.00    +0.000 HD
ENDBRANCH   6  14
BRANCH   1  16
ATOM     16  C   UNL     1       1.478   2.591  20.815  0.00  0.00    +0.000 C 
BRANCH  16  17
ATOM     17  O   UNL     1       1.758   2.779  22.199  0.00  0.00    +0.000 OA
ATOM     18  H   UNL     1       0.910   2.954  22.641  0.00  0.00    +0.000 HD
ENDBRANCH  16  17
ENDBRANCH   1  16
TORSDOF 4
ENDMDL
MODEL 2
REMARK VINA RESULT:      -6.5      2.273      2.937
REMARK  Name = 
REMARK  4 active torsions:
REMARK  status: ('A' for Active; 'I' for Inactive)
REMARK    1  A    between atoms: O_1  and  C_2
REMARK    2  A    between atoms: C_2  and  C_3
REMARK    3  A    between atoms: N_6  and  C_7
REMARK    4  A    between atoms: C_15  and  O_16
REMARK                            x       y       z     vdW  Elec       q    Type
REMARK                         _______ _______ _______ _____ _____    ______ ____
ROOT
ATOM      1  C   UNL     1       2.069   3.688  19.517  0.00  0.00    +0.000 C 
ATOM      2  C   UNL     1       2.703   4.837  20.305  0.00  0.00    +0.000 C 
ATOM      3  C   UNL     1       3.969   5.317  19.602  0.00  0.00    +0.000 C 
ATOM      4  N   UNL     1       4.757   4.212  19.051  0.00  0.00    +0.000 N 
ATOM      5  C   UNL     1       4.510   2.869  19.594  0.00  0.00    +0.000 C 
ATOM      6  C   UNL     1       3.015   2.475  19.518  0.00  0.00    +0.000 C 
ENDROOT
BRANCH   4   7
ATOM      7  C   UNL     1       5.478   4.358  17.874  0.00  0.00    +0.000 A 
ATOM      8  N   UNL     1       4.922   3.807  16.762  0.00  0.00    +0.000 NA
ATOM      9  C   UNL     1       5.578   3.887  15.578  0.00  0.00    +0.000 A 
ATOM     10  C   UNL     1       6.787   4.526  15.406  0.00  0.00    +0.000 A 
ATOM     11  C   UNL     1       7.366   5.104  16.523  0.00  0.00    +0.000 A 
ATOM     12  C   UNL     1       6.727   5.014  17.767  0.00  0.00    +0.000 A 
ATOM     13 CL   UNL     1       7.633   5.664  19.095  0.00  0.00    +0.000 Cl
ENDBRANCH   4   7
BRANCH   6  14
ATOM     14  O   UNL     1       2.751   1.697  18.344  0.00  0.00    +0.000 OA
ATOM     15  H   UNL     1       3.609   1.602  17.886  0.00  0.00    +0.000 HD
ENDBRANCH   6  14
BRANCH   1  16
ATOM     16  C   UNL     1       0.692   3.320  20.071  0.00  0.00    +0.000 C 
BRANCH  16  17
ATOM     17  O   UNL     1       0.058   2.402  19.186  0.00  0.00    +0.000 OA
ATOM     18  H   UNL     1      -0.566   2.914  18.643  0.00  0.00    +0.000 HD
ENDBRANCH  16  17
ENDBRANCH   1  16
TORSDOF 4
ENDMDL
MODEL 3
REMARK VINA RESULT:      -6.5      2.602      5.362
REMARK  Name = 
REMARK  4 active torsions:
REMARK  status: ('A' for Active; 'I' for Inactive)
REMARK    1  A    between atoms: O_1  and  C_2
REMARK    2  A    between atoms: C_2  and  C_3
REMARK    3  A    between atoms: N_6  and  C_7
REMARK    4  A    between atoms: C_15  and  O_16
REMARK                            x       y       z     vdW  Elec       q    Type
REMARK                         _______ _______ _______ _____ _____    ______ ____
ROOT
ATOM      1  C   UNL     1       6.449   6.625  17.917  0.00  0.00    +0.000 C 
ATOM      2  C   UNL     1       5.664   6.509  16.607  0.00  0.00    +0.000 C 
ATOM      3  C   UNL     1       4.292   5.898  16.872  0.00  0.00    +0.000 C 
ATOM      4  N   UNL     1       4.341   4.817  17.859  0.00  0.00    +0.000 N 
ATOM      5  C   UNL     1       5.645   4.185  18.106  0.00  0.00    +0.000 C 
ATOM      6  C   UNL     1       6.734   5.221  18.477  0.00  0.00    +0.000 C 
ENDROOT
BRANCH   4   7
ATOM      7  C   UNL     1       3.291   4.596  18.738  0.00  0.00    +0.000 A 
ATOM      8  N   UNL     1       3.120   5.531  19.710  0.00  0.00    +0.000 NA
ATOM      9  C   UNL     1       2.129   5.373  20.623  0.00  0.00    +0.000 A 
ATOM     10  C   UNL     1       1.240   4.319  20.623  0.00  0.00    +0.000 A 
ATOM     11  C   UNL     1       1.389   3.360  19.636  0.00  0.00    +0.000 A 
ATOM     12  C   UNL     1       2.421   3.480  18.695  0.00  0.00    +0.000 A 
ATOM     13 CL   UNL     1       2.567   2.139  17.605  0.00  0.00    +0.000 Cl
ENDBRANCH   4   7
BRANCH   6  14
ATOM     14  O   UNL     1       6.877   5.324  19.899  0.00  0.00    +0.000 OA
ATOM     15  H   UNL     1       7.453   6.098  20.056  0.00  0.00    +0.000 HD
ENDBRANCH   6  14
BRANCH   1  16
ATOM     16  C   UNL     1       7.741   7.422  17.729  0.00  0.00    +0.000 C 
BRANCH  16  17
ATOM     17  O   UNL     1       8.505   7.370  18.929  0.00  0.00    +0.000 OA
ATOM     18  H   UNL     1       7.879   7.240  19.662  0.00  0.00    +0.000 HD
ENDBRANCH  16  17
ENDBRANCH   1  16
TORSDOF 4
ENDMDL
MODEL 4
REMARK VINA RESULT:      -6.4      2.208      2.641
REMARK  Name = 
REMARK  4 active torsions:
REMARK  status: ('A' for Active; 'I' for Inactive)
REMARK    1  A    between atoms: O_1  and  C_2
REMARK    2  A    between atoms: C_2  and  C_3
REMARK    3  A    between atoms: N_6  and  C_7
REMARK    4  A    between atoms: C_15  and  O_16
REMARK                            x       y       z     vdW  Elec       q    Type
REMARK                         _______ _______ _______ _____ _____    ______ ____
ROOT
ATOM      1  C   UNL     1       2.186   3.208  19.922  0.00  0.00    +0.000 C 
ATOM      2  C   UNL     1       3.534   2.625  20.354  0.00  0.00    +0.000 C 
ATOM      3  C   UNL     1       4.634   3.089  19.405  0.00  0.00    +0.000 C 
ATOM      4  N   UNL     1       4.196   3.108  18.007  0.00  0.00    +0.000 N 
ATOM      5  C   UNL     1       3.016   2.304  17.657  0.00  0.00    +0.000 C 
ATOM      6  C   UNL     1       1.795   2.644  18.545  0.00  0.00    +0.000 C 
ENDROOT
BRANCH   4   7
ATOM      7  C   UNL     1       4.669   4.060  17.116  0.00  0.00    +0.000 A 
ATOM      8  N   UNL     1       5.497   3.603  16.139  0.00  0.00    +0.000 NA
ATOM      9  C   UNL     1       6.020   4.477  15.243  0.00  0.00    +0.000 A 
ATOM     10  C   UNL     1       5.747   5.828  15.233  0.00  0.00    +0.000 A 
ATOM     11  C   UNL     1       4.898   6.314  16.212  0.00  0.00    +0.000 A 
ATOM     12  C   UNL     1       4.363   5.441  17.169  0.00  0.00    +0.000 A 
ATOM     13 CL   UNL     1       3.429   6.212  18.410  0.00  0.00    +0.000 Cl
ENDBRANCH   4   7
BRANCH   6  14
ATOM     14  O   UNL     1       0.940   3.593  17.896  0.00  0.00    +0.000 OA
ATOM     15  H   UNL     1       0.211   3.074  17.503  0.00  0.00    +0.000 HD
ENDBRANCH   6  14
BRANCH   1  16
ATOM     16  C   UNL     1       1.098   2.940  20.963  0.00  0.00    +0.000 C 
BRANCH  16  17
ATOM     17  O   UNL     1       1.706   2.700  22.228  0.00  0.00    +0.000 OA
ATOM     18  H   UNL     1       2.668   2.763  22.100  0.00  0.00    +0.000 HD
ENDBRANCH  16  17
ENDBRANCH   1  16
TORSDOF 4
ENDMDL
MODEL 5
REMARK VINA RESULT:      -6.4      2.789      5.461
REMARK  Name = 
REMARK  4 active torsions:
REMARK  status: ('A' for Active; 'I' for Inactive)
REMARK    1  A    between atoms: O_1  and  C_2
REMARK    2  A    between atoms: C_2  and  C_3
REMARK    3  A    between atoms: N_6  and  C_7
REMARK    4  A    between atoms: C_15  and  O_16
REMARK                            x       y       z     vdW  Elec       q    Type
REMARK                         _______ _______ _______ _____ _____    ______ ____
ROOT
ATOM      1  C   UNL     1       5.958   6.248  17.862  0.00  0.00    +0.000 C 
ATOM      2  C   UNL     1       4.745   6.898  17.190  0.00  0.00    +0.000 C 
ATOM      3  C   UNL     1       3.456   6.312  17.756  0.00  0.00    +0.000 C 
ATOM      4  N   UNL     1       3.550   4.868  17.984  0.00  0.00    +0.000 N 
ATOM      5  C   UNL     1       4.606   4.137  17.268  0.00  0.00    +0.000 C 
ATOM      6  C   UNL     1       6.006   4.751  17.509  0.00  0.00    +0.000 C 
ENDROOT
BRANCH   4   7
ATOM      7  C   UNL     1       2.887   4.260  19.041  0.00  0.00    +0.000 A 
ATOM      8  N   UNL     1       2.858   4.959  20.207  0.00  0.00    +0.000 NA
ATOM      9  C   UNL     1       2.249   4.420  21.292  0.00  0.00    +0.000 A 
ATOM     10  C   UNL     1       1.617   3.195  21.295  0.00  0.00    +0.000 A 
ATOM     11  C   UNL     1       1.625   2.472  20.116  0.00  0.00    +0.000 A 
ATOM     12  C   UNL     1       2.270   2.987  18.984  0.00  0.00    +0.000 A 
ATOM     13 CL   UNL     1       2.315   1.913  17.623  0.00  0.00    +0.000 Cl
ENDBRANCH   4   7
BRANCH   6  14
ATOM     14  O   UNL     1       6.691   4.062  18.562  0.00  0.00    +0.000 OA
ATOM     15  H   UNL     1       6.828   3.149  18.241  0.00  0.00    +0.000 HD
ENDBRANCH   6  14
BRANCH   1  16
ATOM     16  C   UNL     1       7.259   6.953  17.477  0.00  0.00    +0.000 C 
BRANCH  16  17
ATOM     17  O   UNL     1       7.665   6.518  16.183  0.00  0.00    +0.000 OA
ATOM     18  H   UNL     1       6.880   6.142  15.748  0.00  0.00    +0.000 HD
ENDBRANCH  16  17
ENDBRANCH   1  16
TORSDOF 4
ENDMDL
MODEL 6
REMARK VINA RESULT:      -6.4      1.877      2.337
REMARK  Name = 
REMARK  4 active torsions:
REMARK  status: ('A' for Active; 'I' for Inactive)
REMARK    1  A    between atoms: O_1  and  C_2
REMARK    2  A    between atoms: C_2  and  C_3
REMARK    3  A    between atoms: N_6  and  C_7
REMARK    4  A    between atoms: C_15  and  O_16
REMARK                            x       y       z     vdW  Elec       q    Type
REMARK                         _______ _______ _______ _____ _____    ______ ____
ROOT
ATOM      1  C   UNL     1       2.155   3.061  18.780  0.00  0.00    +0.000 C 
ATOM      2  C   UNL     1       2.017   4.100  19.896  0.00  0.00    +0.000 C 
ATOM      3  C   UNL     1       3.241   5.011  19.918  0.00  0.00    +0.000 C 
ATOM      4  N   UNL     1       4.486   4.280  19.671  0.00  0.00    +0.000 N 
ATOM      5  C   UNL     1       4.471   2.826  19.882  0.00  0.00    +0.000 C 
ATOM      6  C   UNL     1       3.343   2.132  19.081  0.00  0.00    +0.000 C 
ENDROOT
BRANCH   4   7
ATOM      7  C   UNL     1       5.541   4.866  18.986  0.00  0.00    +0.000 A 
ATOM      8  N   UNL     1       6.586   5.288  19.747  0.00  0.00    +0.000 NA
ATOM      9  C   UNL     1       7.645   5.892  19.152  0.00  0.00    +0.000 A 
ATOM     10  C   UNL     1       7.757   6.091  17.793  0.00  0.00    +0.000 A 
ATOM     11  C   UNL     1       6.710   5.659  16.997  0.00  0.00    +0.000 A 
ATOM     12  C   UNL     1       5.589   5.057  17.584  0.00  0.00    +0.000 A 
ATOM     13 CL   UNL     1       4.302   4.691  16.480  0.00  0.00    +0.000 Cl
ENDBRANCH   4   7
BRANCH   6  14
ATOM     14  O   UNL     1       3.841   1.621  17.838  0.00  0.00    +0.000 OA
ATOM     15  H   UNL     1       4.282   2.372  17.395  0.00  0.00    +0.000 HD
ENDBRANCH   6  14
BRANCH   1  16
ATOM     16  C   UNL     1       0.862   2.267  18.590  0.00  0.00    +0.000 C 
BRANCH  16  17
ATOM     17  O   UNL     1      -0.026   2.547  19.668  0.00  0.00    +0.000 OA
ATOM     18  H   UNL     1      -0.532   3.340  19.423  0.00  0.00    +0.000 HD
ENDBRANCH  16  17
ENDBRANCH   1  16
TORSDOF 4
ENDMDL
MODEL 7
REMARK VINA RESULT:      -6.3      2.202      2.703
REMARK  Name = 
REMARK  4 active torsions:
REMARK  status: ('A' for Active; 'I' for Inactive)
REMARK    1  A    between atoms: O_1  and  C_2
REMARK    2  A    between atoms: C_2  and  C_3
REMARK    3  A    between atoms: N_6  and  C_7
REMARK    4  A    between atoms: C_15  and  O_16
REMARK                            x       y       z     vdW  Elec       q    Type
REMARK                         _______ _______ _______ _____ _____    ______ ____
ROOT
ATOM      1  C   UNL     1       2.010   3.562  19.712  0.00  0.00    +0.000 C 
ATOM      2  C   UNL     1       2.594   4.767  20.455  0.00  0.00    +0.000 C 
ATOM      3  C   UNL     1       3.869   5.239  19.765  0.00  0.00    +0.000 C 
ATOM      4  N   UNL     1       4.698   4.125  19.298  0.00  0.00    +0.000 N 
ATOM      5  C   UNL     1       4.465   2.807  19.905  0.00  0.00    +0.000 C 
ATOM      6  C   UNL     1       2.982   2.374  19.807  0.00  0.00    +0.000 C 
ENDROOT
BRANCH   4   7
ATOM      7  C   UNL     1       5.451   4.225  18.137  0.00  0.00    +0.000 A 
ATOM      8  N   UNL     1       6.772   4.501  18.305  0.00  0.00    +0.000 NA
ATOM      9  C   UNL     1       7.570   4.637  17.217  0.00  0.00    +0.000 A 
ATOM     10  C   UNL     1       7.136   4.487  15.917  0.00  0.00    +0.000 A 
ATOM     11  C   UNL     1       5.797   4.195  15.723  0.00  0.00    +0.000 A 
ATOM     12  C   UNL     1       4.941   4.075  16.825  0.00  0.00    +0.000 A 
ATOM     13 CL   UNL     1       3.270   3.842  16.423  0.00  0.00    +0.000 Cl
ENDBRANCH   4   7
BRANCH   6  14
ATOM     14  O   UNL     1       2.772   1.528  18.669  0.00  0.00    +0.000 OA
ATOM     15  H   UNL     1       2.231   0.779  18.987  0.00  0.00    +0.000 HD
ENDBRANCH   6  14
BRANCH   1  16
ATOM     16  C   UNL     1       0.625   3.191  20.245  0.00  0.00    +0.000 C 
BRANCH  16  17
ATOM     17  O   UNL     1      -0.055   2.399  19.276  0.00  0.00    +0.000 OA
ATOM     18  H   UNL     1      -1.008   2.494  19.447  0.00  0.00    +0.000 HD
ENDBRANCH  16  17
ENDBRANCH   1  16
TORSDOF 4
ENDMDL
MODEL 8
REMARK VINA RESULT:      -6.3      1.162      1.162
REMARK  Name = 
REMARK  4 active torsions:
REMARK  status: ('A' for Active; 'I' for Inactive)
REMARK    1  A    between atoms: O_1  and  C_2
REMARK    2  A    between atoms: C_2  and  C_3
REMARK    3  A    between atoms: N_6  and  C_7
REMARK    4  A    between atoms: C_15  and  O_16
REMARK                            x       y       z     vdW  Elec       q    Type
REMARK                         _______ _______ _______ _____ _____    ______ ____
ROOT
ATOM      1  C   UNL     1       1.901   3.833  19.499  0.00  0.00    +0.000 C 
ATOM      2  C   UNL     1       1.802   3.677  17.980  0.00  0.00    +0.000 C 
ATOM      3  C   UNL     1       3.085   4.169  17.318  0.00  0.00    +0.000 C 
ATOM      4  N   UNL     1       3.613   5.380  17.953  0.00  0.00    +0.000 N 
ATOM      5  C   UNL     1       2.686   6.176  18.769  0.00  0.00    +0.000 C 
ATOM      6  C   UNL     1       1.994   5.325  19.862  0.00  0.00    +0.000 C 
ENDROOT
BRANCH   4   7
ATOM      7  C   UNL     1       4.979   5.611  18.039  0.00  0.00    +0.000 A 
ATOM      8  N   UNL     1       5.556   5.336  19.239  0.00  0.00    +0.000 NA
ATOM      9  C   UNL     1       6.883   5.559  19.409  0.00  0.00    +0.000 A 
ATOM     10  C   UNL     1       7.720   6.031  18.421  0.00  0.00    +0.000 A 
ATOM     11  C   UNL     1       7.155   6.308  17.188  0.00  0.00    +0.000 A 
ATOM     12  C   UNL     1       5.782   6.115  16.988  0.00  0.00    +0.000 A 
ATOM     13 CL   UNL     1       5.196   6.630  15.439  0.00  0.00    +0.000 Cl
ENDBRANCH   4   7
BRANCH   6  14
ATOM     14  O   UNL     1       2.685   5.443  21.112  0.00  0.00    +0.000 OA
ATOM     15  H   UNL     1       2.611   4.569  21.544  0.00  0.00    +0.000 HD
ENDBRANCH   6  14
BRANCH   1  16
ATOM     16  C   UNL     1       0.726   3.160  20.210  0.00  0.00    +0.000 C 
BRANCH  16  17
ATOM     17  O   UNL     1       0.023   2.339  19.284  0.00  0.00    +0.000 OA
ATOM     18  H   UNL     1      -0.331   1.583  19.783  0.00  0.00    +0.000 HD
ENDBRANCH  16  17
ENDBRANCH   1  16
TORSDOF 4
ENDMDL
MODEL 9
REMARK VINA RESULT:      -6.3      2.839      5.350
REMARK  Name = 
REMARK  4 active torsions:
REMARK  status: ('A' for Active; 'I' for Inactive)
REMARK    1  A    between atoms: O_1  and  C_2
REMARK    2  A    between atoms: C_2  and  C_3
REMARK    3  A    between atoms: N_6  and  C_7
REMARK    4  A    between atoms: C_15  and  O_16
REMARK                            x       y       z     vdW  Elec       q    Type
REMARK                         _______ _______ _______ _____ _____    ______ ____
ROOT
ATOM      1  C   UNL     1       6.522   6.428  17.818  0.00  0.00    +0.000 C 
ATOM      2  C   UNL     1       5.299   6.969  17.074  0.00  0.00    +0.000 C 
ATOM      3  C   UNL     1       4.058   6.168  17.453  0.00  0.00    +0.000 C 
ATOM      4  N   UNL     1       4.334   4.735  17.576  0.00  0.00    +0.000 N 
ATOM      5  C   UNL     1       5.545   4.219  16.922  0.00  0.00    +0.000 C 
ATOM      6  C   UNL     1       6.815   4.989  17.357  0.00  0.00    +0.000 C 
ENDROOT
BRANCH   4   7
ATOM      7  C   UNL     1       3.667   3.950  18.507  0.00  0.00    +0.000 A 
ATOM      8  N   UNL     1       4.448   3.313  19.419  0.00  0.00    +0.000 NA
ATOM      9  C   UNL     1       3.872   2.508  20.346  0.00  0.00    +0.000 A 
ATOM     10  C   UNL     1       2.513   2.303  20.454  0.00  0.00    +0.000 A 
ATOM     11  C   UNL     1       1.698   2.951  19.542  0.00  0.00    +0.000 A 
ATOM     12  C   UNL     1       2.264   3.767  18.554  0.00  0.00    +0.000 A 
ATOM     13 CL   UNL     1       1.133   4.402  17.403  0.00  0.00    +0.000 Cl
ENDBRANCH   4   7
BRANCH   6  14
ATOM     14  O   UNL     1       7.488   4.304  18.420  0.00  0.00    +0.000 OA
ATOM     15  H   UNL     1       8.253   4.863  18.659  0.00  0.00    +0.000 HD
ENDBRANCH   6  14
BRANCH   1  16
ATOM     16  C   UNL     1       7.741   7.332  17.628  0.00  0.00    +0.000 C 
BRANCH  16  17
ATOM     17  O   UNL     1       8.508   7.347  18.828  0.00  0.00    +0.000 OA
ATOM     18  H   UNL     1       7.897   7.557  19.556  0.00  0.00    +0.000 HD
ENDBRANCH  16  17
ENDBRANCH   1  16
TORSDOF 4
ENDMDL
