MODEL 1
REMARK VINA RESULT:      -7.8      0.000      0.000
REMARK  Name = 
REMARK  10 active torsions:
REMARK  status: ('A' for Active; 'I' for Inactive)
REMARK    1  A    between atoms: C_1  and  N_2
REMARK    2  A    between atoms: N_6  and  C_7
REMARK    3  A    between atoms: C_7  and  C_8
REMARK    4  A    between atoms: C_8  and  C_9
REMARK    5  A    between atoms: C_9  and  N_10
REMARK    6  A    between atoms: N_10  and  C_11
REMARK    7  A    between atoms: N_10  and  C_12
REMARK    8  A    between atoms: C_15  and  C_16
REMARK    9  A    between atoms: C_19  and  O_20
REMARK   10  A    between atoms: O_20  and  C_21
REMARK                            x       y       z     vdW  Elec       q    Type
REMARK                         _______ _______ _______ _____ _____    ______ ____
ROOT
ATOM      1  C   UNL     1      -0.969  10.065  23.193  0.00  0.00    +0.000 C 
ATOM      2  N   UNL     1       0.283   9.378  22.977  0.00  0.00    +0.000 N 
ATOM      3  C   UNL     1       0.653   9.211  21.651  0.00  0.00    +0.000 A 
ATOM      4  N   UNL     1       0.246  10.093  20.727  0.00  0.00    +0.000 NA
ATOM      5  C   UNL     1       0.658   9.981  19.445  0.00  0.00    +0.000 A 
ATOM      6  N   UNL     1       0.278  10.928  18.489  0.00  0.00    +0.000 N 
ATOM      7  C   UNL     1       1.498   8.911  19.132  0.00  0.00    +0.000 A 
ATOM      8  S   UNL     1       2.224   8.477  17.639  0.00  0.00    +0.000 S 
ATOM      9  C   UNL     1       3.005   7.106  18.311  0.00  0.00    +0.000 A 
ATOM     10  C   UNL     1       2.716   6.997  19.659  0.00  0.00    +0.000 A 
ATOM     11  C   UNL     1       1.856   8.028  20.137  0.00  0.00    +0.000 A 
ATOM     12  N   UNL     1       1.431   8.156  21.413  0.00  0.00    +0.000 NA
ATOM     13  H   UNL     1       0.387   8.478  23.431  0.00  0.00    +0.000 HD
ATOM     14  H   UNL     1       0.873  10.886  17.668  0.00  0.00    +0.000 HD
ENDROOT
BRANCH   9  15
ATOM     15  C   UNL     1       3.822   6.211  17.476  0.00  0.00    +0.000 A 
ATOM     16  C   UNL     1       4.867   6.684  16.671  0.00  0.00    +0.000 A 
ATOM     17  C   UNL     1       5.632   5.800  15.899  0.00  0.00    +0.000 A 
ATOM     18  C   UNL     1       5.384   4.428  15.929  0.00  0.00    +0.000 A 
ATOM     19  C   UNL     1       4.325   3.950  16.693  0.00  0.00    +0.000 A 
ATOM     20  C   UNL     1       3.563   4.832  17.474  0.00  0.00    +0.000 A 
BRANCH  18  21
ATOM     21  O   UNL     1       6.196   3.682  15.132  0.00  0.00    +0.000 OA
BRANCH  21  22
ATOM     22  C   UNL     1       6.118   3.829  13.721  0.00  0.00    +0.000 C 
ATOM     23  F   UNL     1       6.380   2.704  13.023  0.00  0.00    +0.000 F 
ATOM     24  F   UNL     1       4.884   4.267  13.389  0.00  0.00    +0.000 F 
ATOM     25  F   UNL     1       7.014   4.768  13.341  0.00  0.00    +0.000 F 
ENDBRANCH  21  22
ENDBRANCH  18  21
ENDBRANCH   9  15
BRANCH   6  26
ATOM     26  C   UNL     1       0.017  12.275  18.986  0.00  0.00    +0.000 C 
BRANCH  26  27
ATOM     27  C   UNL     1      -1.428  12.702  18.721  0.00  0.00    +0.000 C 
BRANCH  27  28
ATOM     28  C   UNL     1      -2.163  11.669  17.862  0.00  0.00    +0.000 C 
BRANCH  28  29
ATOM     29  N   UNL     1      -3.556  11.449  18.289  0.00  0.00    +0.000 NA
ATOM     30  C   UNL     1      -3.934  12.280  19.431  0.00  0.00    +0.000 C 
ATOM     31  C   UNL     1      -4.469  11.694  17.169  0.00  0.00    +0.000 C 
ENDBRANCH  28  29
ENDBRANCH  27  28
ENDBRANCH  26  27
ENDBRANCH   6  26
TORSDOF 7
ENDMDL
MODEL 2
REMARK VINA RESULT:      -7.6      1.738      2.975
REMARK  Name = 
REMARK  10 active torsions:
REMARK  status: ('A' for Active; 'I' for Inactive)
REMARK    1  A    between atoms: C_1  and  N_2
REMARK    2  A    between atoms: N_6  and  C_7
REMARK    3  A    between atoms: C_7  and  C_8
REMARK    4  A    between atoms: C_8  and  C_9
REMARK    5  A    between atoms: C_9  and  N_10
REMARK    6  A    between atoms: N_10  and  C_11
REMARK    7  A    between atoms: N_10  and  C_12
REMARK    8  A    between atoms: C_15  and  C_16
REMARK    9  A    between atoms: C_19  and  O_20
REMARK   10  A    between atoms: O_20  and  C_21
REMARK                            x       y       z     vdW  Elec       q    Type
REMARK                         _______ _______ _______ _____ _____    ______ ____
ROOT
ATOM      1  C   UNL     1      -1.031  10.162  23.169  0.00  0.00    +0.000 C 
ATOM      2  N   UNL     1       0.136   9.330  22.993  0.00  0.00    +0.000 N 
ATOM      3  C   UNL     1       0.604   9.222  21.692  0.00  0.00    +0.000 A 
ATOM      4  N   UNL     1       0.403  10.224  20.824  0.00  0.00    +0.000 NA
ATOM      5  C   UNL     1       0.916  10.163  19.576  0.00  0.00    +0.000 A 
ATOM      6  N   UNL     1       0.752  11.228  18.685  0.00  0.00    +0.000 N 
ATOM      7  C   UNL     1       1.635   9.017  19.234  0.00  0.00    +0.000 A 
ATOM      8  S   UNL     1       2.435   8.611  17.771  0.00  0.00    +0.000 S 
ATOM      9  C   UNL     1       2.966   7.095  18.373  0.00  0.00    +0.000 A 
ATOM     10  C   UNL     1       2.540   6.917  19.677  0.00  0.00    +0.000 A 
ATOM     11  C   UNL     1       1.779   8.013  20.177  0.00  0.00    +0.000 A 
ATOM     12  N   UNL     1       1.257   8.094  21.420  0.00  0.00    +0.000 NA
ATOM     13  H   UNL     1       0.079   8.389  23.368  0.00  0.00    +0.000 HD
ATOM     14  H   UNL     1       1.412  11.172  17.915  0.00  0.00    +0.000 HD
ENDROOT
BRANCH   9  15
ATOM     15  C   UNL     1       3.734   6.168  17.527  0.00  0.00    +0.000 A 
ATOM     16  C   UNL     1       4.660   6.615  16.575  0.00  0.00    +0.000 A 
ATOM     17  C   UNL     1       5.383   5.702  15.797  0.00  0.00    +0.000 A 
ATOM     18  C   UNL     1       5.212   4.328  15.964  0.00  0.00    +0.000 A 
ATOM     19  C   UNL     1       4.268   3.872  16.878  0.00  0.00    +0.000 A 
ATOM     20  C   UNL     1       3.548   4.783  17.665  0.00  0.00    +0.000 A 
BRANCH  18  21
ATOM     21  O   UNL     1       5.972   3.552  15.146  0.00  0.00    +0.000 OA
BRANCH  21  22
ATOM     22  C   UNL     1       6.058   3.870  13.763  0.00  0.00    +0.000 C 
ATOM     23  F   UNL     1       6.900   4.882  13.470  0.00  0.00    +0.000 F 
ATOM     24  F   UNL     1       6.446   2.772  13.079  0.00  0.00    +0.000 F 
ATOM     25  F   UNL     1       4.825   4.221  13.331  0.00  0.00    +0.000 F 
ENDBRANCH  21  22
ENDBRANCH  18  21
ENDBRANCH   9  15
BRANCH   6  26
ATOM     26  C   UNL     1       0.623  12.553  19.284  0.00  0.00    +0.000 C 
BRANCH  26  27
ATOM     27  C   UNL     1       1.972  13.272  19.353  0.00  0.00    +0.000 C 
BRANCH  27  28
ATOM     28  C   UNL     1       2.492  13.611  17.953  0.00  0.00    +0.000 C 
BRANCH  28  29
ATOM     29  N   UNL     1       3.074  14.962  17.864  0.00  0.00    +0.000 NA
ATOM     30  C   UNL     1       2.399  15.926  18.733  0.00  0.00    +0.000 C 
ATOM     31  C   UNL     1       4.503  14.915  18.186  0.00  0.00    +0.000 C 
ENDBRANCH  28  29
ENDBRANCH  27  28
ENDBRANCH  26  27
ENDBRANCH   6  26
TORSDOF 7
ENDMDL
MODEL 3
REMARK VINA RESULT:      -7.5      1.603      2.643
REMARK  Name = 
REMARK  10 active torsions:
REMARK  status: ('A' for Active; 'I' for Inactive)
REMARK    1  A    between atoms: C_1  and  N_2
REMARK    2  A    between atoms: N_6  and  C_7
REMARK    3  A    between atoms: C_7  and  C_8
REMARK    4  A    between atoms: C_8  and  C_9
REMARK    5  A    between atoms: C_9  and  N_10
REMARK    6  A    between atoms: N_10  and  C_11
REMARK    7  A    between atoms: N_10  and  C_12
REMARK    8  A    between atoms: C_15  and  C_16
REMARK    9  A    between atoms: C_19  and  O_20
REMARK   10  A    between atoms: O_20  and  C_21
REMARK                            x       y       z     vdW  Elec       q    Type
REMARK                         _______ _______ _______ _____ _____    ______ ____
ROOT
ATOM      1  C   UNL     1      -1.027  10.194  23.200  0.00  0.00    +0.000 C 
ATOM      2  N   UNL     1       0.180   9.425  23.010  0.00  0.00    +0.000 N 
ATOM      3  C   UNL     1       0.600   9.283  21.695  0.00  0.00    +0.000 A 
ATOM      4  N   UNL     1       0.301  10.227  20.792  0.00  0.00    +0.000 NA
ATOM      5  C   UNL     1       0.764  10.136  19.527  0.00  0.00    +0.000 A 
ATOM      6  N   UNL     1       0.498  11.145  18.596  0.00  0.00    +0.000 N 
ATOM      7  C   UNL     1       1.538   9.020  19.206  0.00  0.00    +0.000 A 
ATOM      8  S   UNL     1       2.300   8.592  17.729  0.00  0.00    +0.000 S 
ATOM      9  C   UNL     1       2.948   7.142  18.376  0.00  0.00    +0.000 A 
ATOM     10  C   UNL     1       2.589   7.002  19.704  0.00  0.00    +0.000 A 
ATOM     11  C   UNL     1       1.783   8.074  20.186  0.00  0.00    +0.000 A 
ATOM     12  N   UNL     1       1.309   8.183  21.447  0.00  0.00    +0.000 NA
ATOM     13  H   UNL     1       0.198   8.502  23.429  0.00  0.00    +0.000 HD
ATOM     14  H   UNL     1       1.126  11.091  17.800  0.00  0.00    +0.000 HD
ENDROOT
BRANCH   9  15
ATOM     15  C   UNL     1       3.736   6.222  17.540  0.00  0.00    +0.000 A 
ATOM     16  C   UNL     1       4.806   6.660  16.748  0.00  0.00    +0.000 A 
ATOM     17  C   UNL     1       5.542   5.753  15.976  0.00  0.00    +0.000 A 
ATOM     18  C   UNL     1       5.240   4.392  15.990  0.00  0.00    +0.000 A 
ATOM     19  C   UNL     1       4.156   3.949  16.741  0.00  0.00    +0.000 A 
ATOM     20  C   UNL     1       3.422   4.854  17.523  0.00  0.00    +0.000 A 
BRANCH  18  21
ATOM     21  O   UNL     1       6.029   3.621  15.195  0.00  0.00    +0.000 OA
BRANCH  21  22
ATOM     22  C   UNL     1       6.030   3.838  13.790  0.00  0.00    +0.000 C 
ATOM     23  F   UNL     1       6.419   2.774  13.057  0.00  0.00    +0.000 F 
ATOM     24  F   UNL     1       4.791   4.204  13.399  0.00  0.00    +0.000 F 
ATOM     25  F   UNL     1       6.875   4.858  13.518  0.00  0.00    +0.000 F 
ENDBRANCH  21  22
ENDBRANCH  18  21
ENDBRANCH   9  15
BRANCH   6  26
ATOM     26  C   UNL     1       0.312  12.487  19.138  0.00  0.00    +0.000 C 
BRANCH  26  27
ATOM     27  C   UNL     1       1.621  13.280  19.136  0.00  0.00    +0.000 C 
BRANCH  27  28
ATOM     28  C   UNL     1       2.246  13.322  20.534  0.00  0.00    +0.000 C 
BRANCH  28  29
ATOM     29  N   UNL     1       2.149  14.647  21.171  0.00  0.00    +0.000 NA
ATOM     30  C   UNL     1       2.284  15.745  20.214  0.00  0.00    +0.000 C 
ATOM     31  C   UNL     1       0.878  14.766  21.890  0.00  0.00    +0.000 C 
ENDBRANCH  28  29
ENDBRANCH  27  28
ENDBRANCH  26  27
ENDBRANCH   6  26
TORSDOF 7
ENDMDL
MODEL 4
REMARK VINA RESULT:      -7.5      1.682      2.999
REMARK  Name = 
REMARK  10 active torsions:
REMARK  status: ('A' for Active; 'I' for Inactive)
REMARK    1  A    between atoms: C_1  and  N_2
REMARK    2  A    between atoms: N_6  and  C_7
REMARK    3  A    between atoms: C_7  and  C_8
REMARK    4  A    between atoms: C_8  and  C_9
REMARK    5  A    between atoms: C_9  and  N_10
REMARK    6  A    between atoms: N_10  and  C_11
REMARK    7  A    between atoms: N_10  and  C_12
REMARK    8  A    between atoms: C_15  and  C_16
REMARK    9  A    between atoms: C_19  and  O_20
REMARK   10  A    between atoms: O_20  and  C_21
REMARK                            x       y       z     vdW  Elec       q    Type
REMARK                         _______ _______ _______ _____ _____    ______ ____
ROOT
ATOM      1  C   UNL     1      -1.216  10.212  23.164  0.00  0.00    +0.000 C 
ATOM      2  N   UNL     1      -0.008   9.437  23.013  0.00  0.00    +0.000 N 
ATOM      3  C   UNL     1       0.463   9.309  21.714  0.00  0.00    +0.000 A 
ATOM      4  N   UNL     1       0.209  10.269  20.814  0.00  0.00    +0.000 NA
ATOM      5  C   UNL     1       0.722  10.192  19.567  0.00  0.00    +0.000 A 
ATOM      6  N   UNL     1       0.502  11.215  18.641  0.00  0.00    +0.000 N 
ATOM      7  C   UNL     1       1.500   9.073  19.262  0.00  0.00    +0.000 A 
ATOM      8  S   UNL     1       2.319   8.660  17.811  0.00  0.00    +0.000 S 
ATOM      9  C   UNL     1       2.928   7.196  18.463  0.00  0.00    +0.000 A 
ATOM     10  C   UNL     1       2.514   7.040  19.773  0.00  0.00    +0.000 A 
ATOM     11  C   UNL     1       1.698   8.112  20.238  0.00  0.00    +0.000 A 
ATOM     12  N   UNL     1       1.174   8.207  21.479  0.00  0.00    +0.000 NA
ATOM     13  H   UNL     1      -0.015   8.508  23.419  0.00  0.00    +0.000 HD
ATOM     14  H   UNL     1       1.163  11.168  17.870  0.00  0.00    +0.000 HD
ENDROOT
BRANCH   9  15
ATOM     15  C   UNL     1       3.743   6.281  17.647  0.00  0.00    +0.000 A 
ATOM     16  C   UNL     1       3.399   4.935  17.462  0.00  0.00    +0.000 A 
ATOM     17  C   UNL     1       4.192   4.097  16.667  0.00  0.00    +0.000 A 
ATOM     18  C   UNL     1       5.329   4.587  16.027  0.00  0.00    +0.000 A 
ATOM     19  C   UNL     1       5.703   5.910  16.233  0.00  0.00    +0.000 A 
ATOM     20  C   UNL     1       4.907   6.755  17.021  0.00  0.00    +0.000 A 
BRANCH  18  21
ATOM     21  O   UNL     1       6.011   3.670  15.287  0.00  0.00    +0.000 OA
BRANCH  21  22
ATOM     22  C   UNL     1       6.156   3.870  13.888  0.00  0.00    +0.000 C 
ATOM     23  F   UNL     1       6.352   2.741  13.176  0.00  0.00    +0.000 F 
ATOM     24  F   UNL     1       5.058   4.496  13.414  0.00  0.00    +0.000 F 
ATOM     25  F   UNL     1       7.222   4.677  13.682  0.00  0.00    +0.000 F 
ENDBRANCH  21  22
ENDBRANCH  18  21
ENDBRANCH   9  15
BRANCH   6  26
ATOM     26  C   UNL     1       0.305  12.551  19.194  0.00  0.00    +0.000 C 
BRANCH  26  27
ATOM     27  C   UNL     1       0.982  13.621  18.334  0.00  0.00    +0.000 C 
BRANCH  27  28
ATOM     28  C   UNL     1       2.494  13.392  18.250  0.00  0.00    +0.000 C 
BRANCH  28  29
ATOM     29  N   UNL     1       3.233  14.577  17.781  0.00  0.00    +0.000 NA
ATOM     30  C   UNL     1       2.586  15.833  18.162  0.00  0.00    +0.000 C 
ATOM     31  C   UNL     1       4.605  14.547  18.291  0.00  0.00    +0.000 C 
ENDBRANCH  28  29
ENDBRANCH  27  28
ENDBRANCH  26  27
ENDBRANCH   6  26
TORSDOF 7
ENDMDL
MODEL 5
REMARK VINA RESULT:      -7.4      1.592      2.195
REMARK  Name = 
REMARK  10 active torsions:
REMARK  status: ('A' for Active; 'I' for Inactive)
REMARK    1  A    between atoms: C_1  and  N_2
REMARK    2  A    between atoms: N_6  and  C_7
REMARK    3  A    between atoms: C_7  and  C_8
REMARK    4  A    between atoms: C_8  and  C_9
REMARK    5  A    between atoms: C_9  and  N_10
REMARK    6  A    between atoms: N_10  and  C_11
REMARK    7  A    between atoms: N_10  and  C_12
REMARK    8  A    between atoms: C_15  and  C_16
REMARK    9  A    between atoms: C_19  and  O_20
REMARK   10  A    between atoms: O_20  and  C_21
REMARK                            x       y       z     vdW  Elec       q    Type
REMARK                         _______ _______ _______ _____ _____    ______ ____
ROOT
ATOM      1  C   UNL     1      -1.082  10.174  23.206  0.00  0.00    +0.000 C 
ATOM      2  N   UNL     1       0.097   9.360  23.029  0.00  0.00    +0.000 N 
ATOM      3  C   UNL     1       0.560   9.253  21.726  0.00  0.00    +0.000 A 
ATOM      4  N   UNL     1       0.339  10.246  20.854  0.00  0.00    +0.000 NA
ATOM      5  C   UNL     1       0.846  10.186  19.603  0.00  0.00    +0.000 A 
ATOM      6  N   UNL     1       0.661  11.243  18.707  0.00  0.00    +0.000 N 
ATOM      7  C   UNL     1       1.582   9.049  19.264  0.00  0.00    +0.000 A 
ATOM      8  S   UNL     1       2.381   8.649  17.799  0.00  0.00    +0.000 S 
ATOM      9  C   UNL     1       2.939   7.145  18.407  0.00  0.00    +0.000 A 
ATOM     10  C   UNL     1       2.523   6.967  19.714  0.00  0.00    +0.000 A 
ATOM     11  C   UNL     1       1.747   8.054  20.212  0.00  0.00    +0.000 A 
ATOM     12  N   UNL     1       1.230   8.133  21.457  0.00  0.00    +0.000 NA
ATOM     13  H   UNL     1       0.058   8.421  23.409  0.00  0.00    +0.000 HD
ATOM     14  H   UNL     1       1.317  11.194  17.934  0.00  0.00    +0.000 HD
ENDROOT
BRANCH   9  15
ATOM     15  C   UNL     1       3.718   6.225  17.562  0.00  0.00    +0.000 A 
ATOM     16  C   UNL     1       4.781   6.663  16.761  0.00  0.00    +0.000 A 
ATOM     17  C   UNL     1       5.509   5.756  15.980  0.00  0.00    +0.000 A 
ATOM     18  C   UNL     1       5.204   4.395  15.996  0.00  0.00    +0.000 A 
ATOM     19  C   UNL     1       4.127   3.953  16.756  0.00  0.00    +0.000 A 
ATOM     20  C   UNL     1       3.402   4.858  17.546  0.00  0.00    +0.000 A 
BRANCH  18  21
ATOM     21  O   UNL     1       5.985   3.624  15.192  0.00  0.00    +0.000 OA
BRANCH  21  22
ATOM     22  C   UNL     1       6.032   3.894  13.797  0.00  0.00    +0.000 C 
ATOM     23  F   UNL     1       6.878   4.884  13.444  0.00  0.00    +0.000 F 
ATOM     24  F   UNL     1       6.384   2.768  13.140  0.00  0.00    +0.000 F 
ATOM     25  F   UNL     1       4.792   4.247  13.390  0.00  0.00    +0.000 F 
ENDBRANCH  21  22
ENDBRANCH  18  21
ENDBRANCH   9  15
BRANCH   6  26
ATOM     26  C   UNL     1       0.513  12.569  19.299  0.00  0.00    +0.000 C 
BRANCH  26  27
ATOM     27  C   UNL     1      -0.153  13.547  18.329  0.00  0.00    +0.000 C 
BRANCH  27  28
ATOM     28  C   UNL     1       0.370  14.973  18.532  0.00  0.00    +0.000 C 
BRANCH  28  29
ATOM     29  N   UNL     1      -0.628  15.872  19.139  0.00  0.00    +0.000 NA
ATOM     30  C   UNL     1      -0.344  16.162  20.544  0.00  0.00    +0.000 C 
ATOM     31  C   UNL     1      -0.707  17.120  18.377  0.00  0.00    +0.000 C 
ENDBRANCH  28  29
ENDBRANCH  27  28
ENDBRANCH  26  27
ENDBRANCH   6  26
TORSDOF 7
ENDMDL
MODEL 6
REMARK VINA RESULT:      -7.4      1.723      3.127
REMARK  Name = 
REMARK  10 active torsions:
REMARK  status: ('A' for Active; 'I' for Inactive)
REMARK    1  A    between atoms: C_1  and  N_2
REMARK    2  A    between atoms: N_6  and  C_7
REMARK    3  A    between atoms: C_7  and  C_8
REMARK    4  A    between atoms: C_8  and  C_9
REMARK    5  A    between atoms: C_9  and  N_10
REMARK    6  A    between atoms: N_10  and  C_11
REMARK    7  A    between atoms: N_10  and  C_12
REMARK    8  A    between atoms: C_15  and  C_16
REMARK    9  A    between atoms: C_19  and  O_20
REMARK   10  A    between atoms: O_20  and  C_21
REMARK                            x       y       z     vdW  Elec       q    Type
REMARK                         _______ _______ _______ _____ _____    ______ ____
ROOT
ATOM      1  C   UNL     1      -1.095  10.179  23.162  0.00  0.00    +0.000 C 
ATOM      2  N   UNL     1       0.123   9.425  22.980  0.00  0.00    +0.000 N 
ATOM      3  C   UNL     1       0.551   9.286  21.668  0.00  0.00    +0.000 A 
ATOM      4  N   UNL     1       0.247  10.226  20.762  0.00  0.00    +0.000 NA
ATOM      5  C   UNL     1       0.718  10.139  19.500  0.00  0.00    +0.000 A 
ATOM      6  N   UNL     1       0.446  11.144  18.566  0.00  0.00    +0.000 N 
ATOM      7  C   UNL     1       1.507   9.032  19.185  0.00  0.00    +0.000 A 
ATOM      8  S   UNL     1       2.283   8.612  17.712  0.00  0.00    +0.000 S 
ATOM      9  C   UNL     1       2.944   7.170  18.365  0.00  0.00    +0.000 A 
ATOM     10  C   UNL     1       2.579   7.027  19.691  0.00  0.00    +0.000 A 
ATOM     11  C   UNL     1       1.758   8.090  20.168  0.00  0.00    +0.000 A 
ATOM     12  N   UNL     1       1.276   8.195  21.425  0.00  0.00    +0.000 NA
ATOM     13  H   UNL     1       0.149   8.503  23.401  0.00  0.00    +0.000 HD
ATOM     14  H   UNL     1       1.080  11.097  17.774  0.00  0.00    +0.000 HD
ENDROOT
BRANCH   9  15
ATOM     15  C   UNL     1       3.749   6.258  17.535  0.00  0.00    +0.000 A 
ATOM     16  C   UNL     1       3.515   4.877  17.498  0.00  0.00    +0.000 A 
ATOM     17  C   UNL     1       4.293   4.042  16.685  0.00  0.00    +0.000 A 
ATOM     18  C   UNL     1       5.303   4.567  15.881  0.00  0.00    +0.000 A 
ATOM     19  C   UNL     1       5.571   5.931  15.937  0.00  0.00    +0.000 A 
ATOM     20  C   UNL     1       4.788   6.772  16.743  0.00  0.00    +0.000 A 
BRANCH  18  21
ATOM     21  O   UNL     1       5.983   3.649  15.142  0.00  0.00    +0.000 OA
BRANCH  21  22
ATOM     22  C   UNL     1       6.069   3.812  13.733  0.00  0.00    +0.000 C 
ATOM     23  F   UNL     1       6.966   4.735  13.327  0.00  0.00    +0.000 F 
ATOM     24  F   UNL     1       6.384   2.626  13.169  0.00  0.00    +0.000 F 
ATOM     25  F   UNL     1       4.854   4.187  13.273  0.00  0.00    +0.000 F 
ENDBRANCH  21  22
ENDBRANCH  18  21
ENDBRANCH   9  15
BRANCH   6  26
ATOM     26  C   UNL     1       0.241  12.484  19.106  0.00  0.00    +0.000 C 
BRANCH  26  27
ATOM     27  C   UNL     1       1.542  13.074  19.656  0.00  0.00    +0.000 C 
BRANCH  27  28
ATOM     28  C   UNL     1       1.641  14.573  19.358  0.00  0.00    +0.000 C 
BRANCH  28  29
ATOM     29  N   UNL     1       3.031  15.052  19.262  0.00  0.00    +0.000 NA
ATOM     30  C   UNL     1       3.526  15.076  17.886  0.00  0.00    +0.000 C 
ATOM     31  C   UNL     1       3.144  16.386  19.857  0.00  0.00    +0.000 C 
ENDBRANCH  28  29
ENDBRANCH  27  28
ENDBRANCH  26  27
ENDBRANCH   6  26
TORSDOF 7
ENDMDL
MODEL 7
REMARK VINA RESULT:      -7.4      1.641      2.716
REMARK  Name = 
REMARK  10 active torsions:
REMARK  status: ('A' for Active; 'I' for Inactive)
REMARK    1  A    between atoms: C_1  and  N_2
REMARK    2  A    between atoms: N_6  and  C_7
REMARK    3  A    between atoms: C_7  and  C_8
REMARK    4  A    between atoms: C_8  and  C_9
REMARK    5  A    between atoms: C_9  and  N_10
REMARK    6  A    between atoms: N_10  and  C_11
REMARK    7  A    between atoms: N_10  and  C_12
REMARK    8  A    between atoms: C_15  and  C_16
REMARK    9  A    between atoms: C_19  and  O_20
REMARK   10  A    between atoms: O_20  and  C_21
REMARK                            x       y       z     vdW  Elec       q    Type
REMARK                         _______ _______ _______ _____ _____    ______ ____
ROOT
ATOM      1  C   UNL     1      -0.943  10.060  23.218  0.00  0.00    +0.000 C 
ATOM      2  N   UNL     1       0.258   9.287  23.010  0.00  0.00    +0.000 N 
ATOM      3  C   UNL     1       0.674   9.169  21.692  0.00  0.00    +0.000 A 
ATOM      4  N   UNL     1       0.381  10.135  20.810  0.00  0.00    +0.000 NA
ATOM      5  C   UNL     1       0.841  10.067  19.541  0.00  0.00    +0.000 A 
ATOM      6  N   UNL     1       0.581  11.097  18.633  0.00  0.00    +0.000 N 
ATOM      7  C   UNL     1       1.606   8.952  19.196  0.00  0.00    +0.000 A 
ATOM      8  S   UNL     1       2.362   8.550  17.708  0.00  0.00    +0.000 S 
ATOM      9  C   UNL     1       3.000   7.081  18.324  0.00  0.00    +0.000 A 
ATOM     10  C   UNL     1       2.643   6.916  19.649  0.00  0.00    +0.000 A 
ATOM     11  C   UNL     1       1.846   7.983  20.156  0.00  0.00    +0.000 A 
ATOM     12  N   UNL     1       1.375   8.070  21.419  0.00  0.00    +0.000 NA
ATOM     13  H   UNL     1       0.270   8.355  23.410  0.00  0.00    +0.000 HD
ATOM     14  H   UNL     1       1.208  11.055  17.835  0.00  0.00    +0.000 HD
ENDROOT
BRANCH   9  15
ATOM     15  C   UNL     1       3.780   6.173  17.467  0.00  0.00    +0.000 A 
ATOM     16  C   UNL     1       4.830   6.626  16.657  0.00  0.00    +0.000 A 
ATOM     17  C   UNL     1       5.559   5.729  15.865  0.00  0.00    +0.000 A 
ATOM     18  C   UNL     1       5.270   4.366  15.878  0.00  0.00    +0.000 A 
ATOM     19  C   UNL     1       4.205   3.909  16.647  0.00  0.00    +0.000 A 
ATOM     20  C   UNL     1       3.478   4.803  17.449  0.00  0.00    +0.000 A 
BRANCH  18  21
ATOM     21  O   UNL     1       6.050   3.606  15.062  0.00  0.00    +0.000 OA
BRANCH  21  22
ATOM     22  C   UNL     1       6.036   3.845  13.661  0.00  0.00    +0.000 C 
ATOM     23  F   UNL     1       4.863   4.308  13.182  0.00  0.00    +0.000 F 
ATOM     24  F   UNL     1       7.009   4.729  13.353  0.00  0.00    +0.000 F 
ATOM     25  F   UNL     1       6.309   2.681  13.029  0.00  0.00    +0.000 F 
ENDBRANCH  21  22
ENDBRANCH  18  21
ENDBRANCH   9  15
BRANCH   6  26
ATOM     26  C   UNL     1       0.406  12.429  19.203  0.00  0.00    +0.000 C 
BRANCH  26  27
ATOM     27  C   UNL     1       1.311  13.456  18.520  0.00  0.00    +0.000 C 
BRANCH  27  28
ATOM     28  C   UNL     1       0.922  14.885  18.912  0.00  0.00    +0.000 C 
BRANCH  28  29
ATOM     29  N   UNL     1       1.543  15.327  20.173  0.00  0.00    +0.000 NA
ATOM     30  C   UNL     1       2.993  15.135  20.186  0.00  0.00    +0.000 C 
ATOM     31  C   UNL     1       1.224  16.735  20.422  0.00  0.00    +0.000 C 
ENDBRANCH  28  29
ENDBRANCH  27  28
ENDBRANCH  26  27
ENDBRANCH   6  26
TORSDOF 7
ENDMDL
MODEL 8
REMARK VINA RESULT:      -7.2      1.534      2.114
REMARK  Name = 
REMARK  10 active torsions:
REMARK  status: ('A' for Active; 'I' for Inactive)
REMARK    1  A    between atoms: C_1  and  N_2
REMARK    2  A    between atoms: N_6  and  C_7
REMARK    3  A    between atoms: C_7  and  C_8
REMARK    4  A    between atoms: C_8  and  C_9
REMARK    5  A    between atoms: C_9  and  N_10
REMARK    6  A    between atoms: N_10  and  C_11
REMARK    7  A    between atoms: N_10  and  C_12
REMARK    8  A    between atoms: C_15  and  C_16
REMARK    9  A    between atoms: C_19  and  O_20
REMARK   10  A    between atoms: O_20  and  C_21
REMARK                            x       y       z     vdW  Elec       q    Type
REMARK                         _______ _______ _______ _____ _____    ______ ____
ROOT
ATOM      1  C   UNL     1      -1.392  10.762  23.154  0.00  0.00    +0.000 C 
ATOM      2  N   UNL     1      -0.197   9.959  23.042  0.00  0.00    +0.000 N 
ATOM      3  C   UNL     1       0.261   9.745  21.750  0.00  0.00    +0.000 A 
ATOM      4  N   UNL     1       0.013  10.651  20.794  0.00  0.00    +0.000 NA
ATOM      5  C   UNL     1       0.515  10.488  19.550  0.00  0.00    +0.000 A 
ATOM      6  N   UNL     1       0.302  11.456  18.564  0.00  0.00    +0.000 N 
ATOM      7  C   UNL     1       1.273   9.342  19.309  0.00  0.00    +0.000 A 
ATOM      8  S   UNL     1       2.073   8.827  17.880  0.00  0.00    +0.000 S 
ATOM      9  C   UNL     1       2.666   7.397  18.617  0.00  0.00    +0.000 A 
ATOM     10  C   UNL     1       2.262   7.329  19.938  0.00  0.00    +0.000 A 
ATOM     11  C   UNL     1       1.465   8.440  20.341  0.00  0.00    +0.000 A 
ATOM     12  N   UNL     1       0.954   8.620  21.578  0.00  0.00    +0.000 NA
ATOM     13  H   UNL     1      -0.213   9.058  23.505  0.00  0.00    +0.000 HD
ATOM     14  H   UNL     1       0.954  11.351  17.793  0.00  0.00    +0.000 HD
ENDROOT
BRANCH   9  15
ATOM     15  C   UNL     1       3.460   6.421  17.852  0.00  0.00    +0.000 A 
ATOM     16  C   UNL     1       4.665   6.764  17.224  0.00  0.00    +0.000 A 
ATOM     17  C   UNL     1       5.400   5.804  16.516  0.00  0.00    +0.000 A 
ATOM     18  C   UNL     1       4.961   4.483  16.437  0.00  0.00    +0.000 A 
ATOM     19  C   UNL     1       3.748   4.139  17.023  0.00  0.00    +0.000 A 
ATOM     20  C   UNL     1       3.013   5.095  17.740  0.00  0.00    +0.000 A 
BRANCH  18  21
ATOM     21  O   UNL     1       5.766   3.654  15.718  0.00  0.00    +0.000 OA
BRANCH  21  22
ATOM     22  C   UNL     1       6.036   3.951  14.355  0.00  0.00    +0.000 C 
ATOM     23  F   UNL     1       6.244   2.870  13.575  0.00  0.00    +0.000 F 
ATOM     24  F   UNL     1       5.008   4.662  13.845  0.00  0.00    +0.000 F 
ATOM     25  F   UNL     1       7.147   4.719  14.299  0.00  0.00    +0.000 F 
ENDBRANCH  21  22
ENDBRANCH  18  21
ENDBRANCH   9  15
BRANCH   6  26
ATOM     26  C   UNL     1       0.129  12.826  19.035  0.00  0.00    +0.000 C 
BRANCH  26  27
ATOM     27  C   UNL     1      -1.351  13.194  19.164  0.00  0.00    +0.000 C 
BRANCH  27  28
ATOM     28  C   UNL     1      -1.635  13.892  20.498  0.00  0.00    +0.000 C 
BRANCH  28  29
ATOM     29  N   UNL     1      -0.453  14.573  21.056  0.00  0.00    +0.000 NA
ATOM     30  C   UNL     1      -0.489  16.021  20.856  0.00  0.00    +0.000 C 
ATOM     31  C   UNL     1      -0.327  14.269  22.484  0.00  0.00    +0.000 C 
ENDBRANCH  28  29
ENDBRANCH  27  28
ENDBRANCH  26  27
ENDBRANCH   6  26
TORSDOF 7
ENDMDL
MODEL 9
REMARK VINA RESULT:      -7.2      3.241      4.733
REMARK  Name = 
REMARK  10 active torsions:
REMARK  status: ('A' for Active; 'I' for Inactive)
REMARK    1  A    between atoms: C_1  and  N_2
REMARK    2  A    between atoms: N_6  and  C_7
REMARK    3  A    between atoms: C_7  and  C_8
REMARK    4  A    between atoms: C_8  and  C_9
REMARK    5  A    between atoms: C_9  and  N_10
REMARK    6  A    between atoms: N_10  and  C_11
REMARK    7  A    between atoms: N_10  and  C_12
REMARK    8  A    between atoms: C_15  and  C_16
REMARK    9  A    between atoms: C_19  and  O_20
REMARK   10  A    between atoms: O_20  and  C_21
REMARK                            x       y       z     vdW  Elec       q    Type
REMARK                         _______ _______ _______ _____ _____    ______ ____
ROOT
ATOM      1  C   UNL     1      -2.077  13.291  22.651  0.00  0.00    +0.000 C 
ATOM      2  N   UNL     1      -1.115  12.275  23.008  0.00  0.00    +0.000 N 
ATOM      3  C   UNL     1      -0.557  11.579  21.946  0.00  0.00    +0.000 A 
ATOM      4  N   UNL     1      -0.442  12.167  20.747  0.00  0.00    +0.000 NA
ATOM      5  C   UNL     1       0.164  11.526  19.724  0.00  0.00    +0.000 A 
ATOM      6  N   UNL     1       0.332  12.155  18.488  0.00  0.00    +0.000 N 
ATOM      7  C   UNL     1       0.638  10.236  19.968  0.00  0.00    +0.000 A 
ATOM      8  S   UNL     1       1.467   9.150  18.928  0.00  0.00    +0.000 S 
ATOM      9  C   UNL     1       1.583   7.937  20.136  0.00  0.00    +0.000 A 
ATOM     10  C   UNL     1       1.002   8.370  21.314  0.00  0.00    +0.000 A 
ATOM     11  C   UNL     1       0.461   9.686  21.225  0.00  0.00    +0.000 A 
ATOM     12  N   UNL     1      -0.150  10.344  22.235  0.00  0.00    +0.000 NA
ATOM     13  H   UNL     1      -1.417  11.587  23.689  0.00  0.00    +0.000 HD
ATOM     14  H   UNL     1       1.034  11.686  17.924  0.00  0.00    +0.000 HD
ENDROOT
BRANCH   9  15
ATOM     15  C   UNL     1       2.203   6.634  19.847  0.00  0.00    +0.000 A 
ATOM     16  C   UNL     1       2.033   5.522  20.683  0.00  0.00    +0.000 A 
ATOM     17  C   UNL     1       2.628   4.294  20.369  0.00  0.00    +0.000 A 
ATOM     18  C   UNL     1       3.387   4.143  19.209  0.00  0.00    +0.000 A 
ATOM     19  C   UNL     1       3.597   5.249  18.392  0.00  0.00    +0.000 A 
ATOM     20  C   UNL     1       2.995   6.479  18.698  0.00  0.00    +0.000 A 
BRANCH  18  21
ATOM     21  O   UNL     1       3.910   2.901  19.024  0.00  0.00    +0.000 OA
BRANCH  21  22
ATOM     22  C   UNL     1       3.103   1.882  18.451  0.00  0.00    +0.000 C 
ATOM     23  F   UNL     1       2.057   1.499  19.213  0.00  0.00    +0.000 F 
ATOM     24  F   UNL     1       2.636   2.305  17.257  0.00  0.00    +0.000 F 
ATOM     25  F   UNL     1       3.878   0.794  18.239  0.00  0.00    +0.000 F 
ENDBRANCH  21  22
ENDBRANCH  18  21
ENDBRANCH   9  15
BRANCH   6  26
ATOM     26  C   UNL     1       0.445  13.610  18.517  0.00  0.00    +0.000 C 
BRANCH  26  27
ATOM     27  C   UNL     1       1.905  14.063  18.452  0.00  0.00    +0.000 C 
BRANCH  27  28
ATOM     28  C   UNL     1       2.403  14.529  19.823  0.00  0.00    +0.000 C 
BRANCH  28  29
ATOM     29  N   UNL     1       3.869  14.468  19.957  0.00  0.00    +0.000 NA
ATOM     30  C   UNL     1       4.566  14.990  18.782  0.00  0.00    +0.000 C 
ATOM     31  C   UNL     1       4.295  15.196  21.155  0.00  0.00    +0.000 C 
ENDBRANCH  28  29
ENDBRANCH  27  28
ENDBRANCH  26  27
ENDBRANCH   6  26
TORSDOF 7
ENDMDL
