MODEL 1
REMARK VINA RESULT:      -5.3      0.000      0.000
REMARK  Name = 
REMARK  2 active torsions:
REMARK  status: ('A' for Active; 'I' for Inactive)
REMARK    1  A    between atoms: C_2  and  C_5
REMARK    2  A    between atoms: N_3  and  O_4
REMARK                            x       y       z     vdW  Elec       q    Type
REMARK                         _______ _______ _______ _____ _____    ______ ____
ROOT
ATOM      1  N   UNL     1       8.383   7.081  18.970  0.00  0.00    +0.000 N 
ATOM      2  C   UNL     1       7.557   5.989  18.834  0.00  0.00    +0.000 C 
ATOM      3  N   UNL     1       7.359   5.139  19.801  0.00  0.00    +0.000 NA
ATOM      4  H   UNL     1       8.628   7.190  19.951  0.00  0.00    +0.000 HD
ATOM      5  H   UNL     1       8.020   7.941  18.575  0.00  0.00    +0.000 HD
ENDROOT
BRANCH   2   6
ATOM      6  C   UNL     1       6.852   5.774  17.540  0.00  0.00    +0.000 A 
ATOM      7  C   UNL     1       5.864   6.667  17.125  0.00  0.00    +0.000 A 
ATOM      8  C   UNL     1       5.239   6.420  15.915  0.00  0.00    +0.000 A 
ATOM      9  N   UNL     1       5.524   5.363  15.125  0.00  0.00    +0.000 NA
ATOM     10  C   UNL     1       6.491   4.521  15.552  0.00  0.00    +0.000 A 
ATOM     11  C   UNL     1       7.183   4.684  16.738  0.00  0.00    +0.000 A 
ENDBRANCH   2   6
BRANCH   3  12
ATOM     12  O   UNL     1       8.091   5.503  20.944  0.00  0.00    +0.000 OA
ATOM     13  H   UNL     1       8.308   4.633  21.329  0.00  0.00    +0.000 HD
ENDBRANCH   3  12
TORSDOF 2
ENDMDL
MODEL 2
REMARK VINA RESULT:      -5.2      3.172      4.446
REMARK  Name = 
REMARK  2 active torsions:
REMARK  status: ('A' for Active; 'I' for Inactive)
REMARK    1  A    between atoms: C_2  and  C_5
REMARK    2  A    between atoms: N_3  and  O_4
REMARK                            x       y       z     vdW  Elec       q    Type
REMARK                         _______ _______ _______ _____ _____    ______ ____
ROOT
ATOM      1  N   UNL     1       6.330   3.637  13.944  0.00  0.00    +0.000 N 
ATOM      2  C   UNL     1       6.847   4.559  14.825  0.00  0.00    +0.000 C 
ATOM      3  N   UNL     1       7.655   5.509  14.446  0.00  0.00    +0.000 NA
ATOM      4  H   UNL     1       6.529   3.940  12.993  0.00  0.00    +0.000 HD
ATOM      5  H   UNL     1       5.347   3.430  14.075  0.00  0.00    +0.000 HD
ENDROOT
BRANCH   2   6
ATOM      6  C   UNL     1       6.462   4.481  16.261  0.00  0.00    +0.000 A 
ATOM      7  C   UNL     1       5.188   4.043  16.622  0.00  0.00    +0.000 A 
ATOM      8  C   UNL     1       4.882   3.991  17.970  0.00  0.00    +0.000 A 
ATOM      9  N   UNL     1       5.740   4.348  18.949  0.00  0.00    +0.000 NA
ATOM     10  C   UNL     1       6.969   4.760  18.567  0.00  0.00    +0.000 A 
ATOM     11  C   UNL     1       7.378   4.838  17.249  0.00  0.00    +0.000 A 
ENDBRANCH   2   6
BRANCH   3  12
ATOM     12  O   UNL     1       7.898   5.437  13.064  0.00  0.00    +0.000 OA
ATOM     13  H   UNL     1       8.246   6.328  12.875  0.00  0.00    +0.000 HD
ENDBRANCH   3  12
TORSDOF 2
ENDMDL
MODEL 3
REMARK VINA RESULT:      -5.1      3.146      4.302
REMARK  Name = 
REMARK  2 active torsions:
REMARK  status: ('A' for Active; 'I' for Inactive)
REMARK    1  A    between atoms: C_2  and  C_5
REMARK    2  A    between atoms: N_3  and  O_4
REMARK                            x       y       z     vdW  Elec       q    Type
REMARK                         _______ _______ _______ _____ _____    ______ ____
ROOT
ATOM      1  N   UNL     1       6.365   3.663  14.178  0.00  0.00    +0.000 N 
ATOM      2  C   UNL     1       6.634   4.559  15.187  0.00  0.00    +0.000 C 
ATOM      3  N   UNL     1       7.484   5.536  15.043  0.00  0.00    +0.000 NA
ATOM      4  H   UNL     1       6.776   4.004  13.313  0.00  0.00    +0.000 HD
ATOM      5  H   UNL     1       5.385   3.433  14.063  0.00  0.00    +0.000 HD
ENDROOT
BRANCH   2   6
ATOM      6  C   UNL     1       5.920   4.420  16.486  0.00  0.00    +0.000 A 
ATOM      7  C   UNL     1       6.548   4.796  17.674  0.00  0.00    +0.000 A 
ATOM      8  C   UNL     1       5.841   4.645  18.853  0.00  0.00    +0.000 A 
ATOM      9  N   UNL     1       4.588   4.146  18.918  0.00  0.00    +0.000 NA
ATOM     10  C   UNL     1       4.004   3.799  17.749  0.00  0.00    +0.000 A 
ATOM     11  C   UNL     1       4.620   3.920  16.517  0.00  0.00    +0.000 A 
ENDBRANCH   2   6
BRANCH   3  12
ATOM     12  O   UNL     1       8.051   5.521  13.758  0.00  0.00    +0.000 OA
ATOM     13  H   UNL     1       8.570   4.696  13.776  0.00  0.00    +0.000 HD
ENDBRANCH   3  12
TORSDOF 2
ENDMDL
MODEL 4
REMARK VINA RESULT:      -5.1      2.905      4.269
REMARK  Name = 
REMARK  2 active torsions:
REMARK  status: ('A' for Active; 'I' for Inactive)
REMARK    1  A    between atoms: C_2  and  C_5
REMARK    2  A    between atoms: N_3  and  O_4
REMARK                            x       y       z     vdW  Elec       q    Type
REMARK                         _______ _______ _______ _____ _____    ______ ____
ROOT
ATOM      1  N   UNL     1       7.565   5.402  14.809  0.00  0.00    +0.000 N 
ATOM      2  C   UNL     1       6.743   4.575  15.538  0.00  0.00    +0.000 C 
ATOM      3  N   UNL     1       6.095   3.582  14.997  0.00  0.00    +0.000 NA
ATOM      4  H   UNL     1       7.708   4.999  13.886  0.00  0.00    +0.000 HD
ATOM      5  H   UNL     1       8.444   5.633  15.258  0.00  0.00    +0.000 HD
ENDROOT
BRANCH   2   6
ATOM      6  C   UNL     1       6.596   4.809  17.002  0.00  0.00    +0.000 A 
ATOM      7  C   UNL     1       7.580   5.508  17.701  0.00  0.00    +0.000 A 
ATOM      8  C   UNL     1       7.395   5.697  19.059  0.00  0.00    +0.000 A 
ATOM      9  N   UNL     1       6.326   5.235  19.742  0.00  0.00    +0.000 NA
ATOM     10  C   UNL     1       5.387   4.569  19.034  0.00  0.00    +0.000 A 
ATOM     11  C   UNL     1       5.471   4.337  17.674  0.00  0.00    +0.000 A 
ENDBRANCH   2   6
BRANCH   3  12
ATOM     12  O   UNL     1       6.360   3.504  13.620  0.00  0.00    +0.000 OA
ATOM     13  H   UNL     1       5.462   3.435  13.246  0.00  0.00    +0.000 HD
ENDBRANCH   3  12
TORSDOF 2
ENDMDL
MODEL 5
REMARK VINA RESULT:      -5.1      2.910      4.257
REMARK  Name = 
REMARK  2 active torsions:
REMARK  status: ('A' for Active; 'I' for Inactive)
REMARK    1  A    between atoms: C_2  and  C_5
REMARK    2  A    between atoms: N_3  and  O_4
REMARK                            x       y       z     vdW  Elec       q    Type
REMARK                         _______ _______ _______ _____ _____    ______ ____
ROOT
ATOM      1  N   UNL     1       7.585   5.363  14.799  0.00  0.00    +0.000 N 
ATOM      2  C   UNL     1       6.739   4.557  15.524  0.00  0.00    +0.000 C 
ATOM      3  N   UNL     1       6.067   3.582  14.981  0.00  0.00    +0.000 NA
ATOM      4  H   UNL     1       7.721   4.956  13.877  0.00  0.00    +0.000 HD
ATOM      5  H   UNL     1       8.468   5.571  15.252  0.00  0.00    +0.000 HD
ENDROOT
BRANCH   2   6
ATOM      6  C   UNL     1       6.592   4.795  16.987  0.00  0.00    +0.000 A 
ATOM      7  C   UNL     1       5.472   4.315  17.666  0.00  0.00    +0.000 A 
ATOM      8  C   UNL     1       5.385   4.565  19.023  0.00  0.00    +0.000 A 
ATOM      9  N   UNL     1       6.313   5.253  19.721  0.00  0.00    +0.000 NA
ATOM     10  C   UNL     1       7.390   5.698  19.037  0.00  0.00    +0.000 A 
ATOM     11  C   UNL     1       7.579   5.492  17.682  0.00  0.00    +0.000 A 
ENDBRANCH   2   6
BRANCH   3  12
ATOM     12  O   UNL     1       6.336   3.497  13.604  0.00  0.00    +0.000 OA
ATOM     13  H   UNL     1       6.403   2.534  13.472  0.00  0.00    +0.000 HD
ENDBRANCH   3  12
TORSDOF 2
ENDMDL
MODEL 6
REMARK VINA RESULT:      -5.1      2.772      2.940
REMARK  Name = 
REMARK  2 active torsions:
REMARK  status: ('A' for Active; 'I' for Inactive)
REMARK    1  A    between atoms: C_2  and  C_5
REMARK    2  A    between atoms: N_3  and  O_4
REMARK                            x       y       z     vdW  Elec       q    Type
REMARK                         _______ _______ _______ _____ _____    ______ ____
ROOT
ATOM      1  N   UNL     1       7.413   4.301  17.856  0.00  0.00    +0.000 N 
ATOM      2  C   UNL     1       6.545   4.826  18.786  0.00  0.00    +0.000 C 
ATOM      3  N   UNL     1       6.958   5.408  19.876  0.00  0.00    +0.000 NA
ATOM      4  H   UNL     1       8.357   4.609  18.074  0.00  0.00    +0.000 HD
ATOM      5  H   UNL     1       7.168   4.492  16.891  0.00  0.00    +0.000 HD
ENDROOT
BRANCH   2   6
ATOM      6  C   UNL     1       5.079   4.739  18.536  0.00  0.00    +0.000 A 
ATOM      7  C   UNL     1       4.187   5.432  19.355  0.00  0.00    +0.000 A 
ATOM      8  C   UNL     1       2.837   5.316  19.080  0.00  0.00    +0.000 A 
ATOM      9  N   UNL     1       2.337   4.565  18.075  0.00  0.00    +0.000 NA
ATOM     10  C   UNL     1       3.227   3.913  17.295  0.00  0.00    +0.000 A 
ATOM     11  C   UNL     1       4.597   3.971  17.478  0.00  0.00    +0.000 A 
ENDBRANCH   2   6
BRANCH   3  12
ATOM     12  O   UNL     1       8.362   5.409  19.940  0.00  0.00    +0.000 OA
ATOM     13  H   UNL     1       8.525   5.887  20.774  0.00  0.00    +0.000 HD
ENDBRANCH   3  12
TORSDOF 2
ENDMDL
MODEL 7
REMARK VINA RESULT:      -5.0      2.704      3.162
REMARK  Name = 
REMARK  2 active torsions:
REMARK  status: ('A' for Active; 'I' for Inactive)
REMARK    1  A    between atoms: C_2  and  C_5
REMARK    2  A    between atoms: N_3  and  O_4
REMARK                            x       y       z     vdW  Elec       q    Type
REMARK                         _______ _______ _______ _____ _____    ______ ____
ROOT
ATOM      1  N   UNL     1       7.348   4.319  17.741  0.00  0.00    +0.000 N 
ATOM      2  C   UNL     1       6.437   4.828  18.638  0.00  0.00    +0.000 C 
ATOM      3  N   UNL     1       6.798   5.382  19.760  0.00  0.00    +0.000 NA
ATOM      4  H   UNL     1       8.282   4.614  18.014  0.00  0.00    +0.000 HD
ATOM      5  H   UNL     1       7.154   4.533  16.770  0.00  0.00    +0.000 HD
ENDROOT
BRANCH   2   6
ATOM      6  C   UNL     1       4.985   4.758  18.311  0.00  0.00    +0.000 A 
ATOM      7  C   UNL     1       4.463   3.627  17.685  0.00  0.00    +0.000 A 
ATOM      8  C   UNL     1       3.108   3.613  17.403  0.00  0.00    +0.000 A 
ATOM      9  N   UNL     1       2.272   4.634  17.690  0.00  0.00    +0.000 NA
ATOM     10  C   UNL     1       2.808   5.712  18.304  0.00  0.00    +0.000 A 
ATOM     11  C   UNL     1       4.145   5.820  18.639  0.00  0.00    +0.000 A 
ENDBRANCH   2   6
BRANCH   3  12
ATOM     12  O   UNL     1       8.196   5.372  19.896  0.00  0.00    +0.000 OA
ATOM     13  H   UNL     1       8.368   6.253  20.276  0.00  0.00    +0.000 HD
ENDBRANCH   3  12
TORSDOF 2
ENDMDL
MODEL 8
REMARK VINA RESULT:      -5.0      3.581      4.241
REMARK  Name = 
REMARK  2 active torsions:
REMARK  status: ('A' for Active; 'I' for Inactive)
REMARK    1  A    between atoms: C_2  and  C_5
REMARK    2  A    between atoms: N_3  and  O_4
REMARK                            x       y       z     vdW  Elec       q    Type
REMARK                         _______ _______ _______ _____ _____    ______ ____
ROOT
ATOM      1  N   UNL     1       4.360   2.518  18.559  0.00  0.00    +0.000 N 
ATOM      2  C   UNL     1       3.648   3.218  17.612  0.00  0.00    +0.000 C 
ATOM      3  N   UNL     1       2.428   2.902  17.282  0.00  0.00    +0.000 NA
ATOM      4  H   UNL     1       3.729   1.887  19.048  0.00  0.00    +0.000 HD
ATOM      5  H   UNL     1       4.890   3.093  19.204  0.00  0.00    +0.000 HD
ENDROOT
BRANCH   2   6
ATOM      6  C   UNL     1       4.288   4.387  16.946  0.00  0.00    +0.000 A 
ATOM      7  C   UNL     1       4.091   5.673  17.449  0.00  0.00    +0.000 A 
ATOM      8  C   UNL     1       4.707   6.723  16.793  0.00  0.00    +0.000 A 
ATOM      9  N   UNL     1       5.474   6.573  15.692  0.00  0.00    +0.000 NA
ATOM     10  C   UNL     1       5.652   5.314  15.234  0.00  0.00    +0.000 A 
ATOM     11  C   UNL     1       5.090   4.196  15.823  0.00  0.00    +0.000 A 
ENDBRANCH   2   6
BRANCH   3  12
ATOM     12  O   UNL     1       1.984   1.789  18.014  0.00  0.00    +0.000 OA
ATOM     13  H   UNL     1       2.181   2.059  18.930  0.00  0.00    +0.000 HD
ENDBRANCH   3  12
TORSDOF 2
ENDMDL
MODEL 9
REMARK VINA RESULT:      -5.0      3.615      3.886
REMARK  Name = 
REMARK  2 active torsions:
REMARK  status: ('A' for Active; 'I' for Inactive)
REMARK    1  A    between atoms: C_2  and  C_5
REMARK    2  A    between atoms: N_3  and  O_4
REMARK                            x       y       z     vdW  Elec       q    Type
REMARK                         _______ _______ _______ _____ _____    ______ ____
ROOT
ATOM      1  N   UNL     1       6.281   4.000  16.661  0.00  0.00    +0.000 N 
ATOM      2  C   UNL     1       5.576   4.137  17.834  0.00  0.00    +0.000 C 
ATOM      3  N   UNL     1       6.139   4.514  18.947  0.00  0.00    +0.000 NA
ATOM      4  H   UNL     1       7.205   4.408  16.781  0.00  0.00    +0.000 HD
ATOM      5  H   UNL     1       5.813   4.364  15.839  0.00  0.00    +0.000 HD
ENDROOT
BRANCH   2   6
ATOM      6  C   UNL     1       4.113   3.857  17.835  0.00  0.00    +0.000 A 
ATOM      7  C   UNL     1       3.199   4.910  17.799  0.00  0.00    +0.000 A 
ATOM      8  C   UNL     1       1.852   4.595  17.802  0.00  0.00    +0.000 A 
ATOM      9  N   UNL     1       1.377   3.332  17.849  0.00  0.00    +0.000 NA
ATOM     10  C   UNL     1       2.288   2.334  17.874  0.00  0.00    +0.000 A 
ATOM     11  C   UNL     1       3.655   2.541  17.863  0.00  0.00    +0.000 A 
ENDBRANCH   2   6
BRANCH   3  12
ATOM     12  O   UNL     1       7.512   4.744  18.759  0.00  0.00    +0.000 OA
ATOM     13  H   UNL     1       7.575   4.803  17.788  0.00  0.00    +0.000 HD
ENDBRANCH   3  12
TORSDOF 2
ENDMDL
