MODEL 1
REMARK VINA RESULT:      -9.0      0.000      0.000
REMARK  Name = 
REMARK  7 active torsions:
REMARK  status: ('A' for Active; 'I' for Inactive)
REMARK    1  A    between atoms: C_1  and  C_2
REMARK    2  A    between atoms: C_7  and  C_8
REMARK    3  A    between atoms: C_11  and  C_12
REMARK    4  A    between atoms: C_16  and  C_17
REMARK    5  A    between atoms: C_21  and  C_22
REMARK    6  A    between atoms: C_21  and  C_23
REMARK    7  A    between atoms: C_26  and  C_27
REMARK                            x       y       z     vdW  Elec       q    Type
REMARK                         _______ _______ _______ _____ _____    ______ ____
ROOT
ATOM      1  C   UNL     1       1.130  10.036  19.510  0.00  0.00    +0.000 A 
ATOM      2  C   UNL     1       1.718   9.286  18.483  0.00  0.00    +0.000 A 
ATOM      3  C   UNL     1       2.139   7.977  18.680  0.00  0.00    +0.000 A 
ATOM      4  C   UNL     1       1.907   7.372  19.908  0.00  0.00    +0.000 A 
ATOM      5  C   UNL     1       1.249   8.046  20.925  0.00  0.00    +0.000 A 
ATOM      6  C   UNL     1       0.881   9.391  20.760  0.00  0.00    +0.000 A 
ATOM      7  C   UNL     1       0.196  10.027  21.936  0.00  0.00    +0.000 C 
ENDROOT
BRANCH   4   8
ATOM      8  C   UNL     1       2.173   5.941  20.026  0.00  0.00    +0.000 C 
ATOM      9  O   UNL     1       1.539   5.329  20.895  0.00  0.00    +0.000 OA
ATOM     10  N   UNL     1       3.202   5.381  19.274  0.00  0.00    +0.000 N 
ATOM     11  C   UNL     1       3.508   4.018  19.760  0.00  0.00    +0.000 C 
ATOM     12  C   UNL     1       4.119   3.415  18.520  0.00  0.00    +0.000 C 
ATOM     13  C   UNL     1       4.151   1.904  18.464  0.00  0.00    +0.000 C 
ATOM     14  C   UNL     1       3.017   3.905  17.533  0.00  0.00    +0.000 C 
ATOM     15  C   UNL     1       3.166   5.390  17.759  0.00  0.00    +0.000 C 
ATOM     16  C   UNL     1       4.423   5.663  16.850  0.00  0.00    +0.000 C 
ATOM     17  C   UNL     1       5.778   5.096  17.343  0.00  0.00    +0.000 C 
ATOM     18  C   UNL     1       6.627   4.315  16.308  0.00  0.00    +0.000 C 
ATOM     19  C   UNL     1       6.612   6.345  17.715  0.00  0.00    +0.000 C 
ATOM     20  C   UNL     1       5.546   4.100  18.493  0.00  0.00    +0.000 C 
ENDBRANCH   4   8
BRANCH   1  27
ATOM     21  C   UNL     1      -1.639  10.868  18.420  0.00  0.00    +0.000 C 
ATOM     22  C   UNL     1      -0.512  11.824  18.705  0.00  0.00    +0.000 A 
ATOM     23  C   UNL     1      -0.761  13.188  18.440  0.00  0.00    +0.000 A 
ATOM     24  C   UNL     1       0.214  14.158  18.654  0.00  0.00    +0.000 A 
ATOM     25  C   UNL     1       1.432  13.794  19.200  0.00  0.00    +0.000 A 
ATOM     26  C   UNL     1       1.680  12.460  19.517  0.00  0.00    +0.000 A 
ATOM     27  C   UNL     1       0.748  11.441  19.231  0.00  0.00    +0.000 A 
ENDBRANCH   1  27
TORSDOF 2
ENDMDL
MODEL 2
REMARK VINA RESULT:      -8.8      2.162      8.286
REMARK  Name = 
REMARK  7 active torsions:
REMARK  status: ('A' for Active; 'I' for Inactive)
REMARK    1  A    between atoms: C_1  and  C_2
REMARK    2  A    between atoms: C_7  and  C_8
REMARK    3  A    between atoms: C_11  and  C_12
REMARK    4  A    between atoms: C_16  and  C_17
REMARK    5  A    between atoms: C_21  and  C_22
REMARK    6  A    between atoms: C_21  and  C_23
REMARK    7  A    between atoms: C_26  and  C_27
REMARK                            x       y       z     vdW  Elec       q    Type
REMARK                         _______ _______ _______ _____ _____    ______ ____
ROOT
ATOM      1  C   UNL     1       2.679   6.988  18.642  0.00  0.00    +0.000 A 
ATOM      2  C   UNL     1       2.471   8.192  17.956  0.00  0.00    +0.000 A 
ATOM      3  C   UNL     1       1.699   9.217  18.490  0.00  0.00    +0.000 A 
ATOM      4  C   UNL     1       1.178   9.071  19.769  0.00  0.00    +0.000 A 
ATOM      5  C   UNL     1       1.432   7.934  20.520  0.00  0.00    +0.000 A 
ATOM      6  C   UNL     1       2.152   6.865  19.964  0.00  0.00    +0.000 A 
ATOM      7  C   UNL     1       2.347   5.675  20.860  0.00  0.00    +0.000 C 
ENDROOT
BRANCH   4   8
ATOM      8  C   UNL     1       0.544  10.234  20.385  0.00  0.00    +0.000 C 
ATOM      9  O   UNL     1       1.033  10.631  21.450  0.00  0.00    +0.000 OA
ATOM     10  N   UNL     1      -0.632  10.734  19.834  0.00  0.00    +0.000 N 
ATOM     11  C   UNL     1      -1.268  11.691  20.765  0.00  0.00    +0.000 C 
ATOM     12  C   UNL     1      -2.077  12.518  19.799  0.00  0.00    +0.000 C 
ATOM     13  C   UNL     1      -2.515  13.878  20.294  0.00  0.00    +0.000 C 
ATOM     14  C   UNL     1      -0.933  12.735  18.763  0.00  0.00    +0.000 C 
ATOM     15  C   UNL     1      -0.668  11.288  18.424  0.00  0.00    +0.000 C 
ATOM     16  C   UNL     1      -1.849  11.041  17.411  0.00  0.00    +0.000 C 
ATOM     17  C   UNL     1      -3.281  11.007  18.002  0.00  0.00    +0.000 C 
ATOM     18  C   UNL     1      -4.356  11.855  17.278  0.00  0.00    +0.000 C 
ATOM     19  C   UNL     1      -3.731   9.534  17.848  0.00  0.00    +0.000 C 
ATOM     20  C   UNL     1      -3.268  11.537  19.446  0.00  0.00    +0.000 C 
ENDBRANCH   4   8
BRANCH   1  27
ATOM     21  C   UNL     1       1.483   4.321  17.644  0.00  0.00    +0.000 C 
ATOM     22  C   UNL     1       2.939   4.692  17.548  0.00  0.00    +0.000 A 
ATOM     23  C   UNL     1       3.796   3.733  16.965  0.00  0.00    +0.000 A 
ATOM     24  C   UNL     1       5.162   3.965  16.838  0.00  0.00    +0.000 A 
ATOM     25  C   UNL     1       5.689   5.184  17.228  0.00  0.00    +0.000 A 
ATOM     26  C   UNL     1       4.851   6.163  17.760  0.00  0.00    +0.000 A 
ATOM     27  C   UNL     1       3.479   5.929  17.984  0.00  0.00    +0.000 A 
ENDBRANCH   1  27
TORSDOF 2
ENDMDL
MODEL 3
REMARK VINA RESULT:      -8.3      2.172      8.402
REMARK  Name = 
REMARK  7 active torsions:
REMARK  status: ('A' for Active; 'I' for Inactive)
REMARK    1  A    between atoms: C_1  and  C_2
REMARK    2  A    between atoms: C_7  and  C_8
REMARK    3  A    between atoms: C_11  and  C_12
REMARK    4  A    between atoms: C_16  and  C_17
REMARK    5  A    between atoms: C_21  and  C_22
REMARK    6  A    between atoms: C_21  and  C_23
REMARK    7  A    between atoms: C_26  and  C_27
REMARK                            x       y       z     vdW  Elec       q    Type
REMARK                         _______ _______ _______ _____ _____    ______ ____
ROOT
ATOM      1  C   UNL     1       2.182   6.104  19.452  0.00  0.00    +0.000 A 
ATOM      2  C   UNL     1       1.479   6.230  20.657  0.00  0.00    +0.000 A 
ATOM      3  C   UNL     1       1.101   7.469  21.160  0.00  0.00    +0.000 A 
ATOM      4  C   UNL     1       1.367   8.608  20.412  0.00  0.00    +0.000 A 
ATOM      5  C   UNL     1       1.982   8.524  19.173  0.00  0.00    +0.000 A 
ATOM      6  C   UNL     1       2.429   7.285  18.688  0.00  0.00    +0.000 A 
ATOM      7  C   UNL     1       3.103   7.316  17.345  0.00  0.00    +0.000 C 
ENDROOT
BRANCH   4   8
ATOM      8  C   UNL     1       0.786   9.871  20.861  0.00  0.00    +0.000 C 
ATOM      9  O   UNL     1       1.202  10.320  21.937  0.00  0.00    +0.000 OA
ATOM     10  N   UNL     1      -0.278  10.416  20.149  0.00  0.00    +0.000 N 
ATOM     11  C   UNL     1      -0.913  11.502  20.927  0.00  0.00    +0.000 C 
ATOM     12  C   UNL     1      -1.542  12.304  19.816  0.00  0.00    +0.000 C 
ATOM     13  C   UNL     1      -1.899  13.735  20.151  0.00  0.00    +0.000 C 
ATOM     14  C   UNL     1      -0.286  12.331  18.894  0.00  0.00    +0.000 C 
ATOM     15  C   UNL     1      -0.124  10.842  18.703  0.00  0.00    +0.000 C 
ATOM     16  C   UNL     1      -1.216  10.605  17.593  0.00  0.00    +0.000 C 
ATOM     17  C   UNL     1      -2.697  10.743  18.029  0.00  0.00    +0.000 C 
ATOM     18  C   UNL     1      -3.612  11.610  17.128  0.00  0.00    +0.000 C 
ATOM     19  C   UNL     1      -3.263   9.306  17.947  0.00  0.00    +0.000 C 
ATOM     20  C   UNL     1      -2.778  11.398  19.418  0.00  0.00    +0.000 C 
ENDBRANCH   4   8
BRANCH   1  27
ATOM     21  C   UNL     1       5.111   5.122  19.420  0.00  0.00    +0.000 C 
ATOM     22  C   UNL     1       3.932   4.303  18.967  0.00  0.00    +0.000 A 
ATOM     23  C   UNL     1       4.213   3.004  18.491  0.00  0.00    +0.000 A 
ATOM     24  C   UNL     1       3.201   2.166  18.033  0.00  0.00    +0.000 A 
ATOM     25  C   UNL     1       1.883   2.581  18.105  0.00  0.00    +0.000 A 
ATOM     26  C   UNL     1       1.581   3.841  18.618  0.00  0.00    +0.000 A 
ATOM     27  C   UNL     1       2.586   4.749  19.007  0.00  0.00    +0.000 A 
ENDBRANCH   1  27
TORSDOF 2
ENDMDL
MODEL 4
REMARK VINA RESULT:      -8.3      2.254      8.462
REMARK  Name = 
REMARK  7 active torsions:
REMARK  status: ('A' for Active; 'I' for Inactive)
REMARK    1  A    between atoms: C_1  and  C_2
REMARK    2  A    between atoms: C_7  and  C_8
REMARK    3  A    between atoms: C_11  and  C_12
REMARK    4  A    between atoms: C_16  and  C_17
REMARK    5  A    between atoms: C_21  and  C_22
REMARK    6  A    between atoms: C_21  and  C_23
REMARK    7  A    between atoms: C_26  and  C_27
REMARK                            x       y       z     vdW  Elec       q    Type
REMARK                         _______ _______ _______ _____ _____    ______ ____
ROOT
ATOM      1  C   UNL     1       2.579   6.357  18.491  0.00  0.00    +0.000 A 
ATOM      2  C   UNL     1       2.913   7.211  17.432  0.00  0.00    +0.000 A 
ATOM      3  C   UNL     1       2.580   8.560  17.444  0.00  0.00    +0.000 A 
ATOM      4  C   UNL     1       1.961   9.090  18.569  0.00  0.00    +0.000 A 
ATOM      5  C   UNL     1       1.691   8.302  19.676  0.00  0.00    +0.000 A 
ATOM      6  C   UNL     1       1.961   6.924  19.647  0.00  0.00    +0.000 A 
ATOM      7  C   UNL     1       1.606   6.164  20.893  0.00  0.00    +0.000 C 
ENDROOT
BRANCH   4   8
ATOM      8  C   UNL     1       1.804  10.541  18.642  0.00  0.00    +0.000 C 
ATOM      9  O   UNL     1       2.555  11.215  17.924  0.00  0.00    +0.000 OA
ATOM     10  N   UNL     1       0.944  11.081  19.592  0.00  0.00    +0.000 N 
ATOM     11  C   UNL     1       1.161  12.539  19.711  0.00  0.00    +0.000 C 
ATOM     12  C   UNL     1      -0.180  12.973  20.247  0.00  0.00    +0.000 C 
ATOM     13  C   UNL     1      -0.518  14.437  20.078  0.00  0.00    +0.000 C 
ATOM     14  C   UNL     1      -1.039  12.166  19.228  0.00  0.00    +0.000 C 
ATOM     15  C   UNL     1      -0.541  10.782  19.571  0.00  0.00    +0.000 C 
ATOM     16  C   UNL     1      -1.404  10.512  20.861  0.00  0.00    +0.000 C 
ATOM     17  C   UNL     1      -1.049  11.336  22.124  0.00  0.00    +0.000 C 
ATOM     18  C   UNL     1      -2.227  12.014  22.870  0.00  0.00    +0.000 C 
ATOM     19  C   UNL     1      -0.464  10.300  23.113  0.00  0.00    +0.000 C 
ATOM     20  C   UNL     1      -0.103  12.490  21.753  0.00  0.00    +0.000 C 
ENDBRANCH   4   8
BRANCH   1  27
ATOM     21  C   UNL     1       5.330   5.208  19.304  0.00  0.00    +0.000 C 
ATOM     22  C   UNL     1       4.202   4.394  18.727  0.00  0.00    +0.000 A 
ATOM     23  C   UNL     1       4.448   3.016  18.548  0.00  0.00    +0.000 A 
ATOM     24  C   UNL     1       3.481   2.172  18.009  0.00  0.00    +0.000 A 
ATOM     25  C   UNL     1       2.229   2.673  17.703  0.00  0.00    +0.000 A 
ATOM     26  C   UNL     1       1.950   4.022  17.920  0.00  0.00    +0.000 A 
ATOM     27  C   UNL     1       2.932   4.922  18.380  0.00  0.00    +0.000 A 
ENDBRANCH   1  27
TORSDOF 2
ENDMDL
MODEL 5
REMARK VINA RESULT:      -8.3      1.682      7.920
REMARK  Name = 
REMARK  7 active torsions:
REMARK  status: ('A' for Active; 'I' for Inactive)
REMARK    1  A    between atoms: C_1  and  C_2
REMARK    2  A    between atoms: C_7  and  C_8
REMARK    3  A    between atoms: C_11  and  C_12
REMARK    4  A    between atoms: C_16  and  C_17
REMARK    5  A    between atoms: C_21  and  C_22
REMARK    6  A    between atoms: C_21  and  C_23
REMARK    7  A    between atoms: C_26  and  C_27
REMARK                            x       y       z     vdW  Elec       q    Type
REMARK                         _______ _______ _______ _____ _____    ______ ____
ROOT
ATOM      1  C   UNL     1       4.204   6.018  17.612  0.00  0.00    +0.000 A 
ATOM      2  C   UNL     1       3.644   7.285  17.405  0.00  0.00    +0.000 A 
ATOM      3  C   UNL     1       2.739   7.843  18.299  0.00  0.00    +0.000 A 
ATOM      4  C   UNL     1       2.436   7.154  19.467  0.00  0.00    +0.000 A 
ATOM      5  C   UNL     1       3.032   5.938  19.757  0.00  0.00    +0.000 A 
ATOM      6  C   UNL     1       3.895   5.334  18.827  0.00  0.00    +0.000 A 
ATOM      7  C   UNL     1       4.466   4.006  19.236  0.00  0.00    +0.000 C 
ENDROOT
BRANCH   4   8
ATOM      8  C   UNL     1       1.644   7.846  20.481  0.00  0.00    +0.000 C 
ATOM      9  O   UNL     1       1.718   7.406  21.636  0.00  0.00    +0.000 OA
ATOM     10  N   UNL     1       0.761   8.845  20.084  0.00  0.00    +0.000 N 
ATOM     11  C   UNL     1      -0.153   9.193  21.194  0.00  0.00    +0.000 C 
ATOM     12  C   UNL     1      -0.536  10.599  20.804  0.00  0.00    +0.000 C 
ATOM     13  C   UNL     1      -1.097  11.464  21.910  0.00  0.00    +0.000 C 
ATOM     14  C   UNL     1       0.911  11.091  20.503  0.00  0.00    +0.000 C 
ATOM     15  C   UNL     1       1.253  10.109  19.408  0.00  0.00    +0.000 C 
ATOM     16  C   UNL     1       0.519  10.805  18.200  0.00  0.00    +0.000 C 
ATOM     17  C   UNL     1      -1.030  10.786  18.219  0.00  0.00    +0.000 C 
ATOM     18  C   UNL     1      -1.749  12.130  17.946  0.00  0.00    +0.000 C 
ATOM     19  C   UNL     1      -1.422   9.852  17.049  0.00  0.00    +0.000 C 
ATOM     20  C   UNL     1      -1.535  10.343  19.603  0.00  0.00    +0.000 C 
ENDBRANCH   4   8
BRANCH   1  27
ATOM     21  C   UNL     1       7.235   6.617  17.560  0.00  0.00    +0.000 C 
ATOM     22  C   UNL     1       6.514   5.771  16.544  0.00  0.00    +0.000 A 
ATOM     23  C   UNL     1       7.300   5.232  15.502  0.00  0.00    +0.000 A 
ATOM     24  C   UNL     1       6.736   4.447  14.501  0.00  0.00    +0.000 A 
ATOM     25  C   UNL     1       5.391   4.128  14.558  0.00  0.00    +0.000 A 
ATOM     26  C   UNL     1       4.609   4.607  15.607  0.00  0.00    +0.000 A 
ATOM     27  C   UNL     1       5.128   5.477  16.587  0.00  0.00    +0.000 A 
ENDBRANCH   1  27
TORSDOF 2
ENDMDL
MODEL 6
REMARK VINA RESULT:      -8.1      2.133      8.380
REMARK  Name = 
REMARK  7 active torsions:
REMARK  status: ('A' for Active; 'I' for Inactive)
REMARK    1  A    between atoms: C_1  and  C_2
REMARK    2  A    between atoms: C_7  and  C_8
REMARK    3  A    between atoms: C_11  and  C_12
REMARK    4  A    between atoms: C_16  and  C_17
REMARK    5  A    between atoms: C_21  and  C_22
REMARK    6  A    between atoms: C_21  and  C_23
REMARK    7  A    between atoms: C_26  and  C_27
REMARK                            x       y       z     vdW  Elec       q    Type
REMARK                         _______ _______ _______ _____ _____    ______ ____
ROOT
ATOM      1  C   UNL     1       2.615   6.853  18.559  0.00  0.00    +0.000 A 
ATOM      2  C   UNL     1       2.421   8.049  17.854  0.00  0.00    +0.000 A 
ATOM      3  C   UNL     1       1.705   9.111  18.393  0.00  0.00    +0.000 A 
ATOM      4  C   UNL     1       1.227   9.009  19.693  0.00  0.00    +0.000 A 
ATOM      5  C   UNL     1       1.470   7.881  20.459  0.00  0.00    +0.000 A 
ATOM      6  C   UNL     1       2.133   6.776  19.901  0.00  0.00    +0.000 A 
ATOM      7  C   UNL     1       2.321   5.599  20.816  0.00  0.00    +0.000 C 
ENDROOT
BRANCH   4   8
ATOM      8  C   UNL     1       0.656  10.207  20.306  0.00  0.00    +0.000 C 
ATOM      9  O   UNL     1       1.205  10.616  21.338  0.00  0.00    +0.000 OA
ATOM     10  N   UNL     1      -0.528  10.728  19.795  0.00  0.00    +0.000 N 
ATOM     11  C   UNL     1      -1.093  11.727  20.728  0.00  0.00    +0.000 C 
ATOM     12  C   UNL     1      -1.920  12.554  19.777  0.00  0.00    +0.000 C 
ATOM     13  C   UNL     1      -2.295  13.939  20.256  0.00  0.00    +0.000 C 
ATOM     14  C   UNL     1      -0.819  12.710  18.686  0.00  0.00    +0.000 C 
ATOM     15  C   UNL     1      -0.612  11.247  18.374  0.00  0.00    +0.000 C 
ATOM     16  C   UNL     1      -1.844  11.011  17.421  0.00  0.00    +0.000 C 
ATOM     17  C   UNL     1      -3.249  11.036  18.076  0.00  0.00    +0.000 C 
ATOM     18  C   UNL     1      -4.330  11.898  17.379  0.00  0.00    +0.000 C 
ATOM     19  C   UNL     1      -3.748   9.574  17.982  0.00  0.00    +0.000 C 
ATOM     20  C   UNL     1      -3.155  11.601  19.504  0.00  0.00    +0.000 C 
ENDBRANCH   4   8
BRANCH   1  27
ATOM     21  C   UNL     1       5.529   7.110  17.566  0.00  0.00    +0.000 C 
ATOM     22  C   UNL     1       4.682   5.875  17.415  0.00  0.00    +0.000 A 
ATOM     23  C   UNL     1       5.282   4.776  16.763  0.00  0.00    +0.000 A 
ATOM     24  C   UNL     1       4.586   3.589  16.556  0.00  0.00    +0.000 A 
ATOM     25  C   UNL     1       3.303   3.451  17.054  0.00  0.00    +0.000 A 
ATOM     26  C   UNL     1       2.711   4.507  17.745  0.00  0.00    +0.000 A 
ATOM     27  C   UNL     1       3.353   5.753  17.895  0.00  0.00    +0.000 A 
ENDBRANCH   1  27
TORSDOF 2
ENDMDL
MODEL 7
REMARK VINA RESULT:      -8.0      0.560      1.283
REMARK  Name = 
REMARK  7 active torsions:
REMARK  status: ('A' for Active; 'I' for Inactive)
REMARK    1  A    between atoms: C_1  and  C_2
REMARK    2  A    between atoms: C_7  and  C_8
REMARK    3  A    between atoms: C_11  and  C_12
REMARK    4  A    between atoms: C_16  and  C_17
REMARK    5  A    between atoms: C_21  and  C_22
REMARK    6  A    between atoms: C_21  and  C_23
REMARK    7  A    between atoms: C_26  and  C_27
REMARK                            x       y       z     vdW  Elec       q    Type
REMARK                         _______ _______ _______ _____ _____    ______ ____
ROOT
ATOM      1  C   UNL     1       0.984  10.125  19.492  0.00  0.00    +0.000 A 
ATOM      2  C   UNL     1       1.435   9.357  18.411  0.00  0.00    +0.000 A 
ATOM      3  C   UNL     1       1.918   8.066  18.579  0.00  0.00    +0.000 A 
ATOM      4  C   UNL     1       1.888   7.496  19.845  0.00  0.00    +0.000 A 
ATOM      5  C   UNL     1       1.369   8.185  20.929  0.00  0.00    +0.000 A 
ATOM      6  C   UNL     1       0.942   9.515  20.783  0.00  0.00    +0.000 A 
ATOM      7  C   UNL     1       0.420  10.172  22.029  0.00  0.00    +0.000 C 
ENDROOT
BRANCH   4   8
ATOM      8  C   UNL     1       2.211   6.075  19.962  0.00  0.00    +0.000 C 
ATOM      9  O   UNL     1       1.592   5.436  20.823  0.00  0.00    +0.000 OA
ATOM     10  N   UNL     1       3.269   5.559  19.220  0.00  0.00    +0.000 N 
ATOM     11  C   UNL     1       3.625   4.209  19.706  0.00  0.00    +0.000 C 
ATOM     12  C   UNL     1       4.273   3.635  18.471  0.00  0.00    +0.000 C 
ATOM     13  C   UNL     1       4.367   2.127  18.412  0.00  0.00    +0.000 C 
ATOM     14  C   UNL     1       3.163   4.083  17.474  0.00  0.00    +0.000 C 
ATOM     15  C   UNL     1       3.250   5.572  17.705  0.00  0.00    +0.000 C 
ATOM     16  C   UNL     1       4.505   5.898  16.811  0.00  0.00    +0.000 C 
ATOM     17  C   UNL     1       5.876   5.384  17.317  0.00  0.00    +0.000 C 
ATOM     18  C   UNL     1       6.766   4.641  16.289  0.00  0.00    +0.000 C 
ATOM     19  C   UNL     1       6.655   6.665  17.702  0.00  0.00    +0.000 C 
ATOM     20  C   UNL     1       5.672   4.377  18.461  0.00  0.00    +0.000 C 
ENDBRANCH   4   8
BRANCH   1  27
ATOM     21  C   UNL     1       2.758  12.296  18.195  0.00  0.00    +0.000 C 
ATOM     22  C   UNL     1       1.344  12.517  18.662  0.00  0.00    +0.000 A 
ATOM     23  C   UNL     1       0.820  13.817  18.491  0.00  0.00    +0.000 A 
ATOM     24  C   UNL     1      -0.471  14.137  18.900  0.00  0.00    +0.000 A 
ATOM     25  C   UNL     1      -1.287  13.150  19.425  0.00  0.00    +0.000 A 
ATOM     26  C   UNL     1      -0.806  11.849  19.555  0.00  0.00    +0.000 A 
ATOM     27  C   UNL     1       0.524  11.510  19.233  0.00  0.00    +0.000 A 
ENDBRANCH   1  27
TORSDOF 2
ENDMDL
MODEL 8
REMARK VINA RESULT:      -8.0      1.984      3.191
REMARK  Name = 
REMARK  7 active torsions:
REMARK  status: ('A' for Active; 'I' for Inactive)
REMARK    1  A    between atoms: C_1  and  C_2
REMARK    2  A    between atoms: C_7  and  C_8
REMARK    3  A    between atoms: C_11  and  C_12
REMARK    4  A    between atoms: C_16  and  C_17
REMARK    5  A    between atoms: C_21  and  C_22
REMARK    6  A    between atoms: C_21  and  C_23
REMARK    7  A    between atoms: C_26  and  C_27
REMARK                            x       y       z     vdW  Elec       q    Type
REMARK                         _______ _______ _______ _____ _____    ______ ____
ROOT
ATOM      1  C   UNL     1       0.211  10.467  19.965  0.00  0.00    +0.000 A 
ATOM      2  C   UNL     1       0.870  10.805  18.776  0.00  0.00    +0.000 A 
ATOM      3  C   UNL     1       1.779   9.946  18.170  0.00  0.00    +0.000 A 
ATOM      4  C   UNL     1       1.986   8.689  18.723  0.00  0.00    +0.000 A 
ATOM      5  C   UNL     1       1.291   8.277  19.848  0.00  0.00    +0.000 A 
ATOM      6  C   UNL     1       0.423   9.163  20.506  0.00  0.00    +0.000 A 
ATOM      7  C   UNL     1      -0.259   8.617  21.729  0.00  0.00    +0.000 C 
ENDROOT
BRANCH   4   8
ATOM      8  C   UNL     1       2.788   7.733  17.962  0.00  0.00    +0.000 C 
ATOM      9  O   UNL     1       3.295   8.148  16.911  0.00  0.00    +0.000 OA
ATOM     10  N   UNL     1       2.821   6.403  18.370  0.00  0.00    +0.000 N 
ATOM     11  C   UNL     1       3.417   5.557  17.313  0.00  0.00    +0.000 C 
ATOM     12  C   UNL     1       3.912   4.396  18.137  0.00  0.00    +0.000 C 
ATOM     13  C   UNL     1       4.975   3.532  17.496  0.00  0.00    +0.000 C 
ATOM     14  C   UNL     1       4.598   5.253  19.243  0.00  0.00    +0.000 C 
ATOM     15  C   UNL     1       3.381   6.007  19.721  0.00  0.00    +0.000 C 
ATOM     16  C   UNL     1       2.744   4.905  20.649  0.00  0.00    +0.000 C 
ATOM     17  C   UNL     1       2.135   3.665  19.946  0.00  0.00    +0.000 C 
ATOM     18  C   UNL     1       2.537   2.277  20.506  0.00  0.00    +0.000 C 
ATOM     19  C   UNL     1       0.612   3.792  20.184  0.00  0.00    +0.000 C 
ATOM     20  C   UNL     1       2.565   3.633  18.470  0.00  0.00    +0.000 C 
ENDBRANCH   4   8
BRANCH   1  27
ATOM     21  C   UNL     1      -2.460  11.325  18.671  0.00  0.00    +0.000 C 
ATOM     22  C   UNL     1      -1.924  11.875  19.966  0.00  0.00    +0.000 A 
ATOM     23  C   UNL     1      -2.712  12.854  20.608  0.00  0.00    +0.000 A 
ATOM     24  C   UNL     1      -2.306  13.441  21.803  0.00  0.00    +0.000 A 
ATOM     25  C   UNL     1      -1.141  13.013  22.415  0.00  0.00    +0.000 A 
ATOM     26  C   UNL     1      -0.375  12.011  21.822  0.00  0.00    +0.000 A 
ATOM     27  C   UNL     1      -0.710  11.458  20.569  0.00  0.00    +0.000 A 
ENDBRANCH   1  27
TORSDOF 2
ENDMDL
MODEL 9
REMARK VINA RESULT:      -7.9      0.873      1.531
REMARK  Name = 
REMARK  7 active torsions:
REMARK  status: ('A' for Active; 'I' for Inactive)
REMARK    1  A    between atoms: C_1  and  C_2
REMARK    2  A    between atoms: C_7  and  C_8
REMARK    3  A    between atoms: C_11  and  C_12
REMARK    4  A    between atoms: C_16  and  C_17
REMARK    5  A    between atoms: C_21  and  C_22
REMARK    6  A    between atoms: C_21  and  C_23
REMARK    7  A    between atoms: C_26  and  C_27
REMARK                            x       y       z     vdW  Elec       q    Type
REMARK                         _______ _______ _______ _____ _____    ______ ____
ROOT
ATOM      1  C   UNL     1       0.921   9.539  19.986  0.00  0.00    +0.000 A 
ATOM      2  C   UNL     1       0.605   8.775  21.117  0.00  0.00    +0.000 A 
ATOM      3  C   UNL     1       0.940   7.430  21.212  0.00  0.00    +0.000 A 
ATOM      4  C   UNL     1       1.671   6.845  20.187  0.00  0.00    +0.000 A 
ATOM      5  C   UNL     1       2.083   7.583  19.089  0.00  0.00    +0.000 A 
ATOM      6  C   UNL     1       1.690   8.924  18.951  0.00  0.00    +0.000 A 
ATOM      7  C   UNL     1       2.175   9.620  17.710  0.00  0.00    +0.000 C 
ENDROOT
BRANCH   4   8
ATOM      8  C   UNL     1       2.184   5.493  20.399  0.00  0.00    +0.000 C 
ATOM      9  O   UNL     1       1.871   4.943  21.463  0.00  0.00    +0.000 OA
ATOM     10  N   UNL     1       3.088   4.962  19.485  0.00  0.00    +0.000 N 
ATOM     11  C   UNL     1       3.713   3.739  20.034  0.00  0.00    +0.000 C 
ATOM     12  C   UNL     1       4.112   3.039  18.759  0.00  0.00    +0.000 C 
ATOM     13  C   UNL     1       4.372   1.554  18.871  0.00  0.00    +0.000 C 
ATOM     14  C   UNL     1       2.750   3.230  18.027  0.00  0.00    +0.000 C 
ATOM     15  C   UNL     1       2.706   4.739  18.036  0.00  0.00    +0.000 C 
ATOM     16  C   UNL     1       3.662   5.030  16.818  0.00  0.00    +0.000 C 
ATOM     17  C   UNL     1       5.166   4.721  17.020  0.00  0.00    +0.000 C 
ATOM     18  C   UNL     1       5.869   3.908  15.904  0.00  0.00    +0.000 C 
ATOM     19  C   UNL     1       5.852   6.108  17.027  0.00  0.00    +0.000 C 
ATOM     20  C   UNL     1       5.366   3.889  18.299  0.00  0.00    +0.000 C 
ENDBRANCH   4   8
BRANCH   1  27
ATOM     21  C   UNL     1      -1.607  10.508  18.499  0.00  0.00    +0.000 C 
ATOM     22  C   UNL     1      -0.656  11.408  19.242  0.00  0.00    +0.000 A 
ATOM     23  C   UNL     1      -0.960  12.787  19.236  0.00  0.00    +0.000 A 
ATOM     24  C   UNL     1      -0.143  13.712  19.879  0.00  0.00    +0.000 A 
ATOM     25  C   UNL     1       0.955  13.272  20.597  0.00  0.00    +0.000 A 
ATOM     26  C   UNL     1       1.244  11.909  20.657  0.00  0.00    +0.000 A 
ATOM     27  C   UNL     1       0.489  10.955  19.945  0.00  0.00    +0.000 A 
ENDBRANCH   1  27
TORSDOF 2
ENDMDL
