MODEL 1
REMARK VINA RESULT:      -8.6      0.000      0.000
REMARK  Name = 
REMARK  4 active torsions:
REMARK  status: ('A' for Active; 'I' for Inactive)
REMARK    1  A    between atoms: C_1  and  N_2
REMARK    2  A    between atoms: C_4  and  C_5
REMARK    3  A    between atoms: C_10  and  C_11
REMARK    4  A    between atoms: C_16  and  C_17
REMARK                            x       y       z     vdW  Elec       q    Type
REMARK                         _______ _______ _______ _____ _____    ______ ____
ROOT
ATOM      1  C   UNL     1       5.496   4.531  17.647  0.00  0.00    +0.000 C 
ATOM      2  O   UNL     1       5.783   3.623  18.428  0.00  0.00    +0.000 OA
ATOM      3  N   UNL     1       4.593   5.546  18.003  0.00  0.00    +0.000 N 
ATOM      4  C   UNL     1       4.041   5.443  19.344  0.00  0.00    +0.000 C 
ATOM      5  C   UNL     1       3.002   6.489  19.636  0.00  0.00    +0.000 C 
ATOM      6  C   UNL     1       2.647   7.489  18.808  0.00  0.00    +0.000 C 
ATOM      7  C   UNL     1       3.307   7.594  17.454  0.00  0.00    +0.000 C 
ATOM      8  C   UNL     1       4.665   6.893  17.431  0.00  0.00    +0.000 C 
ENDROOT
BRANCH   6   9
ATOM      9  C   UNL     1       1.611   8.488  19.165  0.00  0.00    +0.000 A 
ATOM     10  C   UNL     1       0.969   9.242  18.179  0.00  0.00    +0.000 A 
ATOM     11  C   UNL     1       0.007  10.197  18.519  0.00  0.00    +0.000 A 
ATOM     12  C   UNL     1      -0.344  10.417  19.854  0.00  0.00    +0.000 A 
ATOM     13 CL   UNL     1      -1.552  11.612  20.145  0.00  0.00    +0.000 Cl
ATOM     14  C   UNL     1       0.276   9.687  20.869  0.00  0.00    +0.000 A 
ATOM     15  C   UNL     1       1.261   8.737  20.503  0.00  0.00    +0.000 A 
BRANCH  14  16
ATOM     16  C   UNL     1      -0.031   9.821  22.337  0.00  0.00    +0.000 C 
ATOM     17  F   UNL     1      -1.110   9.140  22.802  0.00  0.00    +0.000 F 
ATOM     18  F   UNL     1       1.017   9.408  23.108  0.00  0.00    +0.000 F 
ATOM     19  F   UNL     1      -0.243  11.122  22.693  0.00  0.00    +0.000 F 
ENDBRANCH  14  16
ENDBRANCH   6   9
BRANCH   1  23
ATOM     20  C   UNL     1       6.621   3.957  12.848  0.00  0.00    +0.000 C 
ATOM     21  N   UNL     1       6.578   4.338  14.234  0.00  0.00    +0.000 N 
ATOM     22  C   UNL     1       5.658   3.995  15.173  0.00  0.00    +0.000 A 
ATOM     23  C   UNL     1       6.120   4.590  16.330  0.00  0.00    +0.000 A 
ATOM     24  N   UNL     1       7.262   5.297  16.031  0.00  0.00    +0.000 NA
ATOM     25  N   UNL     1       7.543   5.116  14.748  0.00  0.00    +0.000 NA
ENDBRANCH   1  23
TORSDOF 3
ENDMDL
MODEL 2
REMARK VINA RESULT:      -8.3      0.824      1.040
REMARK  Name = 
REMARK  4 active torsions:
REMARK  status: ('A' for Active; 'I' for Inactive)
REMARK    1  A    between atoms: C_1  and  N_2
REMARK    2  A    between atoms: C_4  and  C_5
REMARK    3  A    between atoms: C_10  and  C_11
REMARK    4  A    between atoms: C_16  and  C_17
REMARK                            x       y       z     vdW  Elec       q    Type
REMARK                         _______ _______ _______ _____ _____    ______ ____
ROOT
ATOM      1  C   UNL     1       4.959   4.343  16.677  0.00  0.00    +0.000 C 
ATOM      2  O   UNL     1       4.809   3.187  17.076  0.00  0.00    +0.000 OA
ATOM      3  N   UNL     1       4.238   5.410  17.236  0.00  0.00    +0.000 N 
ATOM      4  C   UNL     1       3.323   5.047  18.306  0.00  0.00    +0.000 C 
ATOM      5  C   UNL     1       2.499   6.206  18.795  0.00  0.00    +0.000 C 
ATOM      6  C   UNL     1       2.620   7.480  18.379  0.00  0.00    +0.000 C 
ATOM      7  C   UNL     1       3.639   7.815  17.318  0.00  0.00    +0.000 C 
ATOM      8  C   UNL     1       4.761   6.779  17.264  0.00  0.00    +0.000 C 
ENDROOT
BRANCH   6   9
ATOM      9  C   UNL     1       1.770   8.574  18.909  0.00  0.00    +0.000 A 
ATOM     10  C   UNL     1       1.487   9.704  18.137  0.00  0.00    +0.000 A 
ATOM     11  C   UNL     1       0.702  10.742  18.645  0.00  0.00    +0.000 A 
ATOM     12  C   UNL     1       0.173  10.675  19.938  0.00  0.00    +0.000 A 
ATOM     13 CL   UNL     1      -0.788  12.012  20.446  0.00  0.00    +0.000 Cl
ATOM     14  C   UNL     1       0.435   9.565  20.743  0.00  0.00    +0.000 A 
ATOM     15  C   UNL     1       1.247   8.532  20.213  0.00  0.00    +0.000 A 
BRANCH  14  16
ATOM     16  C   UNL     1      -0.093   9.371  22.139  0.00  0.00    +0.000 C 
ATOM     17  F   UNL     1      -0.874  10.361  22.642  0.00  0.00    +0.000 F 
ATOM     18  F   UNL     1      -0.842   8.233  22.237  0.00  0.00    +0.000 F 
ATOM     19  F   UNL     1       0.917   9.212  23.045  0.00  0.00    +0.000 F 
ENDBRANCH  14  16
ENDBRANCH   6   9
BRANCH   1  23
ATOM     20  C   UNL     1       7.398   4.671  12.368  0.00  0.00    +0.000 C 
ATOM     21  N   UNL     1       6.958   4.779  13.733  0.00  0.00    +0.000 N 
ATOM     22  C   UNL     1       5.821   4.288  14.292  0.00  0.00    +0.000 A 
ATOM     23  C   UNL     1       5.925   4.636  15.625  0.00  0.00    +0.000 A 
ATOM     24  N   UNL     1       7.086   5.354  15.799  0.00  0.00    +0.000 NA
ATOM     25  N   UNL     1       7.719   5.415  14.636  0.00  0.00    +0.000 NA
ENDBRANCH   1  23
TORSDOF 3
ENDMDL
MODEL 3
REMARK VINA RESULT:      -8.3      0.842      1.047
REMARK  Name = 
REMARK  4 active torsions:
REMARK  status: ('A' for Active; 'I' for Inactive)
REMARK    1  A    between atoms: C_1  and  N_2
REMARK    2  A    between atoms: C_4  and  C_5
REMARK    3  A    between atoms: C_10  and  C_11
REMARK    4  A    between atoms: C_16  and  C_17
REMARK                            x       y       z     vdW  Elec       q    Type
REMARK                         _______ _______ _______ _____ _____    ______ ____
ROOT
ATOM      1  C   UNL     1       4.948   4.553  18.313  0.00  0.00    +0.000 C 
ATOM      2  O   UNL     1       5.100   3.690  19.179  0.00  0.00    +0.000 OA
ATOM      3  N   UNL     1       4.085   5.644  18.509  0.00  0.00    +0.000 N 
ATOM      4  C   UNL     1       3.406   5.674  19.794  0.00  0.00    +0.000 C 
ATOM      5  C   UNL     1       2.417   6.800  19.910  0.00  0.00    +0.000 C 
ATOM      6  C   UNL     1       2.208   7.755  18.985  0.00  0.00    +0.000 C 
ATOM      7  C   UNL     1       2.996   7.718  17.698  0.00  0.00    +0.000 C 
ATOM      8  C   UNL     1       4.300   6.938  17.856  0.00  0.00    +0.000 C 
ENDROOT
BRANCH   6   9
ATOM      9  C   UNL     1       1.212   8.838  19.170  0.00  0.00    +0.000 A 
ATOM     10  C   UNL     1       0.564   9.414  18.074  0.00  0.00    +0.000 A 
ATOM     11  C   UNL     1      -0.361  10.448  18.249  0.00  0.00    +0.000 A 
ATOM     12  C   UNL     1      -0.665  10.928  19.526  0.00  0.00    +0.000 A 
ATOM     13 CL   UNL     1      -1.829  12.198  19.613  0.00  0.00    +0.000 Cl
ATOM     14  C   UNL     1      -0.036  10.383  20.646  0.00  0.00    +0.000 A 
ATOM     15  C   UNL     1       0.909   9.348  20.445  0.00  0.00    +0.000 A 
BRANCH  14  16
ATOM     16  C   UNL     1      -0.296  10.803  22.069  0.00  0.00    +0.000 C 
ATOM     17  F   UNL     1       0.332  10.093  23.041  0.00  0.00    +0.000 F 
ATOM     18  F   UNL     1       0.063  12.103  22.281  0.00  0.00    +0.000 F 
ATOM     19  F   UNL     1      -1.625  10.744  22.379  0.00  0.00    +0.000 F 
ENDBRANCH  14  16
ENDBRANCH   6   9
BRANCH   1  23
ATOM     20  C   UNL     1       6.337   3.886  13.596  0.00  0.00    +0.000 C 
ATOM     21  N   UNL     1       6.269   4.194  14.999  0.00  0.00    +0.000 N 
ATOM     22  C   UNL     1       5.195   4.113  15.827  0.00  0.00    +0.000 A 
ATOM     23  C   UNL     1       5.694   4.476  17.063  0.00  0.00    +0.000 A 
ATOM     24  N   UNL     1       7.023   4.800  16.918  0.00  0.00    +0.000 NA
ATOM     25  N   UNL     1       7.367   4.602  15.653  0.00  0.00    +0.000 NA
ENDBRANCH   1  23
TORSDOF 3
ENDMDL
MODEL 4
REMARK VINA RESULT:      -8.1      2.389      2.879
REMARK  Name = 
REMARK  4 active torsions:
REMARK  status: ('A' for Active; 'I' for Inactive)
REMARK    1  A    between atoms: C_1  and  N_2
REMARK    2  A    between atoms: C_4  and  C_5
REMARK    3  A    between atoms: C_10  and  C_11
REMARK    4  A    between atoms: C_16  and  C_17
REMARK                            x       y       z     vdW  Elec       q    Type
REMARK                         _______ _______ _______ _____ _____    ______ ____
ROOT
ATOM      1  C   UNL     1       4.729   4.703  18.171  0.00  0.00    +0.000 C 
ATOM      2  O   UNL     1       4.791   3.841  19.049  0.00  0.00    +0.000 OA
ATOM      3  N   UNL     1       3.915   5.838  18.315  0.00  0.00    +0.000 N 
ATOM      4  C   UNL     1       3.173   5.914  19.564  0.00  0.00    +0.000 C 
ATOM      5  C   UNL     1       2.238   7.089  19.622  0.00  0.00    +0.000 C 
ATOM      6  C   UNL     1       2.127   8.046  18.682  0.00  0.00    +0.000 C 
ATOM      7  C   UNL     1       2.977   7.959  17.438  0.00  0.00    +0.000 C 
ATOM      8  C   UNL     1       4.229   7.114  17.667  0.00  0.00    +0.000 C 
ENDROOT
BRANCH   6   9
ATOM      9  C   UNL     1       1.180   9.181  18.809  0.00  0.00    +0.000 A 
ATOM     10  C   UNL     1       1.386  10.187  19.757  0.00  0.00    +0.000 A 
ATOM     11  C   UNL     1       0.484  11.245  19.889  0.00  0.00    +0.000 A 
ATOM     12  C   UNL     1      -0.647  11.329  19.071  0.00  0.00    +0.000 A 
ATOM     13 CL   UNL     1      -1.679  12.687  19.321  0.00  0.00    +0.000 Cl
ATOM     14  C   UNL     1      -0.892  10.342  18.114  0.00  0.00    +0.000 A 
ATOM     15  C   UNL     1       0.028   9.270  18.009  0.00  0.00    +0.000 A 
BRANCH  14  16
ATOM     16  C   UNL     1      -2.061  10.335  17.165  0.00  0.00    +0.000 C 
ATOM     17  F   UNL     1      -2.277  11.469  16.451  0.00  0.00    +0.000 F 
ATOM     18  F   UNL     1      -1.946   9.339  16.238  0.00  0.00    +0.000 F 
ATOM     19  F   UNL     1      -3.237  10.085  17.813  0.00  0.00    +0.000 F 
ENDBRANCH  14  16
ENDBRANCH   6   9
BRANCH   1  23
ATOM     20  C   UNL     1       6.329   3.897  13.543  0.00  0.00    +0.000 C 
ATOM     21  N   UNL     1       6.200   4.235  14.935  0.00  0.00    +0.000 N 
ATOM     22  C   UNL     1       5.084   4.205  15.709  0.00  0.00    +0.000 A 
ATOM     23  C   UNL     1       5.533   4.577  16.961  0.00  0.00    +0.000 A 
ATOM     24  N   UNL     1       6.878   4.858  16.877  0.00  0.00    +0.000 NA
ATOM     25  N   UNL     1       7.278   4.623  15.635  0.00  0.00    +0.000 NA
ENDBRANCH   1  23
TORSDOF 3
ENDMDL
MODEL 5
REMARK VINA RESULT:      -8.0      5.669      8.180
REMARK  Name = 
REMARK  4 active torsions:
REMARK  status: ('A' for Active; 'I' for Inactive)
REMARK    1  A    between atoms: C_1  and  N_2
REMARK    2  A    between atoms: C_4  and  C_5
REMARK    3  A    between atoms: C_10  and  C_11
REMARK    4  A    between atoms: C_16  and  C_17
REMARK                            x       y       z     vdW  Elec       q    Type
REMARK                         _______ _______ _______ _____ _____    ______ ____
ROOT
ATOM      1  C   UNL     1       0.736  11.711  20.911  0.00  0.00    +0.000 C 
ATOM      2  O   UNL     1       0.245  11.914  22.022  0.00  0.00    +0.000 OA
ATOM      3  N   UNL     1       1.068  10.415  20.483  0.00  0.00    +0.000 N 
ATOM      4  C   UNL     1       0.783   9.355  21.437  0.00  0.00    +0.000 C 
ATOM      5  C   UNL     1       1.255   8.005  20.975  0.00  0.00    +0.000 C 
ATOM      6  C   UNL     1       1.809   7.739  19.777  0.00  0.00    +0.000 C 
ATOM      7  C   UNL     1       2.013   8.865  18.794  0.00  0.00    +0.000 C 
ATOM      8  C   UNL     1       1.068  10.033  19.068  0.00  0.00    +0.000 C 
ENDROOT
BRANCH   6   9
ATOM      9  C   UNL     1       2.250   6.377  19.389  0.00  0.00    +0.000 A 
ATOM     10  C   UNL     1       2.695   6.107  18.092  0.00  0.00    +0.000 A 
ATOM     11  C   UNL     1       3.092   4.819  17.723  0.00  0.00    +0.000 A 
ATOM     12  C   UNL     1       3.063   3.768  18.645  0.00  0.00    +0.000 A 
ATOM     13 CL   UNL     1       3.588   2.229  18.073  0.00  0.00    +0.000 Cl
ATOM     14  C   UNL     1       2.622   3.995  19.949  0.00  0.00    +0.000 A 
ATOM     15  C   UNL     1       2.208   5.304  20.297  0.00  0.00    +0.000 A 
BRANCH  14  16
ATOM     16  C   UNL     1       2.564   2.951  21.032  0.00  0.00    +0.000 C 
ATOM     17  F   UNL     1       3.681   2.202  21.222  0.00  0.00    +0.000 F 
ATOM     18  F   UNL     1       2.288   3.505  22.249  0.00  0.00    +0.000 F 
ATOM     19  F   UNL     1       1.559   2.051  20.815  0.00  0.00    +0.000 F 
ENDBRANCH  14  16
ENDBRANCH   6   9
BRANCH   1  23
ATOM     20  C   UNL     1       2.733  15.295  18.120  0.00  0.00    +0.000 C 
ATOM     21  N   UNL     1       1.854  14.363  18.773  0.00  0.00    +0.000 N 
ATOM     22  C   UNL     1       2.176  13.368  19.640  0.00  0.00    +0.000 A 
ATOM     23  C   UNL     1       0.958  12.821  19.992  0.00  0.00    +0.000 A 
ATOM     24  N   UNL     1      -0.032  13.473  19.292  0.00  0.00    +0.000 NA
ATOM     25  N   UNL     1       0.530  14.429  18.566  0.00  0.00    +0.000 NA
ENDBRANCH   1  23
TORSDOF 3
ENDMDL
MODEL 6
REMARK VINA RESULT:      -8.0      5.544      8.694
REMARK  Name = 
REMARK  4 active torsions:
REMARK  status: ('A' for Active; 'I' for Inactive)
REMARK    1  A    between atoms: C_1  and  N_2
REMARK    2  A    between atoms: C_4  and  C_5
REMARK    3  A    between atoms: C_10  and  C_11
REMARK    4  A    between atoms: C_16  and  C_17
REMARK                            x       y       z     vdW  Elec       q    Type
REMARK                         _______ _______ _______ _____ _____    ______ ____
ROOT
ATOM      1  C   UNL     1       0.544  11.563  19.537  0.00  0.00    +0.000 C 
ATOM      2  O   UNL     1       0.648  12.351  18.596  0.00  0.00    +0.000 OA
ATOM      3  N   UNL     1       1.029  10.247  19.448  0.00  0.00    +0.000 N 
ATOM      4  C   UNL     1       1.658   9.903  18.183  0.00  0.00    +0.000 C 
ATOM      5  C   UNL     1       2.062   8.457  18.101  0.00  0.00    +0.000 C 
ATOM      6  C   UNL     1       1.954   7.559  19.098  0.00  0.00    +0.000 C 
ATOM      7  C   UNL     1       1.362   7.990  20.418  0.00  0.00    +0.000 C 
ATOM      8  C   UNL     1       1.481   9.499  20.624  0.00  0.00    +0.000 C 
ENDROOT
BRANCH   6   9
ATOM      9  C   UNL     1       2.376   6.145  18.943  0.00  0.00    +0.000 A 
ATOM     10  C   UNL     1       2.927   5.686  17.744  0.00  0.00    +0.000 A 
ATOM     11  C   UNL     1       3.307   4.350  17.593  0.00  0.00    +0.000 A 
ATOM     12  C   UNL     1       3.152   3.438  18.643  0.00  0.00    +0.000 A 
ATOM     13 CL   UNL     1       3.668   1.821  18.339  0.00  0.00    +0.000 Cl
ATOM     14  C   UNL     1       2.602   3.856  19.856  0.00  0.00    +0.000 A 
ATOM     15  C   UNL     1       2.209   5.211  19.980  0.00  0.00    +0.000 A 
BRANCH  14  16
ATOM     16  C   UNL     1       2.405   2.974  21.060  0.00  0.00    +0.000 C 
ATOM     17  F   UNL     1       1.910   3.566  22.178  0.00  0.00    +0.000 F 
ATOM     18  F   UNL     1       1.554   1.941  20.790  0.00  0.00    +0.000 F 
ATOM     19  F   UNL     1       3.572   2.383  21.451  0.00  0.00    +0.000 F 
ENDBRANCH  14  16
ENDBRANCH   6   9
BRANCH   1  23
ATOM     20  C   UNL     1      -2.567  12.416  23.307  0.00  0.00    +0.000 C 
ATOM     21  N   UNL     1      -1.434  12.336  22.426  0.00  0.00    +0.000 N 
ATOM     22  C   UNL     1      -1.351  11.723  21.216  0.00  0.00    +0.000 A 
ATOM     23  C   UNL     1      -0.065  11.993  20.790  0.00  0.00    +0.000 A 
ATOM     24  N   UNL     1       0.579  12.709  21.773  0.00  0.00    +0.000 NA
ATOM     25  N   UNL     1      -0.279  12.931  22.760  0.00  0.00    +0.000 NA
ENDBRANCH   1  23
TORSDOF 3
ENDMDL
MODEL 7
REMARK VINA RESULT:      -8.0      5.646      8.751
REMARK  Name = 
REMARK  4 active torsions:
REMARK  status: ('A' for Active; 'I' for Inactive)
REMARK    1  A    between atoms: C_1  and  N_2
REMARK    2  A    between atoms: C_4  and  C_5
REMARK    3  A    between atoms: C_10  and  C_11
REMARK    4  A    between atoms: C_16  and  C_17
REMARK                            x       y       z     vdW  Elec       q    Type
REMARK                         _______ _______ _______ _____ _____    ______ ____
ROOT
ATOM      1  C   UNL     1       0.551  11.821  19.563  0.00  0.00    +0.000 C 
ATOM      2  O   UNL     1       0.697  12.700  18.713  0.00  0.00    +0.000 OA
ATOM      3  N   UNL     1       1.062  10.527  19.374  0.00  0.00    +0.000 N 
ATOM      4  C   UNL     1       1.768  10.317  18.120  0.00  0.00    +0.000 C 
ATOM      5  C   UNL     1       2.200   8.891  17.919  0.00  0.00    +0.000 C 
ATOM      6  C   UNL     1       2.049   7.896  18.814  0.00  0.00    +0.000 C 
ATOM      7  C   UNL     1       1.375   8.187  20.133  0.00  0.00    +0.000 C 
ATOM      8  C   UNL     1       1.457   9.669  20.494  0.00  0.00    +0.000 C 
ENDROOT
BRANCH   6   9
ATOM      9  C   UNL     1       2.502   6.510  18.545  0.00  0.00    +0.000 A 
ATOM     10  C   UNL     1       3.624   6.261  17.749  0.00  0.00    +0.000 A 
ATOM     11  C   UNL     1       4.039   4.954  17.482  0.00  0.00    +0.000 A 
ATOM     12  C   UNL     1       3.346   3.860  18.010  0.00  0.00    +0.000 A 
ATOM     13 CL   UNL     1       3.962   2.298  17.618  0.00  0.00    +0.000 Cl
ATOM     14  C   UNL     1       2.219   4.065  18.807  0.00  0.00    +0.000 A 
ATOM     15  C   UNL     1       1.806   5.398  19.051  0.00  0.00    +0.000 A 
BRANCH  14  16
ATOM     16  C   UNL     1       1.405   2.971  19.446  0.00  0.00    +0.000 C 
ATOM     17  F   UNL     1       0.734   2.138  18.609  0.00  0.00    +0.000 F 
ATOM     18  F   UNL     1       2.181   2.158  20.221  0.00  0.00    +0.000 F 
ATOM     19  F   UNL     1       0.458   3.473  20.292  0.00  0.00    +0.000 F 
ENDBRANCH  14  16
ENDBRANCH   6   9
BRANCH   1  23
ATOM     20  C   UNL     1      -2.764  12.200  23.236  0.00  0.00    +0.000 C 
ATOM     21  N   UNL     1      -1.592  12.254  22.405  0.00  0.00    +0.000 N 
ATOM     22  C   UNL     1      -1.419  11.741  21.159  0.00  0.00    +0.000 A 
ATOM     23  C   UNL     1      -0.136  12.118  20.815  0.00  0.00    +0.000 A 
ATOM     24  N   UNL     1       0.420  12.794  21.877  0.00  0.00    +0.000 NA
ATOM     25  N   UNL     1      -0.491  12.888  22.836  0.00  0.00    +0.000 NA
ENDBRANCH   1  23
TORSDOF 3
ENDMDL
MODEL 8
REMARK VINA RESULT:      -7.9      5.844      8.634
REMARK  Name = 
REMARK  4 active torsions:
REMARK  status: ('A' for Active; 'I' for Inactive)
REMARK    1  A    between atoms: C_1  and  N_2
REMARK    2  A    between atoms: C_4  and  C_5
REMARK    3  A    between atoms: C_10  and  C_11
REMARK    4  A    between atoms: C_16  and  C_17
REMARK                            x       y       z     vdW  Elec       q    Type
REMARK                         _______ _______ _______ _____ _____    ______ ____
ROOT
ATOM      1  C   UNL     1       0.373  11.031  21.075  0.00  0.00    +0.000 C 
ATOM      2  O   UNL     1       0.041  10.882  22.252  0.00  0.00    +0.000 OA
ATOM      3  N   UNL     1       0.970   9.989  20.345  0.00  0.00    +0.000 N 
ATOM      4  C   UNL     1       1.153   8.746  21.077  0.00  0.00    +0.000 C 
ATOM      5  C   UNL     1       1.891   7.702  20.287  0.00  0.00    +0.000 C 
ATOM      6  C   UNL     1       2.285   7.825  19.005  0.00  0.00    +0.000 C 
ATOM      7  C   UNL     1       2.001   9.112  18.269  0.00  0.00    +0.000 C 
ATOM      8  C   UNL     1       0.833   9.874  18.891  0.00  0.00    +0.000 C 
ENDROOT
BRANCH   6   9
ATOM      9  C   UNL     1       3.010   6.748  18.288  0.00  0.00    +0.000 A 
ATOM     10  C   UNL     1       4.030   7.048  17.382  0.00  0.00    +0.000 A 
ATOM     11  C   UNL     1       4.700   6.034  16.693  0.00  0.00    +0.000 A 
ATOM     12  C   UNL     1       4.371   4.690  16.898  0.00  0.00    +0.000 A 
ATOM     13 CL   UNL     1       5.275   3.531  15.998  0.00  0.00    +0.000 Cl
ATOM     14  C   UNL     1       3.355   4.348  17.792  0.00  0.00    +0.000 A 
ATOM     15  C   UNL     1       2.678   5.394  18.467  0.00  0.00    +0.000 A 
BRANCH  14  16
ATOM     16  C   UNL     1       2.925   2.941  18.110  0.00  0.00    +0.000 C 
ATOM     17  F   UNL     1       1.962   2.793  19.055  0.00  0.00    +0.000 F 
ATOM     18  F   UNL     1       2.447   2.301  17.002  0.00  0.00    +0.000 F 
ATOM     19  F   UNL     1       3.973   2.177  18.538  0.00  0.00    +0.000 F 
ENDBRANCH  14  16
ENDBRANCH   6   9
BRANCH   1  23
ATOM     20  C   UNL     1       0.772  15.542  19.047  0.00  0.00    +0.000 C 
ATOM     21  N   UNL     1       0.326  14.253  19.505  0.00  0.00    +0.000 N 
ATOM     22  C   UNL     1       1.041  13.298  20.154  0.00  0.00    +0.000 A 
ATOM     23  C   UNL     1       0.122  12.296  20.395  0.00  0.00    +0.000 A 
ATOM     24  N   UNL     1      -1.084  12.668  19.845  0.00  0.00    +0.000 NA
ATOM     25  N   UNL     1      -0.949  13.879  19.322  0.00  0.00    +0.000 NA
ENDBRANCH   1  23
TORSDOF 3
ENDMDL
MODEL 9
REMARK VINA RESULT:      -7.9      5.899      8.605
REMARK  Name = 
REMARK  4 active torsions:
REMARK  status: ('A' for Active; 'I' for Inactive)
REMARK    1  A    between atoms: C_1  and  N_2
REMARK    2  A    between atoms: C_4  and  C_5
REMARK    3  A    between atoms: C_10  and  C_11
REMARK    4  A    between atoms: C_16  and  C_17
REMARK                            x       y       z     vdW  Elec       q    Type
REMARK                         _______ _______ _______ _____ _____    ______ ____
ROOT
ATOM      1  C   UNL     1      -0.017  11.654  21.737  0.00  0.00    +0.000 C 
ATOM      2  O   UNL     1      -0.423  11.736  22.897  0.00  0.00    +0.000 OA
ATOM      3  N   UNL     1       0.462  10.442  21.212  0.00  0.00    +0.000 N 
ATOM      4  C   UNL     1       0.433   9.315  22.130  0.00  0.00    +0.000 C 
ATOM      5  C   UNL     1       1.053   8.072  21.556  0.00  0.00    +0.000 C 
ATOM      6  C   UNL     1       1.522   7.941  20.301  0.00  0.00    +0.000 C 
ATOM      7  C   UNL     1       1.460   9.124  19.365  0.00  0.00    +0.000 C 
ATOM      8  C   UNL     1       0.381  10.121  19.785  0.00  0.00    +0.000 C 
ENDROOT
BRANCH   6   9
ATOM      9  C   UNL     1       2.122   6.680  19.804  0.00  0.00    +0.000 A 
ATOM     10  C   UNL     1       2.871   6.656  18.624  0.00  0.00    +0.000 A 
ATOM     11  C   UNL     1       3.421   5.463  18.146  0.00  0.00    +0.000 A 
ATOM     12  C   UNL     1       3.240   4.262  18.840  0.00  0.00    +0.000 A 
ATOM     13 CL   UNL     1       3.975   2.861  18.156  0.00  0.00    +0.000 Cl
ATOM     14  C   UNL     1       2.495   4.243  20.020  0.00  0.00    +0.000 A 
ATOM     15  C   UNL     1       1.934   5.461  20.477  0.00  0.00    +0.000 A 
BRANCH  14  16
ATOM     16  C   UNL     1       2.249   3.019  20.863  0.00  0.00    +0.000 C 
ATOM     17  F   UNL     1       1.524   3.193  21.998  0.00  0.00    +0.000 F 
ATOM     18  F   UNL     1       1.595   2.050  20.159  0.00  0.00    +0.000 F 
ATOM     19  F   UNL     1       3.418   2.440  21.266  0.00  0.00    +0.000 F 
ENDBRANCH  14  16
ENDBRANCH   6   9
BRANCH   1  23
ATOM     20  C   UNL     1       1.135  15.639  19.013  0.00  0.00    +0.000 C 
ATOM     21  N   UNL     1       0.477  14.542  19.670  0.00  0.00    +0.000 N 
ATOM     22  C   UNL     1       1.024  13.588  20.468  0.00  0.00    +0.000 A 
ATOM     23  C   UNL     1      -0.054  12.820  20.862  0.00  0.00    +0.000 A 
ATOM     24  N   UNL     1      -1.186  13.312  20.254  0.00  0.00    +0.000 NA
ATOM     25  N   UNL     1      -0.849  14.380  19.544  0.00  0.00    +0.000 NA
ENDBRANCH   1  23
TORSDOF 3
ENDMDL
