MODEL 1
REMARK VINA RESULT:      -7.0      0.000      0.000
REMARK  Name = 
REMARK  6 active torsions:
REMARK  status: ('A' for Active; 'I' for Inactive)
REMARK    1  A    between atoms: C_1  and  C_2
REMARK    2  A    between atoms: C_4  and  C_5
REMARK    3  A    between atoms: C_8  and  C_9
REMARK    4  A    between atoms: C_14  and  N_15
REMARK    5  A    between atoms: N_15  and  S_16
REMARK    6  A    between atoms: S_16  and  C_17
REMARK                            x       y       z     vdW  Elec       q    Type
REMARK                         _______ _______ _______ _____ _____    ______ ____
ROOT
ATOM      1  C   UNL     1       2.661   6.768  19.492  0.00  0.00    +0.000 C 
ATOM      2  C   UNL     1       3.589   5.928  18.680  0.00  0.00    +0.000 A 
ATOM      3  S   UNL     1       4.329   6.601  17.293  0.00  0.00    +0.000 S 
ATOM      4  C   UNL     1       5.042   5.109  16.855  0.00  0.00    +0.000 A 
ATOM      5  C   UNL     1       4.734   4.123  17.773  0.00  0.00    +0.000 A 
ATOM      6  C   UNL     1       3.933   4.601  18.853  0.00  0.00    +0.000 A 
ENDROOT
BRANCH   4   7
ATOM      7  C   UNL     1       5.822   4.980  15.661  0.00  0.00    +0.000 A 
ATOM      8  N   UNL     1       7.062   5.419  15.537  0.00  0.00    +0.000 NA
ATOM      9  N   UNL     1       7.482   5.084  14.264  0.00  0.00    +0.000 NA
ATOM     10  C   UNL     1       6.472   4.470  13.688  0.00  0.00    +0.000 A 
ATOM     11  O   UNL     1       5.382   4.373  14.508  0.00  0.00    +0.000 OA
BRANCH  10  12
ATOM     12  C   UNL     1       6.525   3.921  12.271  0.00  0.00    +0.000 C 
ATOM     13  C   UNL     1       6.411   2.420  12.074  0.00  0.00    +0.000 C 
ATOM     14  C   UNL     1       5.272   3.298  11.685  0.00  0.00    +0.000 C 
ENDBRANCH  10  12
ENDBRANCH   4   7
BRANCH   6  15
ATOM     15  N   UNL     1       3.460   3.771  19.882  0.00  0.00    +0.000 N 
ATOM     16  H   UNL     1       3.231   4.219  20.769  0.00  0.00    +0.000 HD
BRANCH  15  17
ATOM     17  S   UNL     1       2.371   2.513  19.585  0.00  0.00    +0.000 S 
ATOM     18  C   UNL     1       1.170   3.235  18.472  0.00  0.00    +0.000 C 
ATOM     19  O   UNL     1       3.053   1.446  18.893  0.00  0.00    +0.000 OA
ATOM     20  O   UNL     1       1.692   2.285  20.846  0.00  0.00    +0.000 OA
ENDBRANCH  15  17
ENDBRANCH   6  15
TORSDOF 4
ENDMDL
MODEL 2
REMARK VINA RESULT:      -7.0      0.970      1.170
REMARK  Name = 
REMARK  6 active torsions:
REMARK  status: ('A' for Active; 'I' for Inactive)
REMARK    1  A    between atoms: C_1  and  C_2
REMARK    2  A    between atoms: C_4  and  C_5
REMARK    3  A    between atoms: C_8  and  C_9
REMARK    4  A    between atoms: C_14  and  N_15
REMARK    5  A    between atoms: N_15  and  S_16
REMARK    6  A    between atoms: S_16  and  C_17
REMARK                            x       y       z     vdW  Elec       q    Type
REMARK                         _______ _______ _______ _____ _____    ______ ____
ROOT
ATOM      1  C   UNL     1       2.587   6.927  19.498  0.00  0.00    +0.000 C 
ATOM      2  C   UNL     1       3.512   6.021  18.755  0.00  0.00    +0.000 A 
ATOM      3  S   UNL     1       4.286   6.594  17.341  0.00  0.00    +0.000 S 
ATOM      4  C   UNL     1       4.978   5.065  17.008  0.00  0.00    +0.000 A 
ATOM      5  C   UNL     1       4.638   4.144  17.981  0.00  0.00    +0.000 A 
ATOM      6  C   UNL     1       3.828   4.702  19.015  0.00  0.00    +0.000 A 
ENDROOT
BRANCH   4   7
ATOM      7  C   UNL     1       5.774   4.849  15.837  0.00  0.00    +0.000 A 
ATOM      8  N   UNL     1       7.088   4.980  15.802  0.00  0.00    +0.000 NA
ATOM      9  N   UNL     1       7.489   4.659  14.520  0.00  0.00    +0.000 NA
ATOM     10  C   UNL     1       6.398   4.359  13.851  0.00  0.00    +0.000 A 
ATOM     11  O   UNL     1       5.270   4.465  14.617  0.00  0.00    +0.000 OA
BRANCH  10  12
ATOM     12  C   UNL     1       6.401   3.933  12.392  0.00  0.00    +0.000 C 
ATOM     13  C   UNL     1       6.361   2.449  12.074  0.00  0.00    +0.000 C 
ATOM     14  C   UNL     1       5.154   3.286  11.820  0.00  0.00    +0.000 C 
ENDBRANCH  10  12
ENDBRANCH   4   7
BRANCH   6  15
ATOM     15  N   UNL     1       3.325   3.947  20.086  0.00  0.00    +0.000 N 
ATOM     16  H   UNL     1       3.345   4.381  21.008  0.00  0.00    +0.000 HD
BRANCH  15  17
ATOM     17  S   UNL     1       1.931   3.003  19.934  0.00  0.00    +0.000 S 
ATOM     18  C   UNL     1       1.538   2.539  21.618  0.00  0.00    +0.000 C 
ATOM     19  O   UNL     1       0.857   3.819  19.422  0.00  0.00    +0.000 OA
ATOM     20  O   UNL     1       2.355   1.795  19.254  0.00  0.00    +0.000 OA
ENDBRANCH  15  17
ENDBRANCH   6  15
TORSDOF 4
ENDMDL
MODEL 3
REMARK VINA RESULT:      -6.9      1.055      1.167
REMARK  Name = 
REMARK  6 active torsions:
REMARK  status: ('A' for Active; 'I' for Inactive)
REMARK    1  A    between atoms: C_1  and  C_2
REMARK    2  A    between atoms: C_4  and  C_5
REMARK    3  A    between atoms: C_8  and  C_9
REMARK    4  A    between atoms: C_14  and  N_15
REMARK    5  A    between atoms: N_15  and  S_16
REMARK    6  A    between atoms: S_16  and  C_17
REMARK                            x       y       z     vdW  Elec       q    Type
REMARK                         _______ _______ _______ _____ _____    ______ ____
ROOT
ATOM      1  C   UNL     1       2.108   7.413  19.632  0.00  0.00    +0.000 C 
ATOM      2  C   UNL     1       3.157   6.550  19.014  0.00  0.00    +0.000 A 
ATOM      3  S   UNL     1       3.787   6.969  17.480  0.00  0.00    +0.000 S 
ATOM      4  C   UNL     1       4.725   5.540  17.391  0.00  0.00    +0.000 A 
ATOM      5  C   UNL     1       4.572   4.774  18.531  0.00  0.00    +0.000 A 
ATOM      6  C   UNL     1       3.703   5.375  19.490  0.00  0.00    +0.000 A 
ENDROOT
BRANCH   4   7
ATOM      7  C   UNL     1       5.519   5.243  16.237  0.00  0.00    +0.000 A 
ATOM      8  N   UNL     1       6.617   5.899  15.906  0.00  0.00    +0.000 NA
ATOM      9  N   UNL     1       7.111   5.304  14.761  0.00  0.00    +0.000 NA
ATOM     10  C   UNL     1       6.282   4.329  14.459  0.00  0.00    +0.000 A 
ATOM     11  O   UNL     1       5.244   4.234  15.344  0.00  0.00    +0.000 OA
BRANCH  10  12
ATOM     12  C   UNL     1       6.472   3.409  13.265  0.00  0.00    +0.000 C 
ATOM     13  C   UNL     1       5.507   3.530  12.100  0.00  0.00    +0.000 C 
ATOM     14  C   UNL     1       6.908   4.013  11.944  0.00  0.00    +0.000 C 
ENDBRANCH  10  12
ENDBRANCH   4   7
BRANCH   6  15
ATOM     15  N   UNL     1       3.363   4.760  20.706  0.00  0.00    +0.000 N 
ATOM     16  H   UNL     1       3.081   5.372  21.471  0.00  0.00    +0.000 HD
BRANCH  15  17
ATOM     17  S   UNL     1       2.461   3.331  20.762  0.00  0.00    +0.000 S 
ATOM     18  C   UNL     1       0.816   3.840  20.273  0.00  0.00    +0.000 C 
ATOM     19  O   UNL     1       2.967   2.409  19.774  0.00  0.00    +0.000 OA
ATOM     20  O   UNL     1       2.390   2.975  22.166  0.00  0.00    +0.000 OA
ENDBRANCH  15  17
ENDBRANCH   6  15
TORSDOF 4
ENDMDL
MODEL 4
REMARK VINA RESULT:      -6.9      3.442      7.649
REMARK  Name = 
REMARK  6 active torsions:
REMARK  status: ('A' for Active; 'I' for Inactive)
REMARK    1  A    between atoms: C_1  and  C_2
REMARK    2  A    between atoms: C_4  and  C_5
REMARK    3  A    between atoms: C_8  and  C_9
REMARK    4  A    between atoms: C_14  and  N_15
REMARK    5  A    between atoms: N_15  and  S_16
REMARK    6  A    between atoms: S_16  and  C_17
REMARK                            x       y       z     vdW  Elec       q    Type
REMARK                         _______ _______ _______ _____ _____    ______ ____
ROOT
ATOM      1  C   UNL     1       3.690   2.357  17.783  0.00  0.00    +0.000 C 
ATOM      2  C   UNL     1       3.671   3.678  18.478  0.00  0.00    +0.000 A 
ATOM      3  S   UNL     1       2.172   4.456  18.752  0.00  0.00    +0.000 S 
ATOM      4  C   UNL     1       2.929   5.856  19.383  0.00  0.00    +0.000 A 
ATOM      5  C   UNL     1       4.303   5.712  19.403  0.00  0.00    +0.000 A 
ATOM      6  C   UNL     1       4.734   4.438  18.924  0.00  0.00    +0.000 A 
ENDROOT
BRANCH   4   7
ATOM      7  C   UNL     1       2.162   6.994  19.791  0.00  0.00    +0.000 A 
ATOM      8  N   UNL     1       2.130   8.139  19.132  0.00  0.00    +0.000 NA
ATOM      9  N   UNL     1       1.262   8.970  19.813  0.00  0.00    +0.000 NA
ATOM     10  C   UNL     1       0.825   8.287  20.849  0.00  0.00    +0.000 A 
ATOM     11  O   UNL     1       1.358   7.029  20.905  0.00  0.00    +0.000 OA
BRANCH  10  12
ATOM     12  C   UNL     1      -0.169   8.840  21.856  0.00  0.00    +0.000 C 
ATOM     13  C   UNL     1       0.365   9.429  23.149  0.00  0.00    +0.000 C 
ATOM     14  C   UNL     1      -0.195  10.335  22.107  0.00  0.00    +0.000 C 
ENDBRANCH  10  12
ENDBRANCH   4   7
BRANCH   6  15
ATOM     15  N   UNL     1       6.087   4.081  18.811  0.00  0.00    +0.000 N 
ATOM     16  H   UNL     1       6.309   3.087  18.866  0.00  0.00    +0.000 HD
BRANCH  15  17
ATOM     17  S   UNL     1       7.119   4.831  17.702  0.00  0.00    +0.000 S 
ATOM     18  C   UNL     1       6.352   4.514  16.116  0.00  0.00    +0.000 C 
ATOM     19  O   UNL     1       7.115   6.255  17.936  0.00  0.00    +0.000 OA
ATOM     20  O   UNL     1       8.347   4.061  17.735  0.00  0.00    +0.000 OA
ENDBRANCH  15  17
ENDBRANCH   6  15
TORSDOF 4
ENDMDL
MODEL 5
REMARK VINA RESULT:      -6.6      1.149      1.416
REMARK  Name = 
REMARK  6 active torsions:
REMARK  status: ('A' for Active; 'I' for Inactive)
REMARK    1  A    between atoms: C_1  and  C_2
REMARK    2  A    between atoms: C_4  and  C_5
REMARK    3  A    between atoms: C_8  and  C_9
REMARK    4  A    between atoms: C_14  and  N_15
REMARK    5  A    between atoms: N_15  and  S_16
REMARK    6  A    between atoms: S_16  and  C_17
REMARK                            x       y       z     vdW  Elec       q    Type
REMARK                         _______ _______ _______ _____ _____    ______ ____
ROOT
ATOM      1  C   UNL     1       2.460   7.206  19.311  0.00  0.00    +0.000 C 
ATOM      2  C   UNL     1       3.136   6.181  18.462  0.00  0.00    +0.000 A 
ATOM      3  S   UNL     1       4.399   6.666  17.414  0.00  0.00    +0.000 S 
ATOM      4  C   UNL     1       4.530   5.104  16.727  0.00  0.00    +0.000 A 
ATOM      5  C   UNL     1       3.637   4.227  17.312  0.00  0.00    +0.000 A 
ATOM      6  C   UNL     1       2.861   4.833  18.346  0.00  0.00    +0.000 A 
ENDROOT
BRANCH   4   7
ATOM      7  C   UNL     1       5.457   4.833  15.669  0.00  0.00    +0.000 A 
ATOM      8  N   UNL     1       6.767   4.959  15.784  0.00  0.00    +0.000 NA
ATOM      9  N   UNL     1       7.314   4.580  14.573  0.00  0.00    +0.000 NA
ATOM     10  C   UNL     1       6.306   4.255  13.793  0.00  0.00    +0.000 A 
ATOM     11  O   UNL     1       5.097   4.397  14.416  0.00  0.00    +0.000 OA
BRANCH  10  12
ATOM     12  C   UNL     1       6.478   3.764  12.365  0.00  0.00    +0.000 C 
ATOM     13  C   UNL     1       6.233   2.295  12.072  0.00  0.00    +0.000 C 
ATOM     14  C   UNL     1       5.250   3.310  11.599  0.00  0.00    +0.000 C 
ENDBRANCH  10  12
ENDBRANCH   4   7
BRANCH   6  15
ATOM     15  N   UNL     1       1.858   4.149  19.052  0.00  0.00    +0.000 N 
ATOM     16  H   UNL     1       1.262   3.520  18.515  0.00  0.00    +0.000 HD
BRANCH  15  17
ATOM     17  S   UNL     1       2.134   3.496  20.586  0.00  0.00    +0.000 S 
ATOM     18  C   UNL     1       3.635   2.542  20.386  0.00  0.00    +0.000 C 
ATOM     19  O   UNL     1       2.394   4.566  21.519  0.00  0.00    +0.000 OA
ATOM     20  O   UNL     1       1.059   2.548  20.801  0.00  0.00    +0.000 OA
ENDBRANCH  15  17
ENDBRANCH   6  15
TORSDOF 4
ENDMDL
MODEL 6
REMARK VINA RESULT:      -6.6      4.026      7.233
REMARK  Name = 
REMARK  6 active torsions:
REMARK  status: ('A' for Active; 'I' for Inactive)
REMARK    1  A    between atoms: C_1  and  C_2
REMARK    2  A    between atoms: C_4  and  C_5
REMARK    3  A    between atoms: C_8  and  C_9
REMARK    4  A    between atoms: C_14  and  N_15
REMARK    5  A    between atoms: N_15  and  S_16
REMARK    6  A    between atoms: S_16  and  C_17
REMARK                            x       y       z     vdW  Elec       q    Type
REMARK                         _______ _______ _______ _____ _____    ______ ____
ROOT
ATOM      1  C   UNL     1       3.648   2.293  17.858  0.00  0.00    +0.000 C 
ATOM      2  C   UNL     1       3.656   3.642  18.497  0.00  0.00    +0.000 A 
ATOM      3  S   UNL     1       2.167   4.405  18.856  0.00  0.00    +0.000 S 
ATOM      4  C   UNL     1       2.941   5.843  19.366  0.00  0.00    +0.000 A 
ATOM      5  C   UNL     1       4.315   5.724  19.284  0.00  0.00    +0.000 A 
ATOM      6  C   UNL     1       4.734   4.439  18.826  0.00  0.00    +0.000 A 
ENDROOT
BRANCH   4   7
ATOM      7  C   UNL     1       2.184   6.985  19.786  0.00  0.00    +0.000 A 
ATOM      8  N   UNL     1       1.627   7.105  20.978  0.00  0.00    +0.000 NA
ATOM      9  N   UNL     1       1.020   8.345  21.014  0.00  0.00    +0.000 NA
ATOM     10  C   UNL     1       1.236   8.901  19.842  0.00  0.00    +0.000 A 
ATOM     11  O   UNL     1       1.960   8.096  19.007  0.00  0.00    +0.000 OA
BRANCH  10  12
ATOM     12  C   UNL     1       0.741  10.290  19.471  0.00  0.00    +0.000 C 
ATOM     13  C   UNL     1      -0.395  10.408  18.471  0.00  0.00    +0.000 C 
ATOM     14  C   UNL     1      -0.650  10.707  19.908  0.00  0.00    +0.000 C 
ENDBRANCH  10  12
ENDBRANCH   4   7
BRANCH   6  15
ATOM     15  N   UNL     1       6.081   4.101  18.621  0.00  0.00    +0.000 N 
ATOM     16  H   UNL     1       6.312   3.108  18.611  0.00  0.00    +0.000 HD
BRANCH  15  17
ATOM     17  S   UNL     1       7.047   4.919  17.500  0.00  0.00    +0.000 S 
ATOM     18  C   UNL     1       7.609   6.366  18.390  0.00  0.00    +0.000 C 
ATOM     19  O   UNL     1       8.194   4.106  17.177  0.00  0.00    +0.000 OA
ATOM     20  O   UNL     1       6.135   5.386  16.474  0.00  0.00    +0.000 OA
ENDBRANCH  15  17
ENDBRANCH   6  15
TORSDOF 4
ENDMDL
MODEL 7
REMARK VINA RESULT:      -6.5      3.679      7.546
REMARK  Name = 
REMARK  6 active torsions:
REMARK  status: ('A' for Active; 'I' for Inactive)
REMARK    1  A    between atoms: C_1  and  C_2
REMARK    2  A    between atoms: C_4  and  C_5
REMARK    3  A    between atoms: C_8  and  C_9
REMARK    4  A    between atoms: C_14  and  N_15
REMARK    5  A    between atoms: N_15  and  S_16
REMARK    6  A    between atoms: S_16  and  C_17
REMARK                            x       y       z     vdW  Elec       q    Type
REMARK                         _______ _______ _______ _____ _____    ______ ____
ROOT
ATOM      1  C   UNL     1       3.491   3.042  17.096  0.00  0.00    +0.000 C 
ATOM      2  C   UNL     1       3.522   4.471  17.528  0.00  0.00    +0.000 A 
ATOM      3  S   UNL     1       2.130   5.155  18.250  0.00  0.00    +0.000 S 
ATOM      4  C   UNL     1       2.832   6.715  18.303  0.00  0.00    +0.000 A 
ATOM      5  C   UNL     1       4.118   6.699  17.798  0.00  0.00    +0.000 A 
ATOM      6  C   UNL     1       4.537   5.396  17.391  0.00  0.00    +0.000 A 
ENDROOT
BRANCH   4   7
ATOM      7  C   UNL     1       2.101   7.842  18.800  0.00  0.00    +0.000 A 
ATOM      8  N   UNL     1       1.652   8.825  18.041  0.00  0.00    +0.000 NA
ATOM      9  N   UNL     1       0.977   9.698  18.872  0.00  0.00    +0.000 NA
ATOM     10  C   UNL     1       1.062   9.200  20.086  0.00  0.00    +0.000 A 
ATOM     11  O   UNL     1       1.767   8.028  20.120  0.00  0.00    +0.000 OA
BRANCH  10  12
ATOM     12  C   UNL     1       0.433   9.854  21.305  0.00  0.00    +0.000 C 
ATOM     13  C   UNL     1      -0.533   9.038  22.144  0.00  0.00    +0.000 C 
ATOM     14  C   UNL     1       0.821   9.350  22.682  0.00  0.00    +0.000 C 
ENDBRANCH  10  12
ENDBRANCH   4   7
BRANCH   6  15
ATOM     15  N   UNL     1       5.789   5.142  16.806  0.00  0.00    +0.000 N 
ATOM     16  H   UNL     1       5.995   5.620  15.930  0.00  0.00    +0.000 HD
BRANCH  15  17
ATOM     17  S   UNL     1       7.198   5.024  17.732  0.00  0.00    +0.000 S 
ATOM     18  C   UNL     1       7.811   6.704  17.803  0.00  0.00    +0.000 C 
ATOM     19  O   UNL     1       6.855   4.604  19.070  0.00  0.00    +0.000 OA
ATOM     20  O   UNL     1       8.132   4.271  16.918  0.00  0.00    +0.000 OA
ENDBRANCH  15  17
ENDBRANCH   6  15
TORSDOF 4
ENDMDL
MODEL 8
REMARK VINA RESULT:      -6.5      1.058      1.058
REMARK  Name = 
REMARK  6 active torsions:
REMARK  status: ('A' for Active; 'I' for Inactive)
REMARK    1  A    between atoms: C_1  and  C_2
REMARK    2  A    between atoms: C_4  and  C_5
REMARK    3  A    between atoms: C_8  and  C_9
REMARK    4  A    between atoms: C_14  and  N_15
REMARK    5  A    between atoms: N_15  and  S_16
REMARK    6  A    between atoms: S_16  and  C_17
REMARK                            x       y       z     vdW  Elec       q    Type
REMARK                         _______ _______ _______ _____ _____    ______ ____
ROOT
ATOM      1  C   UNL     1       2.576   7.185  19.220  0.00  0.00    +0.000 C 
ATOM      2  C   UNL     1       3.452   6.256  18.447  0.00  0.00    +0.000 A 
ATOM      3  S   UNL     1       4.343   6.860  17.117  0.00  0.00    +0.000 S 
ATOM      4  C   UNL     1       4.912   5.303  16.694  0.00  0.00    +0.000 A 
ATOM      5  C   UNL     1       4.444   4.346  17.575  0.00  0.00    +0.000 A 
ATOM      6  C   UNL     1       3.637   4.898  18.615  0.00  0.00    +0.000 A 
ENDROOT
BRANCH   4   7
ATOM      7  C   UNL     1       5.743   5.103  15.545  0.00  0.00    +0.000 A 
ATOM      8  N   UNL     1       6.996   5.511  15.458  0.00  0.00    +0.000 NA
ATOM      9  N   UNL     1       7.465   5.107  14.223  0.00  0.00    +0.000 NA
ATOM     10  C   UNL     1       6.470   4.487  13.629  0.00  0.00    +0.000 A 
ATOM     11  O   UNL     1       5.342   4.451  14.402  0.00  0.00    +0.000 OA
BRANCH  10  12
ATOM     12  C   UNL     1       6.575   3.871  12.244  0.00  0.00    +0.000 C 
ATOM     13  C   UNL     1       6.394   2.370  12.106  0.00  0.00    +0.000 C 
ATOM     14  C   UNL     1       5.327   3.285  11.612  0.00  0.00    +0.000 C 
ENDBRANCH  10  12
ENDBRANCH   4   7
BRANCH   6  15
ATOM     15  N   UNL     1       3.016   4.113  19.600  0.00  0.00    +0.000 N 
ATOM     16  H   UNL     1       2.009   3.983  19.520  0.00  0.00    +0.000 HD
BRANCH  15  17
ATOM     17  S   UNL     1       3.726   2.698  20.193  0.00  0.00    +0.000 S 
ATOM     18  C   UNL     1       3.127   1.421  19.091  0.00  0.00    +0.000 C 
ATOM     19  O   UNL     1       5.159   2.789  20.052  0.00  0.00    +0.000 OA
ATOM     20  O   UNL     1       3.104   2.465  21.482  0.00  0.00    +0.000 OA
ENDBRANCH  15  17
ENDBRANCH   6  15
TORSDOF 4
ENDMDL
MODEL 9
REMARK VINA RESULT:      -6.5      3.822      7.702
REMARK  Name = 
REMARK  6 active torsions:
REMARK  status: ('A' for Active; 'I' for Inactive)
REMARK    1  A    between atoms: C_1  and  C_2
REMARK    2  A    between atoms: C_4  and  C_5
REMARK    3  A    between atoms: C_8  and  C_9
REMARK    4  A    between atoms: C_14  and  N_15
REMARK    5  A    between atoms: N_15  and  S_16
REMARK    6  A    between atoms: S_16  and  C_17
REMARK                            x       y       z     vdW  Elec       q    Type
REMARK                         _______ _______ _______ _____ _____    ______ ____
ROOT
ATOM      1  C   UNL     1       3.683   3.044  17.775  0.00  0.00    +0.000 C 
ATOM      2  C   UNL     1       3.610   4.527  17.934  0.00  0.00    +0.000 A 
ATOM      3  S   UNL     1       2.383   5.202  18.916  0.00  0.00    +0.000 S 
ATOM      4  C   UNL     1       2.822   6.802  18.496  0.00  0.00    +0.000 A 
ATOM      5  C   UNL     1       3.906   6.811  17.639  0.00  0.00    +0.000 A 
ATOM      6  C   UNL     1       4.393   5.501  17.347  0.00  0.00    +0.000 A 
ENDROOT
BRANCH   4   7
ATOM      7  C   UNL     1       2.091   7.928  18.995  0.00  0.00    +0.000 A 
ATOM      8  N   UNL     1       1.543   8.853  18.227  0.00  0.00    +0.000 NA
ATOM      9  N   UNL     1       0.905   9.745  19.066  0.00  0.00    +0.000 NA
ATOM     10  C   UNL     1       1.109   9.316  20.292  0.00  0.00    +0.000 A 
ATOM     11  O   UNL     1       1.859   8.173  20.327  0.00  0.00    +0.000 OA
BRANCH  10  12
ATOM     12  C   UNL     1       0.557  10.013  21.525  0.00  0.00    +0.000 C 
ATOM     13  C   UNL     1      -0.657   9.414  22.210  0.00  0.00    +0.000 C 
ATOM     14  C   UNL     1       0.676   9.318  22.868  0.00  0.00    +0.000 C 
ENDBRANCH  10  12
ENDBRANCH   4   7
BRANCH   6  15
ATOM     15  N   UNL     1       5.458   5.259  16.465  0.00  0.00    +0.000 N 
ATOM     16  H   UNL     1       5.317   5.515  15.488  0.00  0.00    +0.000 HD
BRANCH  15  17
ATOM     17  S   UNL     1       7.064   5.557  16.903  0.00  0.00    +0.000 S 
ATOM     18  C   UNL     1       7.053   5.442  18.688  0.00  0.00    +0.000 C 
ATOM     19  O   UNL     1       7.902   4.505  16.381  0.00  0.00    +0.000 OA
ATOM     20  O   UNL     1       7.301   6.949  16.573  0.00  0.00    +0.000 OA
ENDBRANCH  15  17
ENDBRANCH   6  15
TORSDOF 4
ENDMDL
