MODEL 1
REMARK VINA RESULT:      -6.5      0.000      0.000
REMARK  Name = 
REMARK  2 active torsions:
REMARK  status: ('A' for Active; 'I' for Inactive)
REMARK    1  A    between atoms: C_1  and  N_2
REMARK    2  A    between atoms: N_2  and  C_3
REMARK                            x       y       z     vdW  Elec       q    Type
REMARK                         _______ _______ _______ _____ _____    ______ ____
ROOT
ATOM      1  C   UNL     1       2.192   5.693  19.906  0.00  0.00    +0.000 A 
ATOM      2  N   UNL     1       1.358   5.051  20.758  0.00  0.00    +0.000 NA
ATOM      3  C   UNL     1       1.176   3.729  20.632  0.00  0.00    +0.000 A 
ATOM      4  N   UNL     1       1.740   2.918  19.739  0.00  0.00    +0.000 NA
ATOM      5  C   UNL     1       2.546   3.573  18.889  0.00  0.00    +0.000 A 
ATOM      6  S   UNL     1       3.395   2.708  17.696  0.00  0.00    +0.000 S 
ATOM      7  C   UNL     1       4.143   4.118  17.125  0.00  0.00    +0.000 A 
ATOM      8  C   UNL     1       3.716   5.261  17.783  0.00  0.00    +0.000 A 
ATOM      9  C   UNL     1       2.816   4.940  18.878  0.00  0.00    +0.000 A 
ATOM     10  C   UNL     1       4.221   6.621  17.380  0.00  0.00    +0.000 C 
ATOM     11  C   UNL     1       5.060   6.598  16.089  0.00  0.00    +0.000 C 
ATOM     12  C   UNL     1       5.968   5.365  16.004  0.00  0.00    +0.000 C 
ATOM     13  C   UNL     1       5.138   4.075  16.008  0.00  0.00    +0.000 C 
ENDROOT
BRANCH   1  15
ATOM     14  C   UNL     1       1.424   7.750  20.886  0.00  0.00    +0.000 C 
ATOM     15  N   UNL     1       2.431   7.056  20.103  0.00  0.00    +0.000 N 
ATOM     16  H   UNL     1       3.380   7.235  20.408  0.00  0.00    +0.000 HD
ENDBRANCH   1  15
TORSDOF 1
ENDMDL
MODEL 2
REMARK VINA RESULT:      -6.3      1.593      3.257
REMARK  Name = 
REMARK  2 active torsions:
REMARK  status: ('A' for Active; 'I' for Inactive)
REMARK    1  A    between atoms: C_1  and  N_2
REMARK    2  A    between atoms: N_2  and  C_3
REMARK                            x       y       z     vdW  Elec       q    Type
REMARK                         _______ _______ _______ _____ _____    ______ ____
ROOT
ATOM      1  C   UNL     1       2.293   2.817  18.829  0.00  0.00    +0.000 A 
ATOM      2  N   UNL     1       1.375   2.639  19.809  0.00  0.00    +0.000 NA
ATOM      3  C   UNL     1       0.950   3.696  20.514  0.00  0.00    +0.000 A 
ATOM      4  N   UNL     1       1.322   4.966  20.369  0.00  0.00    +0.000 NA
ATOM      5  C   UNL     1       2.247   5.123  19.409  0.00  0.00    +0.000 A 
ATOM      6  S   UNL     1       2.824   6.679  19.039  0.00  0.00    +0.000 S 
ATOM      7  C   UNL     1       3.829   6.078  17.814  0.00  0.00    +0.000 A 
ATOM      8  C   UNL     1       3.789   4.696  17.712  0.00  0.00    +0.000 A 
ATOM      9  C   UNL     1       2.801   4.124  18.611  0.00  0.00    +0.000 A 
ATOM     10  C   UNL     1       4.657   3.967  16.720  0.00  0.00    +0.000 C 
ATOM     11  C   UNL     1       5.681   4.883  16.025  0.00  0.00    +0.000 C 
ATOM     12  C   UNL     1       5.103   6.265  15.696  0.00  0.00    +0.000 C 
ATOM     13  C   UNL     1       4.667   6.991  16.975  0.00  0.00    +0.000 C 
ENDROOT
BRANCH   1  15
ATOM     14  C   UNL     1       3.850   1.013  18.505  0.00  0.00    +0.000 C 
ATOM     15  N   UNL     1       2.664   1.716  18.050  0.00  0.00    +0.000 N 
ATOM     16  H   UNL     1       1.878   1.109  17.854  0.00  0.00    +0.000 HD
ENDBRANCH   1  15
TORSDOF 1
ENDMDL
MODEL 3
REMARK VINA RESULT:      -6.3      1.870      3.333
REMARK  Name = 
REMARK  2 active torsions:
REMARK  status: ('A' for Active; 'I' for Inactive)
REMARK    1  A    between atoms: C_1  and  N_2
REMARK    2  A    between atoms: N_2  and  C_3
REMARK                            x       y       z     vdW  Elec       q    Type
REMARK                         _______ _______ _______ _____ _____    ______ ____
ROOT
ATOM      1  C   UNL     1       3.764   2.922  20.056  0.00  0.00    +0.000 A 
ATOM      2  N   UNL     1       2.947   2.616  21.091  0.00  0.00    +0.000 NA
ATOM      3  C   UNL     1       2.084   3.536  21.543  0.00  0.00    +0.000 A 
ATOM      4  N   UNL     1       1.907   4.773  21.084  0.00  0.00    +0.000 NA
ATOM      5  C   UNL     1       2.740   5.068  20.072  0.00  0.00    +0.000 A 
ATOM      6  S   UNL     1       2.644   6.588  19.317  0.00  0.00    +0.000 S 
ATOM      7  C   UNL     1       3.877   6.187  18.226  0.00  0.00    +0.000 A 
ATOM      8  C   UNL     1       4.416   4.931  18.457  0.00  0.00    +0.000 A 
ATOM      9  C   UNL     1       3.701   4.231  19.510  0.00  0.00    +0.000 A 
ATOM     10  C   UNL     1       5.564   4.416  17.628  0.00  0.00    +0.000 C 
ATOM     11  C   UNL     1       6.158   5.481  16.689  0.00  0.00    +0.000 C 
ATOM     12  C   UNL     1       5.082   6.381  16.068  0.00  0.00    +0.000 C 
ATOM     13  C   UNL     1       4.312   7.139  17.156  0.00  0.00    +0.000 C 
ENDROOT
BRANCH   1  15
ATOM     14  C   UNL     1       4.007   1.095  18.511  0.00  0.00    +0.000 C 
ATOM     15  N   UNL     1       4.600   1.924  19.545  0.00  0.00    +0.000 N 
ATOM     16  H   UNL     1       5.517   2.282  19.306  0.00  0.00    +0.000 HD
ENDBRANCH   1  15
TORSDOF 1
ENDMDL
MODEL 4
REMARK VINA RESULT:      -6.2      1.744      3.202
REMARK  Name = 
REMARK  2 active torsions:
REMARK  status: ('A' for Active; 'I' for Inactive)
REMARK    1  A    between atoms: C_1  and  N_2
REMARK    2  A    between atoms: N_2  and  C_3
REMARK                            x       y       z     vdW  Elec       q    Type
REMARK                         _______ _______ _______ _____ _____    ______ ____
ROOT
ATOM      1  C   UNL     1       3.659   3.391  19.684  0.00  0.00    +0.000 A 
ATOM      2  N   UNL     1       2.790   3.462  20.720  0.00  0.00    +0.000 NA
ATOM      3  C   UNL     1       2.098   4.591  20.924  0.00  0.00    +0.000 A 
ATOM      4  N   UNL     1       2.146   5.709  20.203  0.00  0.00    +0.000 NA
ATOM      5  C   UNL     1       3.027   5.630  19.193  0.00  0.00    +0.000 A 
ATOM      6  S   UNL     1       3.208   6.942  18.126  0.00  0.00    +0.000 S 
ATOM      7  C   UNL     1       4.362   6.108  17.206  0.00  0.00    +0.000 A 
ATOM      8  C   UNL     1       4.669   4.861  17.726  0.00  0.00    +0.000 A 
ATOM      9  C   UNL     1       3.832   4.539  18.869  0.00  0.00    +0.000 A 
ATOM     10  C   UNL     1       5.716   3.990  17.083  0.00  0.00    +0.000 C 
ATOM     11  C   UNL     1       6.498   4.707  15.967  0.00  0.00    +0.000 C 
ATOM     12  C   UNL     1       5.603   5.618  15.117  0.00  0.00    +0.000 C 
ATOM     13  C   UNL     1       4.968   6.715  15.980  0.00  0.00    +0.000 C 
ENDROOT
BRANCH   1  15
ATOM     14  C   UNL     1       3.655   1.311  18.478  0.00  0.00    +0.000 C 
ATOM     15  N   UNL     1       4.311   2.178  19.439  0.00  0.00    +0.000 N 
ATOM     16  H   UNL     1       5.300   2.308  19.266  0.00  0.00    +0.000 HD
ENDBRANCH   1  15
TORSDOF 1
ENDMDL
MODEL 5
REMARK VINA RESULT:      -6.1      1.991      4.239
REMARK  Name = 
REMARK  2 active torsions:
REMARK  status: ('A' for Active; 'I' for Inactive)
REMARK    1  A    between atoms: C_1  and  N_2
REMARK    2  A    between atoms: N_2  and  C_3
REMARK                            x       y       z     vdW  Elec       q    Type
REMARK                         _______ _______ _______ _____ _____    ______ ____
ROOT
ATOM      1  C   UNL     1       3.413   6.894  17.905  0.00  0.00    +0.000 A 
ATOM      2  N   UNL     1       4.289   7.422  17.018  0.00  0.00    +0.000 NA
ATOM      3  C   UNL     1       5.051   6.605  16.279  0.00  0.00    +0.000 A 
ATOM      4  N   UNL     1       5.058   5.274  16.294  0.00  0.00    +0.000 NA
ATOM      5  C   UNL     1       4.200   4.767  17.193  0.00  0.00    +0.000 A 
ATOM      6  S   UNL     1       4.029   3.081  17.339  0.00  0.00    +0.000 S 
ATOM      7  C   UNL     1       2.845   3.248  18.540  0.00  0.00    +0.000 A 
ATOM      8  C   UNL     1       2.610   4.569  18.888  0.00  0.00    +0.000 A 
ATOM      9  C   UNL     1       3.363   5.483  18.046  0.00  0.00    +0.000 A 
ATOM     10  C   UNL     1       1.633   4.921  19.979  0.00  0.00    +0.000 C 
ATOM     11  C   UNL     1       1.118   3.692  20.750  0.00  0.00    +0.000 C 
ATOM     12  C   UNL     1       0.872   2.487  19.833  0.00  0.00    +0.000 C 
ATOM     13  C   UNL     1       2.170   2.055  19.141  0.00  0.00    +0.000 C 
ENDROOT
BRANCH   1  15
ATOM     14  C   UNL     1       2.054   8.877  17.839  0.00  0.00    +0.000 C 
ATOM     15  N   UNL     1       2.570   7.760  18.609  0.00  0.00    +0.000 N 
ATOM     16  H   UNL     1       1.859   7.259  19.128  0.00  0.00    +0.000 HD
ENDBRANCH   1  15
TORSDOF 1
ENDMDL
MODEL 6
REMARK VINA RESULT:      -6.1      2.502      5.275
REMARK  Name = 
REMARK  2 active torsions:
REMARK  status: ('A' for Active; 'I' for Inactive)
REMARK    1  A    between atoms: C_1  and  N_2
REMARK    2  A    between atoms: N_2  and  C_3
REMARK                            x       y       z     vdW  Elec       q    Type
REMARK                         _______ _______ _______ _____ _____    ______ ____
ROOT
ATOM      1  C   UNL     1       4.767   4.811  16.813  0.00  0.00    +0.000 A 
ATOM      2  N   UNL     1       5.357   5.912  16.289  0.00  0.00    +0.000 NA
ATOM      3  C   UNL     1       4.977   7.126  16.709  0.00  0.00    +0.000 A 
ATOM      4  N   UNL     1       4.054   7.411  17.626  0.00  0.00    +0.000 NA
ATOM      5  C   UNL     1       3.464   6.311  18.119  0.00  0.00    +0.000 A 
ATOM      6  S   UNL     1       2.284   6.459  19.334  0.00  0.00    +0.000 S 
ATOM      7  C   UNL     1       2.088   4.778  19.429  0.00  0.00    +0.000 A 
ATOM      8  C   UNL     1       2.861   4.091  18.506  0.00  0.00    +0.000 A 
ATOM      9  C   UNL     1       3.733   4.990  17.767  0.00  0.00    +0.000 A 
ATOM     10  C   UNL     1       2.783   2.592  18.393  0.00  0.00    +0.000 C 
ATOM     11  C   UNL     1       1.652   1.979  19.239  0.00  0.00    +0.000 C 
ATOM     12  C   UNL     1       1.494   2.675  20.597  0.00  0.00    +0.000 C 
ATOM     13  C   UNL     1       1.147   4.157  20.413  0.00  0.00    +0.000 C 
ENDROOT
BRANCH   1  15
ATOM     14  C   UNL     1       6.128   3.556  15.278  0.00  0.00    +0.000 C 
ATOM     15  N   UNL     1       5.233   3.552  16.422  0.00  0.00    +0.000 N 
ATOM     16  H   UNL     1       5.575   3.013  17.207  0.00  0.00    +0.000 HD
ENDBRANCH   1  15
TORSDOF 1
ENDMDL
MODEL 7
REMARK VINA RESULT:      -5.8      3.180      5.587
REMARK  Name = 
REMARK  2 active torsions:
REMARK  status: ('A' for Active; 'I' for Inactive)
REMARK    1  A    between atoms: C_1  and  N_2
REMARK    2  A    between atoms: N_2  and  C_3
REMARK                            x       y       z     vdW  Elec       q    Type
REMARK                         _______ _______ _______ _____ _____    ______ ____
ROOT
ATOM      1  C   UNL     1       6.252   4.498  16.158  0.00  0.00    +0.000 A 
ATOM      2  N   UNL     1       7.192   5.460  16.004  0.00  0.00    +0.000 NA
ATOM      3  C   UNL     1       7.253   6.469  16.883  0.00  0.00    +0.000 A 
ATOM      4  N   UNL     1       6.479   6.659  17.949  0.00  0.00    +0.000 NA
ATOM      5  C   UNL     1       5.539   5.710  18.076  0.00  0.00    +0.000 A 
ATOM      6  S   UNL     1       4.472   5.750  19.399  0.00  0.00    +0.000 S 
ATOM      7  C   UNL     1       3.704   4.325  18.897  0.00  0.00    +0.000 A 
ATOM      8  C   UNL     1       4.199   3.839  17.697  0.00  0.00    +0.000 A 
ATOM      9  C   UNL     1       5.335   4.618  17.235  0.00  0.00    +0.000 A 
ATOM     10  C   UNL     1       3.605   2.613  17.054  0.00  0.00    +0.000 C 
ATOM     11  C   UNL     1       2.324   2.123  17.753  0.00  0.00    +0.000 C 
ATOM     12  C   UNL     1       2.405   2.249  19.280  0.00  0.00    +0.000 C 
ATOM     13  C   UNL     1       2.596   3.712  19.696  0.00  0.00    +0.000 C 
ENDROOT
BRANCH   1  15
ATOM     14  C   UNL     1       6.176   3.759  13.871  0.00  0.00    +0.000 C 
ATOM     15  N   UNL     1       6.255   3.411  15.278  0.00  0.00    +0.000 N 
ATOM     16  H   UNL     1       6.989   2.749  15.495  0.00  0.00    +0.000 HD
ENDBRANCH   1  15
TORSDOF 1
ENDMDL
MODEL 8
REMARK VINA RESULT:      -5.8      2.797      4.874
REMARK  Name = 
REMARK  2 active torsions:
REMARK  status: ('A' for Active; 'I' for Inactive)
REMARK    1  A    between atoms: C_1  and  N_2
REMARK    2  A    between atoms: N_2  and  C_3
REMARK                            x       y       z     vdW  Elec       q    Type
REMARK                         _______ _______ _______ _____ _____    ______ ____
ROOT
ATOM      1  C   UNL     1       5.955   4.622  18.327  0.00  0.00    +0.000 A 
ATOM      2  N   UNL     1       6.743   4.651  17.226  0.00  0.00    +0.000 NA
ATOM      3  C   UNL     1       6.250   4.234  16.052  0.00  0.00    +0.000 A 
ATOM      4  N   UNL     1       5.024   3.778  15.807  0.00  0.00    +0.000 NA
ATOM      5  C   UNL     1       4.262   3.735  16.912  0.00  0.00    +0.000 A 
ATOM      6  S   UNL     1       2.646   3.220  16.804  0.00  0.00    +0.000 S 
ATOM      7  C   UNL     1       2.394   3.473  18.461  0.00  0.00    +0.000 A 
ATOM      8  C   UNL     1       3.539   3.888  19.124  0.00  0.00    +0.000 A 
ATOM      9  C   UNL     1       4.638   4.111  18.200  0.00  0.00    +0.000 A 
ATOM     10  C   UNL     1       3.533   4.109  20.614  0.00  0.00    +0.000 C 
ATOM     11  C   UNL     1       2.231   3.645  21.290  0.00  0.00    +0.000 C 
ATOM     12  C   UNL     1       0.989   3.955  20.445  0.00  0.00    +0.000 C 
ATOM     13  C   UNL     1       1.058   3.237  19.092  0.00  0.00    +0.000 C 
ENDROOT
BRANCH   1  15
ATOM     14  C   UNL     1       7.771   5.755  19.425  0.00  0.00    +0.000 C 
ATOM     15  N   UNL     1       6.461   5.137  19.525  0.00  0.00    +0.000 N 
ATOM     16  H   UNL     1       5.778   5.704  20.012  0.00  0.00    +0.000 HD
ENDBRANCH   1  15
TORSDOF 1
ENDMDL
MODEL 9
REMARK VINA RESULT:      -5.7      2.172      3.380
REMARK  Name = 
REMARK  2 active torsions:
REMARK  status: ('A' for Active; 'I' for Inactive)
REMARK    1  A    between atoms: C_1  and  N_2
REMARK    2  A    between atoms: N_2  and  C_3
REMARK                            x       y       z     vdW  Elec       q    Type
REMARK                         _______ _______ _______ _____ _____    ______ ____
ROOT
ATOM      1  C   UNL     1       3.769   2.702  19.411  0.00  0.00    +0.000 A 
ATOM      2  N   UNL     1       2.537   2.240  19.733  0.00  0.00    +0.000 NA
ATOM      3  C   UNL     1       1.466   3.018  19.524  0.00  0.00    +0.000 A 
ATOM      4  N   UNL     1       1.448   4.245  19.009  0.00  0.00    +0.000 NA
ATOM      5  C   UNL     1       2.678   4.697  18.716  0.00  0.00    +0.000 A 
ATOM      6  S   UNL     1       2.867   6.232  18.009  0.00  0.00    +0.000 S 
ATOM      7  C   UNL     1       4.550   6.049  17.925  0.00  0.00    +0.000 A 
ATOM      8  C   UNL     1       4.993   4.860  18.483  0.00  0.00    +0.000 A 
ATOM      9  C   UNL     1       3.882   4.019  18.896  0.00  0.00    +0.000 A 
ATOM     10  C   UNL     1       6.463   4.539  18.558  0.00  0.00    +0.000 C 
ATOM     11  C   UNL     1       7.361   5.720  18.147  0.00  0.00    +0.000 C 
ATOM     12  C   UNL     1       6.787   6.508  16.963  0.00  0.00    +0.000 C 
ATOM     13  C   UNL     1       5.420   7.104  17.317  0.00  0.00    +0.000 C 
ENDROOT
BRANCH   1  15
ATOM     14  C   UNL     1       5.111   1.394  20.918  0.00  0.00    +0.000 C 
ATOM     15  N   UNL     1       4.865   1.846  19.561  0.00  0.00    +0.000 N 
ATOM     16  H   UNL     1       4.860   1.100  18.876  0.00  0.00    +0.000 HD
ENDBRANCH   1  15
TORSDOF 1
ENDMDL
