MODEL 1
REMARK VINA RESULT:      -7.0      0.000      0.000
REMARK  Name = 
REMARK  8 active torsions:
REMARK  status: ('A' for Active; 'I' for Inactive)
REMARK    1  A    between atoms: C_1  and  N_2
REMARK    2  A    between atoms: N_2  and  C_3
REMARK    3  A    between atoms: C_9  and  C_10
REMARK    4  A    between atoms: N_17  and  C1*_18
REMARK    5  A    between atoms: C4*_20  and  C5*_21
REMARK    6  A    between atoms: C5*_21  and  O5*_22
REMARK    7  A    between atoms: C3*_23  and  O3*_24
REMARK    8  A    between atoms: C2*_25  and  O2*_26
REMARK                            x       y       z     vdW  Elec       q    Type
REMARK                         _______ _______ _______ _____ _____    ______ ____
ROOT
ATOM      1  C   UNL     1       2.237   4.186  18.939  0.00  0.00    +0.000 A 
ATOM      2  N   UNL     1       2.555   2.916  18.596  0.00  0.00    +0.000 NA
ATOM      3  C   UNL     1       3.545   2.700  17.723  0.00  0.00    +0.000 A 
ATOM      4  N   UNL     1       4.287   3.615  17.092  0.00  0.00    +0.000 NA
ATOM      5  C   UNL     1       3.931   4.867  17.409  0.00  0.00    +0.000 A 
ATOM      6  C   UNL     1       2.938   5.249  18.311  0.00  0.00    +0.000 A 
ATOM      7  C   UNL     1       2.941   6.695  18.335  0.00  0.00    +0.000 A 
ATOM      8  C   UNL     1       3.907   7.103  17.426  0.00  0.00    +0.000 A 
ATOM      9  N   UNL     1       4.523   5.995  16.901  0.00  0.00    +0.000 N 
ENDROOT
BRANCH   7  10
ATOM     10  C   UNL     1       2.185   7.663  19.138  0.00  0.00    +0.000 A 
ATOM     11  C   UNL     1       1.945   7.428  20.503  0.00  0.00    +0.000 A 
ATOM     12  C   UNL     1       1.141   8.290  21.254  0.00  0.00    +0.000 A 
ATOM     13  C   UNL     1       0.540   9.388  20.647  0.00  0.00    +0.000 A 
ATOM     14  C   UNL     1       0.795   9.656  19.307  0.00  0.00    +0.000 A 
ATOM     15  C   UNL     1       1.644   8.822  18.571  0.00  0.00    +0.000 A 
ENDBRANCH   7  10
BRANCH   9  16
ATOM     16  C1* UNL     1       5.657   6.033  15.991  0.00  0.00    +0.000 C 
ATOM     17  O4* UNL     1       5.195   5.880  14.629  0.00  0.00    +0.000 OA
ATOM     18  C4* UNL     1       6.099   4.985  13.934  0.00  0.00    +0.000 C 
ATOM     19  C3* UNL     1       7.298   4.766  14.851  0.00  0.00    +0.000 C 
ATOM     20  C2* UNL     1       6.730   4.971  16.248  0.00  0.00    +0.000 C 
BRANCH  19  21
ATOM     21  O3* UNL     1       8.318   5.767  14.645  0.00  0.00    +0.000 OA
ATOM     22  H3* UNL     1       9.193   5.362  14.793  0.00  0.00    +0.000 HD
ENDBRANCH  19  21
BRANCH  20  23
ATOM     23  O2* UNL     1       7.742   5.414  17.156  0.00  0.00    +0.000 OA
ATOM     24  H2* UNL     1       7.986   4.629  17.691  0.00  0.00    +0.000 HD
ENDBRANCH  20  23
BRANCH  18  25
ATOM     25  C5* UNL     1       5.367   3.687  13.582  0.00  0.00    +0.000 C 
BRANCH  25  26
ATOM     26  O5* UNL     1       6.163   2.911  12.691  0.00  0.00    +0.000 OA
ATOM     27  H5* UNL     1       7.084   3.204  12.835  0.00  0.00    +0.000 HD
ENDBRANCH  25  26
ENDBRANCH  18  25
ENDBRANCH   9  16
BRANCH   1  29
ATOM     28  C   UNL     1       1.268   3.565  21.074  0.00  0.00    +0.000 C 
ATOM     29  N   UNL     1       1.234   4.393  19.887  0.00  0.00    +0.000 N 
ATOM     30  H   UNL     1       1.108   5.386  20.060  0.00  0.00    +0.000 HD
ENDBRANCH   1  29
TORSDOF 7
ENDMDL
MODEL 2
REMARK VINA RESULT:      -7.0      3.302      6.527
REMARK  Name = 
REMARK  8 active torsions:
REMARK  status: ('A' for Active; 'I' for Inactive)
REMARK    1  A    between atoms: C_1  and  N_2
REMARK    2  A    between atoms: N_2  and  C_3
REMARK    3  A    between atoms: C_9  and  C_10
REMARK    4  A    between atoms: N_17  and  C1*_18
REMARK    5  A    between atoms: C4*_20  and  C5*_21
REMARK    6  A    between atoms: C5*_21  and  O5*_22
REMARK    7  A    between atoms: C3*_23  and  O3*_24
REMARK    8  A    between atoms: C2*_25  and  O2*_26
REMARK                            x       y       z     vdW  Elec       q    Type
REMARK                         _______ _______ _______ _____ _____    ______ ____
ROOT
ATOM      1  C   UNL     1       3.527   3.498  19.713  0.00  0.00    +0.000 A 
ATOM      2  N   UNL     1       2.716   3.188  20.751  0.00  0.00    +0.000 NA
ATOM      3  C   UNL     1       1.770   4.057  21.126  0.00  0.00    +0.000 A 
ATOM      4  N   UNL     1       1.518   5.261  20.605  0.00  0.00    +0.000 NA
ATOM      5  C   UNL     1       2.358   5.571  19.609  0.00  0.00    +0.000 A 
ATOM      6  C   UNL     1       3.376   4.767  19.094  0.00  0.00    +0.000 A 
ATOM      7  C   UNL     1       3.987   5.518  18.020  0.00  0.00    +0.000 A 
ATOM      8  C   UNL     1       3.330   6.739  17.968  0.00  0.00    +0.000 A 
ATOM      9  N   UNL     1       2.326   6.747  18.904  0.00  0.00    +0.000 N 
ENDROOT
BRANCH   7  10
ATOM     10  C   UNL     1       5.045   5.174  17.063  0.00  0.00    +0.000 A 
ATOM     11  C   UNL     1       6.277   5.851  17.087  0.00  0.00    +0.000 A 
ATOM     12  C   UNL     1       7.254   5.605  16.118  0.00  0.00    +0.000 A 
ATOM     13  C   UNL     1       7.007   4.698  15.093  0.00  0.00    +0.000 A 
ATOM     14  C   UNL     1       5.807   3.994  15.074  0.00  0.00    +0.000 A 
ATOM     15  C   UNL     1       4.853   4.202  16.075  0.00  0.00    +0.000 A 
ENDBRANCH   7  10
BRANCH   9  16
ATOM     16  C1* UNL     1       1.360   7.821  19.071  0.00  0.00    +0.000 C 
ATOM     17  O4* UNL     1       1.338   8.648  17.884  0.00  0.00    +0.000 OA
ATOM     18  C4* UNL     1       1.273  10.037  18.290  0.00  0.00    +0.000 C 
ATOM     19  C3* UNL     1       1.009  10.047  19.793  0.00  0.00    +0.000 C 
ATOM     20  C2* UNL     1       1.607   8.734  20.276  0.00  0.00    +0.000 C 
BRANCH  19  21
ATOM     21  O3* UNL     1      -0.403  10.017  20.088  0.00  0.00    +0.000 OA
ATOM     22  H3* UNL     1      -0.745  10.930  20.097  0.00  0.00    +0.000 HD
ENDBRANCH  19  21
BRANCH  20  23
ATOM     23  O2* UNL     1       0.952   8.274  21.462  0.00  0.00    +0.000 OA
ATOM     24  H2* UNL     1       0.067   7.962  21.177  0.00  0.00    +0.000 HD
ENDBRANCH  20  23
BRANCH  18  25
ATOM     25  C5* UNL     1       2.573  10.746  17.904  0.00  0.00    +0.000 C 
BRANCH  25  26
ATOM     26  O5* UNL     1       2.299  12.099  17.551  0.00  0.00    +0.000 OA
ATOM     27  H5* UNL     1       1.324  12.168  17.504  0.00  0.00    +0.000 HD
ENDBRANCH  25  26
ENDBRANCH  18  25
ENDBRANCH   9  16
BRANCH   1  29
ATOM     28  C   UNL     1       3.995   1.412  18.567  0.00  0.00    +0.000 C 
ATOM     29  N   UNL     1       4.478   2.563  19.303  0.00  0.00    +0.000 N 
ATOM     30  H   UNL     1       5.280   3.028  18.892  0.00  0.00    +0.000 HD
ENDBRANCH   1  29
TORSDOF 7
ENDMDL
MODEL 3
REMARK VINA RESULT:      -6.6      4.253      7.509
REMARK  Name = 
REMARK  8 active torsions:
REMARK  status: ('A' for Active; 'I' for Inactive)
REMARK    1  A    between atoms: C_1  and  N_2
REMARK    2  A    between atoms: N_2  and  C_3
REMARK    3  A    between atoms: C_9  and  C_10
REMARK    4  A    between atoms: N_17  and  C1*_18
REMARK    5  A    between atoms: C4*_20  and  C5*_21
REMARK    6  A    between atoms: C5*_21  and  O5*_22
REMARK    7  A    between atoms: C3*_23  and  O3*_24
REMARK    8  A    between atoms: C2*_25  and  O2*_26
REMARK                            x       y       z     vdW  Elec       q    Type
REMARK                         _______ _______ _______ _____ _____    ______ ____
ROOT
ATOM      1  C   UNL     1       1.933   6.695  20.622  0.00  0.00    +0.000 A 
ATOM      2  N   UNL     1       1.150   7.094  21.652  0.00  0.00    +0.000 NA
ATOM      3  C   UNL     1       0.487   8.253  21.560  0.00  0.00    +0.000 A 
ATOM      4  N   UNL     1       0.511   9.127  20.549  0.00  0.00    +0.000 NA
ATOM      5  C   UNL     1       1.324   8.738  19.559  0.00  0.00    +0.000 A 
ATOM      6  C   UNL     1       2.063   7.556  19.500  0.00  0.00    +0.000 A 
ATOM      7  C   UNL     1       2.761   7.572  18.235  0.00  0.00    +0.000 A 
ATOM      8  C   UNL     1       2.434   8.771  17.618  0.00  0.00    +0.000 A 
ATOM      9  N   UNL     1       1.539   9.449  18.406  0.00  0.00    +0.000 N 
ENDROOT
BRANCH   7  10
ATOM     10  C   UNL     1       3.622   6.581  17.578  0.00  0.00    +0.000 A 
ATOM     11  C   UNL     1       4.743   6.989  16.834  0.00  0.00    +0.000 A 
ATOM     12  C   UNL     1       5.511   6.065  16.121  0.00  0.00    +0.000 A 
ATOM     13  C   UNL     1       5.157   4.720  16.116  0.00  0.00    +0.000 A 
ATOM     14  C   UNL     1       4.072   4.293  16.875  0.00  0.00    +0.000 A 
ATOM     15  C   UNL     1       3.338   5.212  17.631  0.00  0.00    +0.000 A 
ENDBRANCH   7  10
BRANCH   9  16
ATOM     16  C1* UNL     1       0.893  10.699  18.037  0.00  0.00    +0.000 C 
ATOM     17  O4* UNL     1       1.472  11.789  18.790  0.00  0.00    +0.000 OA
ATOM     18  C4* UNL     1       0.404  12.666  19.227  0.00  0.00    +0.000 C 
ATOM     19  C3* UNL     1      -0.863  12.212  18.508  0.00  0.00    +0.000 C 
ATOM     20  C2* UNL     1      -0.623  10.732  18.248  0.00  0.00    +0.000 C 
BRANCH  19  21
ATOM     21  O3* UNL     1      -1.014  12.861  17.228  0.00  0.00    +0.000 OA
ATOM     22  H3* UNL     1      -0.928  13.825  17.349  0.00  0.00    +0.000 HD
ENDBRANCH  19  21
BRANCH  20  23
ATOM     23  O2* UNL     1      -1.352  10.286  17.101  0.00  0.00    +0.000 OA
ATOM     24  H2* UNL     1      -1.440  11.069  16.516  0.00  0.00    +0.000 HD
ENDBRANCH  20  23
BRANCH  18  25
ATOM     25  C5* UNL     1       0.283  12.607  20.752  0.00  0.00    +0.000 C 
BRANCH  25  26
ATOM     26  O5* UNL     1       1.402  11.915  21.299  0.00  0.00    +0.000 OA
ATOM     27  H5* UNL     1       2.141  12.555  21.285  0.00  0.00    +0.000 HD
ENDBRANCH  25  26
ENDBRANCH  18  25
ENDBRANCH   9  16
BRANCH   1  29
ATOM     28  C   UNL     1       1.753   4.300  20.958  0.00  0.00    +0.000 C 
ATOM     29  N   UNL     1       2.581   5.463  20.712  0.00  0.00    +0.000 N 
ATOM     30  H   UNL     1       3.253   5.359  19.959  0.00  0.00    +0.000 HD
ENDBRANCH   1  29
TORSDOF 7
ENDMDL
MODEL 4
REMARK VINA RESULT:      -6.6      3.335      6.535
REMARK  Name = 
REMARK  8 active torsions:
REMARK  status: ('A' for Active; 'I' for Inactive)
REMARK    1  A    between atoms: C_1  and  N_2
REMARK    2  A    between atoms: N_2  and  C_3
REMARK    3  A    between atoms: C_9  and  C_10
REMARK    4  A    between atoms: N_17  and  C1*_18
REMARK    5  A    between atoms: C4*_20  and  C5*_21
REMARK    6  A    between atoms: C5*_21  and  O5*_22
REMARK    7  A    between atoms: C3*_23  and  O3*_24
REMARK    8  A    between atoms: C2*_25  and  O2*_26
REMARK                            x       y       z     vdW  Elec       q    Type
REMARK                         _______ _______ _______ _____ _____    ______ ____
ROOT
ATOM      1  C   UNL     1       3.294   3.556  19.592  0.00  0.00    +0.000 A 
ATOM      2  N   UNL     1       2.454   3.037  20.518  0.00  0.00    +0.000 NA
ATOM      3  C   UNL     1       1.522   3.822  21.072  0.00  0.00    +0.000 A 
ATOM      4  N   UNL     1       1.311   5.121  20.841  0.00  0.00    +0.000 NA
ATOM      5  C   UNL     1       2.178   5.629  19.956  0.00  0.00    +0.000 A 
ATOM      6  C   UNL     1       3.186   4.938  19.284  0.00  0.00    +0.000 A 
ATOM      7  C   UNL     1       3.837   5.899  18.422  0.00  0.00    +0.000 A 
ATOM      8  C   UNL     1       3.212   7.117  18.646  0.00  0.00    +0.000 A 
ATOM      9  N   UNL     1       2.190   6.937  19.543  0.00  0.00    +0.000 N 
ENDROOT
BRANCH   7  10
ATOM     10  C   UNL     1       4.905   5.756  17.426  0.00  0.00    +0.000 A 
ATOM     11  C   UNL     1       4.725   4.939  16.296  0.00  0.00    +0.000 A 
ATOM     12  C   UNL     1       5.768   4.714  15.394  0.00  0.00    +0.000 A 
ATOM     13  C   UNL     1       7.019   5.279  15.619  0.00  0.00    +0.000 A 
ATOM     14  C   UNL     1       7.206   6.118  16.713  0.00  0.00    +0.000 A 
ATOM     15  C   UNL     1       6.145   6.386  17.584  0.00  0.00    +0.000 A 
ENDBRANCH   7  10
BRANCH   9  16
ATOM     16  C1* UNL     1       1.248   7.971  19.942  0.00  0.00    +0.000 C 
ATOM     17  O4* UNL     1       0.836   8.730  18.782  0.00  0.00    +0.000 OA
ATOM     18  C4* UNL     1       0.804  10.134  19.137  0.00  0.00    +0.000 C 
ATOM     19  C3* UNL     1       0.982  10.212  20.651  0.00  0.00    +0.000 C 
ATOM     20  C2* UNL     1       1.773   8.957  20.989  0.00  0.00    +0.000 C 
BRANCH  19  21
ATOM     21  O3* UNL     1      -0.282  10.129  21.342  0.00  0.00    +0.000 OA
ATOM     22  H3* UNL     1      -0.123  10.191  22.302  0.00  0.00    +0.000 HD
ENDBRANCH  19  21
BRANCH  20  23
ATOM     23  O2* UNL     1       1.515   8.531  22.330  0.00  0.00    +0.000 OA
ATOM     24  H2* UNL     1       2.268   8.858  22.867  0.00  0.00    +0.000 HD
ENDBRANCH  20  23
BRANCH  18  25
ATOM     25  C5* UNL     1       1.893  10.884  18.366  0.00  0.00    +0.000 C 
BRANCH  25  26
ATOM     26  O5* UNL     1       2.237  10.159  17.188  0.00  0.00    +0.000 OA
ATOM     27  H5* UNL     1       2.296   9.223  17.461  0.00  0.00    +0.000 HD
ENDBRANCH  25  26
ENDBRANCH  18  25
ENDBRANCH   9  16
BRANCH   1  29
ATOM     28  C   UNL     1       3.728   1.490  18.399  0.00  0.00    +0.000 C 
ATOM     29  N   UNL     1       4.229   2.714  18.989  0.00  0.00    +0.000 N 
ATOM     30  H   UNL     1       4.860   3.247  18.400  0.00  0.00    +0.000 HD
ENDBRANCH   1  29
TORSDOF 7
ENDMDL
MODEL 5
REMARK VINA RESULT:      -6.3      1.324      2.317
REMARK  Name = 
REMARK  8 active torsions:
REMARK  status: ('A' for Active; 'I' for Inactive)
REMARK    1  A    between atoms: C_1  and  N_2
REMARK    2  A    between atoms: N_2  and  C_3
REMARK    3  A    between atoms: C_9  and  C_10
REMARK    4  A    between atoms: N_17  and  C1*_18
REMARK    5  A    between atoms: C4*_20  and  C5*_21
REMARK    6  A    between atoms: C5*_21  and  O5*_22
REMARK    7  A    between atoms: C3*_23  and  O3*_24
REMARK    8  A    between atoms: C2*_25  and  O2*_26
REMARK                            x       y       z     vdW  Elec       q    Type
REMARK                         _______ _______ _______ _____ _____    ______ ____
ROOT
ATOM      1  C   UNL     1       1.760   3.351  19.466  0.00  0.00    +0.000 A 
ATOM      2  N   UNL     1       1.976   2.048  19.170  0.00  0.00    +0.000 NA
ATOM      3  C   UNL     1       2.868   1.730  18.226  0.00  0.00    +0.000 A 
ATOM      4  N   UNL     1       3.597   2.565  17.479  0.00  0.00    +0.000 NA
ATOM      5  C   UNL     1       3.338   3.850  17.754  0.00  0.00    +0.000 A 
ATOM      6  C   UNL     1       2.455   4.337  18.717  0.00  0.00    +0.000 A 
ATOM      7  C   UNL     1       2.537   5.779  18.657  0.00  0.00    +0.000 A 
ATOM      8  C   UNL     1       3.436   6.082  17.643  0.00  0.00    +0.000 A 
ATOM      9  N   UNL     1       3.940   4.914  17.130  0.00  0.00    +0.000 N 
ENDROOT
BRANCH   7  10
ATOM     10  C   UNL     1       1.911   6.831  19.466  0.00  0.00    +0.000 A 
ATOM     11  C   UNL     1       1.748   8.128  18.950  0.00  0.00    +0.000 A 
ATOM     12  C   UNL     1       1.247   9.164  19.744  0.00  0.00    +0.000 A 
ATOM     13  C   UNL     1       0.926   8.927  21.077  0.00  0.00    +0.000 A 
ATOM     14  C   UNL     1       1.048   7.642  21.594  0.00  0.00    +0.000 A 
ATOM     15  C   UNL     1       1.497   6.596  20.782  0.00  0.00    +0.000 A 
ENDBRANCH   7  10
BRANCH   9  16
ATOM     16  C1* UNL     1       4.985   4.837  16.122  0.00  0.00    +0.000 C 
ATOM     17  O4* UNL     1       5.932   3.803  16.476  0.00  0.00    +0.000 OA
ATOM     18  C4* UNL     1       7.270   4.293  16.217  0.00  0.00    +0.000 C 
ATOM     19  C3* UNL     1       7.121   5.604  15.450  0.00  0.00    +0.000 C 
ATOM     20  C2* UNL     1       5.767   6.135  15.899  0.00  0.00    +0.000 C 
BRANCH  19  21
ATOM     21  O3* UNL     1       7.051   5.384  14.026  0.00  0.00    +0.000 OA
ATOM     22  H3* UNL     1       6.803   4.456  13.859  0.00  0.00    +0.000 HD
ENDBRANCH  19  21
BRANCH  20  23
ATOM     23  O2* UNL     1       5.182   6.969  14.895  0.00  0.00    +0.000 OA
ATOM     24  H2* UNL     1       4.213   6.829  14.960  0.00  0.00    +0.000 HD
ENDBRANCH  20  23
BRANCH  18  25
ATOM     25  C5* UNL     1       8.024   4.454  17.539  0.00  0.00    +0.000 C 
BRANCH  25  26
ATOM     26  O5* UNL     1       7.120   4.308  18.632  0.00  0.00    +0.000 OA
ATOM     27  H5* UNL     1       6.481   3.622  18.356  0.00  0.00    +0.000 HD
ENDBRANCH  25  26
ENDBRANCH  18  25
ENDBRANCH   9  16
BRANCH   1  29
ATOM     28  C   UNL     1       1.071   3.029  21.769  0.00  0.00    +0.000 C 
ATOM     29  N   UNL     1       0.861   3.666  20.486  0.00  0.00    +0.000 N 
ATOM     30  H   UNL     1       0.705   4.668  20.525  0.00  0.00    +0.000 HD
ENDBRANCH   1  29
TORSDOF 7
ENDMDL
MODEL 6
REMARK VINA RESULT:      -6.3      1.934      3.197
REMARK  Name = 
REMARK  8 active torsions:
REMARK  status: ('A' for Active; 'I' for Inactive)
REMARK    1  A    between atoms: C_1  and  N_2
REMARK    2  A    between atoms: N_2  and  C_3
REMARK    3  A    between atoms: C_9  and  C_10
REMARK    4  A    between atoms: N_17  and  C1*_18
REMARK    5  A    between atoms: C4*_20  and  C5*_21
REMARK    6  A    between atoms: C5*_21  and  O5*_22
REMARK    7  A    between atoms: C3*_23  and  O3*_24
REMARK    8  A    between atoms: C2*_25  and  O2*_26
REMARK                            x       y       z     vdW  Elec       q    Type
REMARK                         _______ _______ _______ _____ _____    ______ ____
ROOT
ATOM      1  C   UNL     1       1.603   7.146  20.417  0.00  0.00    +0.000 A 
ATOM      2  N   UNL     1       1.939   5.942  20.937  0.00  0.00    +0.000 NA
ATOM      3  C   UNL     1       2.878   5.206  20.331  0.00  0.00    +0.000 A 
ATOM      4  N   UNL     1       3.547   5.501  19.212  0.00  0.00    +0.000 NA
ATOM      5  C   UNL     1       3.170   6.674  18.688  0.00  0.00    +0.000 A 
ATOM      6  C   UNL     1       2.226   7.558  19.210  0.00  0.00    +0.000 A 
ATOM      7  C   UNL     1       2.183   8.690  18.311  0.00  0.00    +0.000 A 
ATOM      8  C   UNL     1       3.075   8.413  17.284  0.00  0.00    +0.000 A 
ATOM      9  N   UNL     1       3.691   7.214  17.539  0.00  0.00    +0.000 N 
ENDROOT
BRANCH   7  10
ATOM     10  C   UNL     1       1.449   9.959  18.369  0.00  0.00    +0.000 A 
ATOM     11  C   UNL     1       2.139  11.181  18.443  0.00  0.00    +0.000 A 
ATOM     12  C   UNL     1       1.453  12.389  18.600  0.00  0.00    +0.000 A 
ATOM     13  C   UNL     1       0.067  12.394  18.714  0.00  0.00    +0.000 A 
ATOM     14  C   UNL     1      -0.635  11.197  18.607  0.00  0.00    +0.000 A 
ATOM     15  C   UNL     1       0.050   9.997  18.395  0.00  0.00    +0.000 A 
ENDBRANCH   7  10
BRANCH   9  16
ATOM     16  C1* UNL     1       4.762   6.648  16.735  0.00  0.00    +0.000 C 
ATOM     17  O4* UNL     1       4.397   5.317  16.301  0.00  0.00    +0.000 OA
ATOM     18  C4* UNL     1       5.554   4.456  16.431  0.00  0.00    +0.000 C 
ATOM     19  C3* UNL     1       6.745   5.357  16.739  0.00  0.00    +0.000 C 
ATOM     20  C2* UNL     1       6.122   6.559  17.434  0.00  0.00    +0.000 C 
BRANCH  19  21
ATOM     21  O3* UNL     1       7.381   5.833  15.535  0.00  0.00    +0.000 OA
ATOM     22  H3* UNL     1       6.693   6.063  14.882  0.00  0.00    +0.000 HD
ENDBRANCH  19  21
BRANCH  20  23
ATOM     23  O2* UNL     1       6.918   7.732  17.249  0.00  0.00    +0.000 OA
ATOM     24  H2* UNL     1       6.499   8.431  17.796  0.00  0.00    +0.000 HD
ENDBRANCH  20  23
BRANCH  18  25
ATOM     25  C5* UNL     1       5.296   3.409  17.518  0.00  0.00    +0.000 C 
BRANCH  25  26
ATOM     26  O5* UNL     1       6.023   3.747  18.696  0.00  0.00    +0.000 OA
ATOM     27  H5* UNL     1       6.862   4.142  18.385  0.00  0.00    +0.000 HD
ENDBRANCH  25  26
ENDBRANCH  18  25
ENDBRANCH   9  16
BRANCH   1  29
ATOM     28  C   UNL     1       1.157   8.961  21.963  0.00  0.00    +0.000 C 
ATOM     29  N   UNL     1       0.656   7.923  21.086  0.00  0.00    +0.000 N 
ATOM     30  H   UNL     1      -0.077   8.217  20.449  0.00  0.00    +0.000 HD
ENDBRANCH   1  29
TORSDOF 7
ENDMDL
MODEL 7
REMARK VINA RESULT:      -6.2      6.997     10.608
REMARK  Name = 
REMARK  8 active torsions:
REMARK  status: ('A' for Active; 'I' for Inactive)
REMARK    1  A    between atoms: C_1  and  N_2
REMARK    2  A    between atoms: N_2  and  C_3
REMARK    3  A    between atoms: C_9  and  C_10
REMARK    4  A    between atoms: N_17  and  C1*_18
REMARK    5  A    between atoms: C4*_20  and  C5*_21
REMARK    6  A    between atoms: C5*_21  and  O5*_22
REMARK    7  A    between atoms: C3*_23  and  O3*_24
REMARK    8  A    between atoms: C2*_25  and  O2*_26
REMARK                            x       y       z     vdW  Elec       q    Type
REMARK                         _______ _______ _______ _____ _____    ______ ____
ROOT
ATOM      1  C   UNL     1      -1.868  10.795  18.313  0.00  0.00    +0.000 A 
ATOM      2  N   UNL     1      -2.986  11.549  18.194  0.00  0.00    +0.000 NA
ATOM      3  C   UNL     1      -3.329  12.374  19.189  0.00  0.00    +0.000 A 
ATOM      4  N   UNL     1      -2.701  12.549  20.355  0.00  0.00    +0.000 NA
ATOM      5  C   UNL     1      -1.623  11.764  20.475  0.00  0.00    +0.000 A 
ATOM      6  C   UNL     1      -1.129  10.871  19.523  0.00  0.00    +0.000 A 
ATOM      7  C   UNL     1       0.058  10.277  20.095  0.00  0.00    +0.000 A 
ATOM      8  C   UNL     1       0.196  10.815  21.367  0.00  0.00    +0.000 A 
ATOM      9  N   UNL     1      -0.800  11.737  21.572  0.00  0.00    +0.000 N 
ENDROOT
BRANCH   7  10
ATOM     10  C   UNL     1       1.042   9.335  19.550  0.00  0.00    +0.000 A 
ATOM     11  C   UNL     1       1.560   9.512  18.255  0.00  0.00    +0.000 A 
ATOM     12  C   UNL     1       2.420   8.568  17.686  0.00  0.00    +0.000 A 
ATOM     13  C   UNL     1       2.755   7.417  18.390  0.00  0.00    +0.000 A 
ATOM     14  C   UNL     1       2.281   7.242  19.686  0.00  0.00    +0.000 A 
ATOM     15  C   UNL     1       1.465   8.214  20.273  0.00  0.00    +0.000 A 
ENDBRANCH   7  10
BRANCH   9  16
ATOM     16  C1* UNL     1      -0.916  12.579  22.752  0.00  0.00    +0.000 C 
ATOM     17  O4* UNL     1      -2.135  12.261  23.461  0.00  0.00    +0.000 OA
ATOM     18  C4* UNL     1      -2.754  13.498  23.893  0.00  0.00    +0.000 C 
ATOM     19  C3* UNL     1      -1.744  14.612  23.636  0.00  0.00    +0.000 C 
ATOM     20  C2* UNL     1      -0.910  14.086  22.477  0.00  0.00    +0.000 C 
BRANCH  19  21
ATOM     21  O3* UNL     1      -0.858  14.799  24.759  0.00  0.00    +0.000 OA
ATOM     22  H3* UNL     1      -1.201  15.523  25.316  0.00  0.00    +0.000 HD
ENDBRANCH  19  21
BRANCH  20  23
ATOM     23  O2* UNL     1       0.406  14.646  22.493  0.00  0.00    +0.000 OA
ATOM     24  H2* UNL     1       0.985  13.987  22.054  0.00  0.00    +0.000 HD
ENDBRANCH  20  23
BRANCH  18  25
ATOM     25  C5* UNL     1      -4.074  13.700  23.145  0.00  0.00    +0.000 C 
BRANCH  25  26
ATOM     26  O5* UNL     1      -4.549  12.449  22.655  0.00  0.00    +0.000 OA
ATOM     27  H5* UNL     1      -5.502  12.425  22.871  0.00  0.00    +0.000 HD
ENDBRANCH  25  26
ENDBRANCH  18  25
ENDBRANCH   9  16
BRANCH   1  29
ATOM     28  C   UNL     1      -2.398   9.917  16.115  0.00  0.00    +0.000 C 
ATOM     29  N   UNL     1      -1.497   9.974  17.248  0.00  0.00    +0.000 N 
ATOM     30  H   UNL     1      -0.521  10.118  17.011  0.00  0.00    +0.000 HD
ENDBRANCH   1  29
TORSDOF 7
ENDMDL
MODEL 8
REMARK VINA RESULT:      -6.2      9.042     12.316
REMARK  Name = 
REMARK  8 active torsions:
REMARK  status: ('A' for Active; 'I' for Inactive)
REMARK    1  A    between atoms: C_1  and  N_2
REMARK    2  A    between atoms: N_2  and  C_3
REMARK    3  A    between atoms: C_9  and  C_10
REMARK    4  A    between atoms: N_17  and  C1*_18
REMARK    5  A    between atoms: C4*_20  and  C5*_21
REMARK    6  A    between atoms: C5*_21  and  O5*_22
REMARK    7  A    between atoms: C3*_23  and  O3*_24
REMARK    8  A    between atoms: C2*_25  and  O2*_26
REMARK                            x       y       z     vdW  Elec       q    Type
REMARK                         _______ _______ _______ _____ _____    ______ ____
ROOT
ATOM      1  C   UNL     1      -3.541  11.467  17.035  0.00  0.00    +0.000 A 
ATOM      2  N   UNL     1      -4.804  11.396  16.553  0.00  0.00    +0.000 NA
ATOM      3  C   UNL     1      -5.820  11.823  17.311  0.00  0.00    +0.000 A 
ATOM      4  N   UNL     1      -5.759  12.315  18.552  0.00  0.00    +0.000 NA
ATOM      5  C   UNL     1      -4.508  12.337  19.030  0.00  0.00    +0.000 A 
ATOM      6  C   UNL     1      -3.350  11.945  18.358  0.00  0.00    +0.000 A 
ATOM      7  C   UNL     1      -2.250  12.174  19.269  0.00  0.00    +0.000 A 
ATOM      8  C   UNL     1      -2.806  12.657  20.445  0.00  0.00    +0.000 A 
ATOM      9  N   UNL     1      -4.162  12.786  20.279  0.00  0.00    +0.000 N 
ENDROOT
BRANCH   7  10
ATOM     10  C   UNL     1      -0.799  12.031  19.108  0.00  0.00    +0.000 A 
ATOM     11  C   UNL     1       0.008  13.156  18.869  0.00  0.00    +0.000 A 
ATOM     12  C   UNL     1       1.376  13.022  18.613  0.00  0.00    +0.000 A 
ATOM     13  C   UNL     1       1.956  11.759  18.564  0.00  0.00    +0.000 A 
ATOM     14  C   UNL     1       1.179  10.637  18.832  0.00  0.00    +0.000 A 
ATOM     15  C   UNL     1      -0.178  10.778  19.142  0.00  0.00    +0.000 A 
ENDBRANCH   7  10
BRANCH   9  16
ATOM     16  C1* UNL     1      -5.064  13.360  21.265  0.00  0.00    +0.000 C 
ATOM     17  O4* UNL     1      -4.301  13.977  22.327  0.00  0.00    +0.000 OA
ATOM     18  C4* UNL     1      -4.923  13.649  23.593  0.00  0.00    +0.000 C 
ATOM     19  C3* UNL     1      -6.263  12.994  23.272  0.00  0.00    +0.000 C 
ATOM     20  C2* UNL     1      -6.042  12.368  21.903  0.00  0.00    +0.000 C 
BRANCH  19  21
ATOM     21  O3* UNL     1      -7.317  13.970  23.140  0.00  0.00    +0.000 OA
ATOM     22  H3* UNL     1      -6.972  14.747  22.662  0.00  0.00    +0.000 HD
ENDBRANCH  19  21
BRANCH  20  23
ATOM     23  O2* UNL     1      -7.272  12.262  21.181  0.00  0.00    +0.000 OA
ATOM     24  H2* UNL     1      -7.184  12.860  20.408  0.00  0.00    +0.000 HD
ENDBRANCH  20  23
BRANCH  18  25
ATOM     25  C5* UNL     1      -3.992  12.745  24.405  0.00  0.00    +0.000 C 
BRANCH  25  26
ATOM     26  O5* UNL     1      -4.724  12.112  25.451  0.00  0.00    +0.000 OA
ATOM     27  H5* UNL     1      -4.270  12.362  26.280  0.00  0.00    +0.000 HD
ENDBRANCH  25  26
ENDBRANCH  18  25
ENDBRANCH   9  16
BRANCH   1  29
ATOM     28  C   UNL     1      -2.811  10.173  15.118  0.00  0.00    +0.000 C 
ATOM     29  N   UNL     1      -2.488  11.061  16.215  0.00  0.00    +0.000 N 
ATOM     30  H   UNL     1      -1.905  11.854  15.967  0.00  0.00    +0.000 HD
ENDBRANCH   1  29
TORSDOF 7
ENDMDL
MODEL 9
REMARK VINA RESULT:      -6.2      3.161      5.527
REMARK  Name = 
REMARK  8 active torsions:
REMARK  status: ('A' for Active; 'I' for Inactive)
REMARK    1  A    between atoms: C_1  and  N_2
REMARK    2  A    between atoms: N_2  and  C_3
REMARK    3  A    between atoms: C_9  and  C_10
REMARK    4  A    between atoms: N_17  and  C1*_18
REMARK    5  A    between atoms: C4*_20  and  C5*_21
REMARK    6  A    between atoms: C5*_21  and  O5*_22
REMARK    7  A    between atoms: C3*_23  and  O3*_24
REMARK    8  A    between atoms: C2*_25  and  O2*_26
REMARK                            x       y       z     vdW  Elec       q    Type
REMARK                         _______ _______ _______ _____ _____    ______ ____
ROOT
ATOM      1  C   UNL     1       1.873   9.500  18.250  0.00  0.00    +0.000 A 
ATOM      2  N   UNL     1       2.648   9.114  17.209  0.00  0.00    +0.000 NA
ATOM      3  C   UNL     1       3.154   7.875  17.194  0.00  0.00    +0.000 A 
ATOM      4  N   UNL     1       3.012   6.926  18.123  0.00  0.00    +0.000 NA
ATOM      5  C   UNL     1       2.280   7.339  19.166  0.00  0.00    +0.000 A 
ATOM      6  C   UNL     1       1.672   8.586  19.318  0.00  0.00    +0.000 A 
ATOM      7  C   UNL     1       0.977   8.551  20.585  0.00  0.00    +0.000 A 
ATOM      8  C   UNL     1       1.229   7.305  21.140  0.00  0.00    +0.000 A 
ATOM      9  N   UNL     1       1.984   6.569  20.261  0.00  0.00    +0.000 N 
ENDROOT
BRANCH   7  10
ATOM     10  C   UNL     1       0.103   9.525  21.250  0.00  0.00    +0.000 A 
ATOM     11  C   UNL     1      -0.444  10.602  20.531  0.00  0.00    +0.000 A 
ATOM     12  C   UNL     1      -1.194  11.592  21.173  0.00  0.00    +0.000 A 
ATOM     13  C   UNL     1      -1.386  11.537  22.550  0.00  0.00    +0.000 A 
ATOM     14  C   UNL     1      -0.882  10.460  23.271  0.00  0.00    +0.000 A 
ATOM     15  C   UNL     1      -0.179   9.443  22.618  0.00  0.00    +0.000 A 
ENDBRANCH   7  10
BRANCH   9  16
ATOM     16  C1* UNL     1       2.357   5.177  20.457  0.00  0.00    +0.000 C 
ATOM     17  O4* UNL     1       3.757   4.997  20.144  0.00  0.00    +0.000 OA
ATOM     18  C4* UNL     1       3.908   3.767  19.394  0.00  0.00    +0.000 C 
ATOM     19  C3* UNL     1       2.566   3.044  19.453  0.00  0.00    +0.000 C 
ATOM     20  C2* UNL     1       1.556   4.169  19.627  0.00  0.00    +0.000 C 
BRANCH  19  21
ATOM     21  O3* UNL     1       2.470   2.189  20.611  0.00  0.00    +0.000 OA
ATOM     22  H3* UNL     1       2.665   2.714  21.410  0.00  0.00    +0.000 HD
ENDBRANCH  19  21
BRANCH  20  23
ATOM     23  O2* UNL     1       0.381   3.706  20.301  0.00  0.00    +0.000 OA
ATOM     24  H2* UNL     1      -0.378   4.066  19.795  0.00  0.00    +0.000 HD
ENDBRANCH  20  23
BRANCH  18  25
ATOM     25  C5* UNL     1       4.356   4.087  17.966  0.00  0.00    +0.000 C 
BRANCH  25  26
ATOM     26  O5* UNL     1       5.386   5.072  17.991  0.00  0.00    +0.000 OA
ATOM     27  H5* UNL     1       5.706   5.143  17.070  0.00  0.00    +0.000 HD
ENDBRANCH  25  26
ENDBRANCH  18  25
ENDBRANCH   9  16
BRANCH   1  29
ATOM     28  C   UNL     1       2.230  11.899  18.271  0.00  0.00    +0.000 C 
ATOM     29  N   UNL     1       1.313  10.778  18.230  0.00  0.00    +0.000 N 
ATOM     30  H   UNL     1       0.593  10.840  17.517  0.00  0.00    +0.000 HD
ENDBRANCH   1  29
TORSDOF 7
ENDMDL
