MODEL 1
REMARK VINA RESULT:      -6.4      0.000      0.000
REMARK  Name = 
REMARK  10 active torsions:
REMARK  status: ('A' for Active; 'I' for Inactive)
REMARK    1  A    between atoms: C_1  and  C_2
REMARK    2  A    between atoms: C_2  and  N_3
REMARK    3  A    between atoms: C_4  and  C_5
REMARK    4  A    between atoms: C_8  and  S_9
REMARK    5  A    between atoms: S_9  and  C_10
REMARK    6  A    between atoms: C_10  and  C_11
REMARK    7  A    between atoms: C_11  and  N_12
REMARK    8  A    between atoms: C_15  and  C_16
REMARK    9  A    between atoms: C_16  and  O_17
REMARK   10  A    between atoms: O_17  and  C_18
REMARK                            x       y       z     vdW  Elec       q    Type
REMARK                         _______ _______ _______ _____ _____    ______ ____
ROOT
ATOM      1  C   UNL     1       6.215   4.379  16.932  0.00  0.00    +0.000 C 
ENDROOT
BRANCH   1   2
ATOM      2  N   UNL     1       6.853   5.279  15.982  0.00  0.00    +0.000 N 
ATOM      3  C   UNL     1       6.964   4.919  14.651  0.00  0.00    +0.000 A 
ATOM      4  C   UNL     1       6.076   4.070  14.024  0.00  0.00    +0.000 A 
ATOM      5  C   UNL     1       6.287   3.809  12.690  0.00  0.00    +0.000 A 
ATOM      6  N   UNL     1       7.304   4.358  11.992  0.00  0.00    +0.000 NA
ATOM      7  C   UNL     1       8.087   5.201  12.692  0.00  0.00    +0.000 A 
ATOM      8  N   UNL     1       7.975   5.500  13.994  0.00  0.00    +0.000 NA
ATOM      9  H   UNL     1       7.714   5.729  16.272  0.00  0.00    +0.000 HD
BRANCH   5  10
ATOM     10  C   UNL     1       5.376   2.839  11.968  0.00  0.00    +0.000 C 
BRANCH  10  11
ATOM     11  O   UNL     1       4.094   3.441  11.781  0.00  0.00    +0.000 OA
ATOM     12  C   UNL     1       3.423   2.901  10.656  0.00  0.00    +0.000 C 
ENDBRANCH  10  11
ENDBRANCH   5  10
ENDBRANCH   1   2
BRANCH   1  13
ATOM     13  C   UNL     1       5.611   5.161  18.103  0.00  0.00    +0.000 C 
BRANCH  13  14
ATOM     14  S   UNL     1       4.028   6.023  17.685  0.00  0.00    +0.000 S 
BRANCH  14  20
ATOM     15  N   UNL     1       2.277   4.172  18.781  0.00  0.00    +0.000 N 
ATOM     16  C   UNL     1       1.470   4.116  19.902  0.00  0.00    +0.000 A 
ATOM     17  C   UNL     1       0.572   2.999  20.291  0.00  0.00    +0.000 C 
ATOM     18  N   UNL     1       1.639   5.218  20.602  0.00  0.00    +0.000 NA
ATOM     19  N   UNL     1       2.545   6.016  19.946  0.00  0.00    +0.000 NA
ATOM     20  C   UNL     1       2.926   5.385  18.858  0.00  0.00    +0.000 A 
BRANCH  15  22
ATOM     21  C   UNL     1       3.478   2.091  18.160  0.00  0.00    +0.000 C 
ATOM     22  C   UNL     1       2.408   3.110  17.804  0.00  0.00    +0.000 C 
ENDBRANCH  15  22
ENDBRANCH  14  20
ENDBRANCH  13  14
ENDBRANCH   1  13
TORSDOF 7
ENDMDL
MODEL 2
REMARK VINA RESULT:      -6.4      1.096      1.276
REMARK  Name = 
REMARK  10 active torsions:
REMARK  status: ('A' for Active; 'I' for Inactive)
REMARK    1  A    between atoms: C_1  and  C_2
REMARK    2  A    between atoms: C_2  and  N_3
REMARK    3  A    between atoms: C_4  and  C_5
REMARK    4  A    between atoms: C_8  and  S_9
REMARK    5  A    between atoms: S_9  and  C_10
REMARK    6  A    between atoms: C_10  and  C_11
REMARK    7  A    between atoms: C_11  and  N_12
REMARK    8  A    between atoms: C_15  and  C_16
REMARK    9  A    between atoms: C_16  and  O_17
REMARK   10  A    between atoms: O_17  and  C_18
REMARK                            x       y       z     vdW  Elec       q    Type
REMARK                         _______ _______ _______ _____ _____    ______ ____
ROOT
ATOM      1  C   UNL     1       6.526   4.227  16.919  0.00  0.00    +0.000 C 
ENDROOT
BRANCH   1   2
ATOM      2  N   UNL     1       6.975   5.213  15.946  0.00  0.00    +0.000 N 
ATOM      3  C   UNL     1       7.058   4.879  14.607  0.00  0.00    +0.000 A 
ATOM      4  C   UNL     1       6.262   3.917  14.020  0.00  0.00    +0.000 A 
ATOM      5  C   UNL     1       6.429   3.695  12.672  0.00  0.00    +0.000 A 
ATOM      6  N   UNL     1       7.316   4.384  11.925  0.00  0.00    +0.000 NA
ATOM      7  C   UNL     1       8.013   5.325  12.590  0.00  0.00    +0.000 A 
ATOM      8  N   UNL     1       7.938   5.599  13.900  0.00  0.00    +0.000 NA
ATOM      9  H   UNL     1       7.781   5.777  16.192  0.00  0.00    +0.000 HD
BRANCH   5  10
ATOM     10  C   UNL     1       5.621   2.611  11.990  0.00  0.00    +0.000 C 
BRANCH  10  11
ATOM     11  O   UNL     1       6.493   1.782  11.219  0.00  0.00    +0.000 OA
ATOM     12  C   UNL     1       6.084   0.427  11.247  0.00  0.00    +0.000 C 
ENDBRANCH  10  11
ENDBRANCH   5  10
ENDBRANCH   1   2
BRANCH   1  13
ATOM     13  C   UNL     1       5.897   4.910  18.136  0.00  0.00    +0.000 C 
BRANCH  13  14
ATOM     14  S   UNL     1       4.241   5.664  17.794  0.00  0.00    +0.000 S 
BRANCH  14  20
ATOM     15  N   UNL     1       3.189   3.862  19.621  0.00  0.00    +0.000 N 
ATOM     16  C   UNL     1       2.303   3.930  20.680  0.00  0.00    +0.000 A 
ATOM     17  C   UNL     1       1.854   2.799  21.531  0.00  0.00    +0.000 C 
ATOM     18  N   UNL     1       1.924   5.181  20.837  0.00  0.00    +0.000 NA
ATOM     19  N   UNL     1       2.544   5.947  19.879  0.00  0.00    +0.000 NA
ATOM     20  C   UNL     1       3.302   5.154  19.156  0.00  0.00    +0.000 A 
BRANCH  15  22
ATOM     21  C   UNL     1       3.096   1.871  18.142  0.00  0.00    +0.000 C 
ATOM     22  C   UNL     1       3.868   2.658  19.188  0.00  0.00    +0.000 C 
ENDBRANCH  15  22
ENDBRANCH  14  20
ENDBRANCH  13  14
ENDBRANCH   1  13
TORSDOF 7
ENDMDL
MODEL 3
REMARK VINA RESULT:      -6.1      6.059      8.560
REMARK  Name = 
REMARK  10 active torsions:
REMARK  status: ('A' for Active; 'I' for Inactive)
REMARK    1  A    between atoms: C_1  and  C_2
REMARK    2  A    between atoms: C_2  and  N_3
REMARK    3  A    between atoms: C_4  and  C_5
REMARK    4  A    between atoms: C_8  and  S_9
REMARK    5  A    between atoms: S_9  and  C_10
REMARK    6  A    between atoms: C_10  and  C_11
REMARK    7  A    between atoms: C_11  and  N_12
REMARK    8  A    between atoms: C_15  and  C_16
REMARK    9  A    between atoms: C_16  and  O_17
REMARK   10  A    between atoms: O_17  and  C_18
REMARK                            x       y       z     vdW  Elec       q    Type
REMARK                         _______ _______ _______ _____ _____    ______ ____
ROOT
ATOM      1  C   UNL     1       7.946   7.463  17.964  0.00  0.00    +0.000 C 
ENDROOT
BRANCH   1   2
ATOM      2  N   UNL     1       7.613   6.784  16.721  0.00  0.00    +0.000 N 
ATOM      3  C   UNL     1       6.563   5.884  16.680  0.00  0.00    +0.000 A 
ATOM      4  C   UNL     1       5.472   5.961  17.521  0.00  0.00    +0.000 A 
ATOM      5  C   UNL     1       4.486   5.016  17.363  0.00  0.00    +0.000 A 
ATOM      6  N   UNL     1       4.546   4.048  16.424  0.00  0.00    +0.000 NA
ATOM      7  C   UNL     1       5.635   4.089  15.633  0.00  0.00    +0.000 A 
ATOM      8  N   UNL     1       6.657   4.953  15.723  0.00  0.00    +0.000 NA
ATOM      9  H   UNL     1       8.381   6.414  16.171  0.00  0.00    +0.000 HD
BRANCH   5  10
ATOM     10  C   UNL     1       3.294   5.020  18.297  0.00  0.00    +0.000 C 
BRANCH  10  11
ATOM     11  O   UNL     1       3.610   4.278  19.476  0.00  0.00    +0.000 OA
ATOM     12  C   UNL     1       2.854   3.083  19.558  0.00  0.00    +0.000 C 
ENDBRANCH  10  11
ENDBRANCH   5  10
ENDBRANCH   1   2
BRANCH   1  13
ATOM     13  C   UNL     1       8.021   8.978  17.754  0.00  0.00    +0.000 C 
BRANCH  13  14
ATOM     14  S   UNL     1       9.097   9.848  18.984  0.00  0.00    +0.000 S 
BRANCH  14  20
ATOM     15  N   UNL     1      10.558  12.038  18.113  0.00  0.00    +0.000 N 
ATOM     16  C   UNL     1      10.264  13.250  17.516  0.00  0.00    +0.000 A 
ATOM     17  C   UNL     1      11.234  14.313  17.146  0.00  0.00    +0.000 C 
ATOM     18  N   UNL     1       8.967  13.313  17.299  0.00  0.00    +0.000 NA
ATOM     19  N   UNL     1       8.391  12.154  17.761  0.00  0.00    +0.000 NA
ATOM     20  C   UNL     1       9.348  11.393  18.244  0.00  0.00    +0.000 A 
BRANCH  15  22
ATOM     21  C   UNL     1      12.331  11.968  19.848  0.00  0.00    +0.000 C 
ATOM     22  C   UNL     1      11.893  11.583  18.445  0.00  0.00    +0.000 C 
ENDBRANCH  15  22
ENDBRANCH  14  20
ENDBRANCH  13  14
ENDBRANCH   1  13
TORSDOF 7
ENDMDL
MODEL 4
REMARK VINA RESULT:      -6.0      6.276      8.667
REMARK  Name = 
REMARK  10 active torsions:
REMARK  status: ('A' for Active; 'I' for Inactive)
REMARK    1  A    between atoms: C_1  and  C_2
REMARK    2  A    between atoms: C_2  and  N_3
REMARK    3  A    between atoms: C_4  and  C_5
REMARK    4  A    between atoms: C_8  and  S_9
REMARK    5  A    between atoms: S_9  and  C_10
REMARK    6  A    between atoms: C_10  and  C_11
REMARK    7  A    between atoms: C_11  and  N_12
REMARK    8  A    between atoms: C_15  and  C_16
REMARK    9  A    between atoms: C_16  and  O_17
REMARK   10  A    between atoms: O_17  and  C_18
REMARK                            x       y       z     vdW  Elec       q    Type
REMARK                         _______ _______ _______ _____ _____    ______ ____
ROOT
ATOM      1  C   UNL     1       7.921   7.939  18.044  0.00  0.00    +0.000 C 
ENDROOT
BRANCH   1   2
ATOM      2  N   UNL     1       7.782   7.278  16.754  0.00  0.00    +0.000 N 
ATOM      3  C   UNL     1       6.934   6.195  16.616  0.00  0.00    +0.000 A 
ATOM      4  C   UNL     1       5.814   6.011  17.400  0.00  0.00    +0.000 A 
ATOM      5  C   UNL     1       5.041   4.902  17.147  0.00  0.00    +0.000 A 
ATOM      6  N   UNL     1       5.331   4.019  16.168  0.00  0.00    +0.000 NA
ATOM      7  C   UNL     1       6.424   4.315  15.439  0.00  0.00    +0.000 A 
ATOM      8  N   UNL     1       7.250   5.355  15.623  0.00  0.00    +0.000 NA
ATOM      9  H   UNL     1       8.631   7.097  16.229  0.00  0.00    +0.000 HD
BRANCH   5  10
ATOM     10  C   UNL     1       3.832   4.622  18.015  0.00  0.00    +0.000 C 
BRANCH  10  11
ATOM     11  O   UNL     1       4.262   4.303  19.340  0.00  0.00    +0.000 OA
ATOM     12  C   UNL     1       4.412   2.906  19.518  0.00  0.00    +0.000 C 
ENDBRANCH  10  11
ENDBRANCH   5  10
ENDBRANCH   1   2
BRANCH   1  13
ATOM     13  C   UNL     1       8.265   9.420  17.864  0.00  0.00    +0.000 C 
BRANCH  13  14
ATOM     14  S   UNL     1       9.261  10.129  19.253  0.00  0.00    +0.000 S 
BRANCH  14  20
ATOM     15  N   UNL     1       9.606  12.872  19.043  0.00  0.00    +0.000 N 
ATOM     16  C   UNL     1      10.248  13.725  18.164  0.00  0.00    +0.000 A 
ATOM     17  C   UNL     1      10.284  15.208  18.238  0.00  0.00    +0.000 C 
ATOM     18  N   UNL     1      10.856  13.006  17.244  0.00  0.00    +0.000 NA
ATOM     19  N   UNL     1      10.612  11.678  17.497  0.00  0.00    +0.000 NA
ATOM     20  C   UNL     1       9.865  11.603  18.576  0.00  0.00    +0.000 A 
BRANCH  15  22
ATOM     21  C   UNL     1       9.741  13.336  21.478  0.00  0.00    +0.000 C 
ATOM     22  C   UNL     1       8.882  13.296  20.225  0.00  0.00    +0.000 C 
ENDBRANCH  15  22
ENDBRANCH  14  20
ENDBRANCH  13  14
ENDBRANCH   1  13
TORSDOF 7
ENDMDL
MODEL 5
REMARK VINA RESULT:      -6.0      2.632      4.047
REMARK  Name = 
REMARK  10 active torsions:
REMARK  status: ('A' for Active; 'I' for Inactive)
REMARK    1  A    between atoms: C_1  and  C_2
REMARK    2  A    between atoms: C_2  and  N_3
REMARK    3  A    between atoms: C_4  and  C_5
REMARK    4  A    between atoms: C_8  and  S_9
REMARK    5  A    between atoms: S_9  and  C_10
REMARK    6  A    between atoms: C_10  and  C_11
REMARK    7  A    between atoms: C_11  and  N_12
REMARK    8  A    between atoms: C_15  and  C_16
REMARK    9  A    between atoms: C_16  and  O_17
REMARK   10  A    between atoms: O_17  and  C_18
REMARK                            x       y       z     vdW  Elec       q    Type
REMARK                         _______ _______ _______ _____ _____    ______ ____
ROOT
ATOM      1  C   UNL     1       4.518   2.701  19.606  0.00  0.00    +0.000 C 
ENDROOT
BRANCH   1   2
ATOM      2  N   UNL     1       5.340   3.834  20.003  0.00  0.00    +0.000 N 
ATOM      3  C   UNL     1       5.916   4.646  19.043  0.00  0.00    +0.000 A 
ATOM      4  C   UNL     1       5.370   4.833  17.790  0.00  0.00    +0.000 A 
ATOM      5  C   UNL     1       6.031   5.684  16.934  0.00  0.00    +0.000 A 
ATOM      6  N   UNL     1       7.161   6.334  17.281  0.00  0.00    +0.000 NA
ATOM      7  C   UNL     1       7.585   6.109  18.539  0.00  0.00    +0.000 A 
ATOM      8  N   UNL     1       7.025   5.284  19.436  0.00  0.00    +0.000 NA
ATOM      9  H   UNL     1       6.011   3.685  20.749  0.00  0.00    +0.000 HD
BRANCH   5  10
ATOM     10  C   UNL     1       5.505   5.881  15.527  0.00  0.00    +0.000 C 
BRANCH  10  11
ATOM     11  O   UNL     1       6.506   5.488  14.586  0.00  0.00    +0.000 OA
ATOM     12  C   UNL     1       6.449   4.099  14.313  0.00  0.00    +0.000 C 
ENDBRANCH  10  11
ENDBRANCH   5  10
ENDBRANCH   1   2
BRANCH   1  13
ATOM     13  C   UNL     1       3.595   2.270  20.749  0.00  0.00    +0.000 C 
BRANCH  13  14
ATOM     14  S   UNL     1       1.864   2.904  20.589  0.00  0.00    +0.000 S 
BRANCH  14  20
ATOM     15  N   UNL     1       1.943   5.020  18.798  0.00  0.00    +0.000 N 
ATOM     16  C   UNL     1       2.293   6.356  18.859  0.00  0.00    +0.000 A 
ATOM     17  C   UNL     1       2.277   7.326  17.735  0.00  0.00    +0.000 C 
ATOM     18  N   UNL     1       2.629   6.650  20.098  0.00  0.00    +0.000 NA
ATOM     19  N   UNL     1       2.517   5.513  20.861  0.00  0.00    +0.000 NA
ATOM     20  C   UNL     1       2.104   4.541  20.080  0.00  0.00    +0.000 A 
BRANCH  15  22
ATOM     21  C   UNL     1       2.452   3.362  17.023  0.00  0.00    +0.000 C 
ATOM     22  C   UNL     1       1.455   4.347  17.611  0.00  0.00    +0.000 C 
ENDBRANCH  15  22
ENDBRANCH  14  20
ENDBRANCH  13  14
ENDBRANCH   1  13
TORSDOF 7
ENDMDL
MODEL 6
REMARK VINA RESULT:      -5.9      4.527      8.051
REMARK  Name = 
REMARK  10 active torsions:
REMARK  status: ('A' for Active; 'I' for Inactive)
REMARK    1  A    between atoms: C_1  and  C_2
REMARK    2  A    between atoms: C_2  and  N_3
REMARK    3  A    between atoms: C_4  and  C_5
REMARK    4  A    between atoms: C_8  and  S_9
REMARK    5  A    between atoms: S_9  and  C_10
REMARK    6  A    between atoms: C_10  and  C_11
REMARK    7  A    between atoms: C_11  and  N_12
REMARK    8  A    between atoms: C_15  and  C_16
REMARK    9  A    between atoms: C_16  and  O_17
REMARK   10  A    between atoms: O_17  and  C_18
REMARK                            x       y       z     vdW  Elec       q    Type
REMARK                         _______ _______ _______ _____ _____    ______ ____
ROOT
ATOM      1  C   UNL     1       2.466   5.491  19.818  0.00  0.00    +0.000 C 
ENDROOT
BRANCH   1   2
ATOM      2  N   UNL     1       2.805   6.639  18.990  0.00  0.00    +0.000 N 
ATOM      3  C   UNL     1       2.095   7.819  19.114  0.00  0.00    +0.000 A 
ATOM      4  C   UNL     1       1.477   8.207  20.284  0.00  0.00    +0.000 A 
ATOM      5  C   UNL     1       0.820   9.415  20.281  0.00  0.00    +0.000 A 
ATOM      6  N   UNL     1       0.776  10.219  19.198  0.00  0.00    +0.000 NA
ATOM      7  C   UNL     1       1.444   9.761  18.122  0.00  0.00    +0.000 A 
ATOM      8  N   UNL     1       2.092   8.592  18.021  0.00  0.00    +0.000 NA
ATOM      9  H   UNL     1       2.985   6.468  18.006  0.00  0.00    +0.000 HD
BRANCH   5  10
ATOM     10  C   UNL     1       0.077   9.862  21.523  0.00  0.00    +0.000 C 
BRANCH  10  11
ATOM     11  O   UNL     1       0.622  11.100  21.984  0.00  0.00    +0.000 OA
ATOM     12  C   UNL     1      -0.359  12.121  22.020  0.00  0.00    +0.000 C 
ENDBRANCH  10  11
ENDBRANCH   5  10
ENDBRANCH   1   2
BRANCH   1  13
ATOM     13  C   UNL     1       2.209   4.253  18.954  0.00  0.00    +0.000 C 
BRANCH  13  14
ATOM     14  S   UNL     1       3.673   3.131  18.805  0.00  0.00    +0.000 S 
BRANCH  14  20
ATOM     15  N   UNL     1       5.486   4.995  17.842  0.00  0.00    +0.000 N 
ATOM     16  C   UNL     1       6.578   5.670  18.355  0.00  0.00    +0.000 A 
ATOM     17  C   UNL     1       7.442   6.637  17.629  0.00  0.00    +0.000 C 
ATOM     18  N   UNL     1       6.728   5.336  19.619  0.00  0.00    +0.000 NA
ATOM     19  N   UNL     1       5.749   4.431  19.950  0.00  0.00    +0.000 NA
ATOM     20  C   UNL     1       5.006   4.233  18.884  0.00  0.00    +0.000 A 
BRANCH  15  22
ATOM     21  C   UNL     1       5.508   4.124  15.518  0.00  0.00    +0.000 C 
ATOM     22  C   UNL     1       4.973   5.157  16.497  0.00  0.00    +0.000 C 
ENDBRANCH  15  22
ENDBRANCH  14  20
ENDBRANCH  13  14
ENDBRANCH   1  13
TORSDOF 7
ENDMDL
MODEL 7
REMARK VINA RESULT:      -5.9      5.241      8.249
REMARK  Name = 
REMARK  10 active torsions:
REMARK  status: ('A' for Active; 'I' for Inactive)
REMARK    1  A    between atoms: C_1  and  C_2
REMARK    2  A    between atoms: C_2  and  N_3
REMARK    3  A    between atoms: C_4  and  C_5
REMARK    4  A    between atoms: C_8  and  S_9
REMARK    5  A    between atoms: S_9  and  C_10
REMARK    6  A    between atoms: C_10  and  C_11
REMARK    7  A    between atoms: C_11  and  N_12
REMARK    8  A    between atoms: C_15  and  C_16
REMARK    9  A    between atoms: C_16  and  O_17
REMARK   10  A    between atoms: O_17  and  C_18
REMARK                            x       y       z     vdW  Elec       q    Type
REMARK                         _______ _______ _______ _____ _____    ______ ____
ROOT
ATOM      1  C   UNL     1       1.838   8.971  17.755  0.00  0.00    +0.000 C 
ENDROOT
BRANCH   1   2
ATOM      2  N   UNL     1       1.215   9.338  19.019  0.00  0.00    +0.000 N 
ATOM      3  C   UNL     1       0.087  10.137  19.031  0.00  0.00    +0.000 A 
ATOM      4  C   UNL     1      -0.820  10.176  17.992  0.00  0.00    +0.000 A 
ATOM      5  C   UNL     1      -1.913  10.998  18.138  0.00  0.00    +0.000 A 
ATOM      6  N   UNL     1      -2.126  11.737  19.247  0.00  0.00    +0.000 NA
ATOM      7  C   UNL     1      -1.200  11.594  20.214  0.00  0.00    +0.000 A 
ATOM      8  N   UNL     1      -0.094  10.839  20.156  0.00  0.00    +0.000 NA
ATOM      9  H   UNL     1       1.828   9.626  19.774  0.00  0.00    +0.000 HD
BRANCH   5  10
ATOM     10  C   UNL     1      -2.909  11.121  17.004  0.00  0.00    +0.000 C 
BRANCH  10  11
ATOM     11  O   UNL     1      -2.971   9.885  16.289  0.00  0.00    +0.000 OA
ATOM     12  C   UNL     1      -3.011  10.095  14.888  0.00  0.00    +0.000 C 
ENDBRANCH  10  11
ENDBRANCH   5  10
ENDBRANCH   1   2
BRANCH   1  13
ATOM     13  C   UNL     1       2.962   7.955  17.976  0.00  0.00    +0.000 C 
BRANCH  13  14
ATOM     14  S   UNL     1       2.597   6.717  19.303  0.00  0.00    +0.000 S 
BRANCH  14  20
ATOM     15  N   UNL     1       2.937   3.970  19.131  0.00  0.00    +0.000 N 
ATOM     16  C   UNL     1       3.448   3.093  18.193  0.00  0.00    +0.000 A 
ATOM     17  C   UNL     1       3.554   1.617  18.327  0.00  0.00    +0.000 C 
ATOM     18  N   UNL     1       3.815   3.776  17.129  0.00  0.00    +0.000 NA
ATOM     19  N   UNL     1       3.564   5.107  17.358  0.00  0.00    +0.000 NA
ATOM     20  C   UNL     1       3.036   5.218  18.556  0.00  0.00    +0.000 A 
BRANCH  15  22
ATOM     21  C   UNL     1       0.866   3.395  20.372  0.00  0.00    +0.000 C 
ATOM     22  C   UNL     1       2.374   3.579  20.408  0.00  0.00    +0.000 C 
ENDBRANCH  15  22
ENDBRANCH  14  20
ENDBRANCH  13  14
ENDBRANCH   1  13
TORSDOF 7
ENDMDL
MODEL 8
REMARK VINA RESULT:      -5.9      4.162      8.124
REMARK  Name = 
REMARK  10 active torsions:
REMARK  status: ('A' for Active; 'I' for Inactive)
REMARK    1  A    between atoms: C_1  and  C_2
REMARK    2  A    between atoms: C_2  and  N_3
REMARK    3  A    between atoms: C_4  and  C_5
REMARK    4  A    between atoms: C_8  and  S_9
REMARK    5  A    between atoms: S_9  and  C_10
REMARK    6  A    between atoms: C_10  and  C_11
REMARK    7  A    between atoms: C_11  and  N_12
REMARK    8  A    between atoms: C_15  and  C_16
REMARK    9  A    between atoms: C_16  and  O_17
REMARK   10  A    between atoms: O_17  and  C_18
REMARK                            x       y       z     vdW  Elec       q    Type
REMARK                         _______ _______ _______ _____ _____    ______ ____
ROOT
ATOM      1  C   UNL     1       2.887   6.218  19.708  0.00  0.00    +0.000 C 
ENDROOT
BRANCH   1   2
ATOM      2  N   UNL     1       2.060   6.682  20.812  0.00  0.00    +0.000 N 
ATOM      3  C   UNL     1       1.519   7.955  20.788  0.00  0.00    +0.000 A 
ATOM      4  C   UNL     1       1.222   8.625  19.619  0.00  0.00    +0.000 A 
ATOM      5  C   UNL     1       0.667   9.878  19.733  0.00  0.00    +0.000 A 
ATOM      6  N   UNL     1       0.398  10.450  20.925  0.00  0.00    +0.000 NA
ATOM      7  C   UNL     1       0.692   9.694  22.000  0.00  0.00    +0.000 A 
ATOM      8  N   UNL     1       1.253   8.477  21.991  0.00  0.00    +0.000 NA
ATOM      9  H   UNL     1       2.383   6.483  21.752  0.00  0.00    +0.000 HD
BRANCH   5  10
ATOM     10  C   UNL     1       0.374  10.680  18.482  0.00  0.00    +0.000 C 
BRANCH  10  11
ATOM     11  O   UNL     1      -0.648  10.026  17.727  0.00  0.00    +0.000 OA
ATOM     12  C   UNL     1      -1.941  10.380  18.184  0.00  0.00    +0.000 C 
ENDBRANCH  10  11
ENDBRANCH   5  10
ENDBRANCH   1   2
BRANCH   1  13
ATOM     13  C   UNL     1       2.203   5.069  18.961  0.00  0.00    +0.000 C 
BRANCH  13  14
ATOM     14  S   UNL     1       3.379   3.968  18.050  0.00  0.00    +0.000 S 
BRANCH  14  20
ATOM     15  N   UNL     1       5.535   5.691  17.776  0.00  0.00    +0.000 N 
ATOM     16  C   UNL     1       6.757   5.854  18.402  0.00  0.00    +0.000 A 
ATOM     17  C   UNL     1       7.796   6.861  18.065  0.00  0.00    +0.000 C 
ATOM     18  N   UNL     1       6.855   4.976  19.378  0.00  0.00    +0.000 NA
ATOM     19  N   UNL     1       5.709   4.218  19.399  0.00  0.00    +0.000 NA
ATOM     20  C   UNL     1       4.921   4.652  18.441  0.00  0.00    +0.000 A 
BRANCH  15  22
ATOM     21  C   UNL     1       5.346   5.956  15.316  0.00  0.00    +0.000 C 
ATOM     22  C   UNL     1       5.044   6.520  16.695  0.00  0.00    +0.000 C 
ENDBRANCH  15  22
ENDBRANCH  14  20
ENDBRANCH  13  14
ENDBRANCH   1  13
TORSDOF 7
ENDMDL
MODEL 9
REMARK VINA RESULT:      -5.9      6.622      8.810
REMARK  Name = 
REMARK  10 active torsions:
REMARK  status: ('A' for Active; 'I' for Inactive)
REMARK    1  A    between atoms: C_1  and  C_2
REMARK    2  A    between atoms: C_2  and  N_3
REMARK    3  A    between atoms: C_4  and  C_5
REMARK    4  A    between atoms: C_8  and  S_9
REMARK    5  A    between atoms: S_9  and  C_10
REMARK    6  A    between atoms: C_10  and  C_11
REMARK    7  A    between atoms: C_11  and  N_12
REMARK    8  A    between atoms: C_15  and  C_16
REMARK    9  A    between atoms: C_16  and  O_17
REMARK   10  A    between atoms: O_17  and  C_18
REMARK                            x       y       z     vdW  Elec       q    Type
REMARK                         _______ _______ _______ _____ _____    ______ ____
ROOT
ATOM      1  C   UNL     1       8.186   8.449  18.327  0.00  0.00    +0.000 C 
ENDROOT
BRANCH   1   2
ATOM      2  N   UNL     1       7.859   7.820  17.056  0.00  0.00    +0.000 N 
ATOM      3  C   UNL     1       7.152   6.631  17.030  0.00  0.00    +0.000 A 
ATOM      4  C   UNL     1       6.266   6.261  18.020  0.00  0.00    +0.000 A 
ATOM      5  C   UNL     1       5.611   5.061  17.865  0.00  0.00    +0.000 A 
ATOM      6  N   UNL     1       5.796   4.263  16.792  0.00  0.00    +0.000 NA
ATOM      7  C   UNL     1       6.654   4.738  15.869  0.00  0.00    +0.000 A 
ATOM      8  N   UNL     1       7.354   5.879  15.941  0.00  0.00    +0.000 NA
ATOM      9  H   UNL     1       8.589   7.781  16.353  0.00  0.00    +0.000 HD
BRANCH   5  10
ATOM     10  C   UNL     1       4.669   4.581  18.949  0.00  0.00    +0.000 C 
BRANCH  10  11
ATOM     11  O   UNL     1       5.204   3.403  19.556  0.00  0.00    +0.000 OA
ATOM     12  C   UNL     1       4.208   2.411  19.736  0.00  0.00    +0.000 C 
ENDBRANCH  10  11
ENDBRANCH   5  10
ENDBRANCH   1   2
BRANCH   1  13
ATOM     13  C   UNL     1       8.525   9.930  18.130  0.00  0.00    +0.000 C 
BRANCH  13  14
ATOM     14  S   UNL     1       9.591  10.634  19.470  0.00  0.00    +0.000 S 
BRANCH  14  20
ATOM     15  N   UNL     1       9.775  13.163  18.346  0.00  0.00    +0.000 N 
ATOM     16  C   UNL     1       9.331  14.429  18.680  0.00  0.00    +0.000 A 
ATOM     17  C   UNL     1       9.573  15.680  17.918  0.00  0.00    +0.000 C 
ATOM     18  N   UNL     1       8.625  14.352  19.789  0.00  0.00    +0.000 NA
ATOM     19  N   UNL     1       8.608  13.043  20.205  0.00  0.00    +0.000 NA
ATOM     20  C   UNL     1       9.295  12.335  19.337  0.00  0.00    +0.000 A 
BRANCH  15  22
ATOM     21  C   UNL     1      12.036  12.918  17.351  0.00  0.00    +0.000 C 
ATOM     22  C   UNL     1      10.531  12.841  17.153  0.00  0.00    +0.000 C 
ENDBRANCH  15  22
ENDBRANCH  14  20
ENDBRANCH  13  14
ENDBRANCH   1  13
TORSDOF 7
ENDMDL
