MODEL 1
REMARK VINA RESULT:      -7.5      0.000      0.000
REMARK  Name = 
REMARK  8 active torsions:
REMARK  status: ('A' for Active; 'I' for Inactive)
REMARK    1  A    between atoms: C_1  and  C_2
REMARK    2  A    between atoms: C_2  and  C_3
REMARK    3  A    between atoms: C_2  and  C_4
REMARK    4  A    between atoms: C_4  and  C_5
REMARK    5  A    between atoms: C_5  and  N_6
REMARK    6  A    between atoms: C_7  and  C_9
REMARK    7  A    between atoms: C_12  and  C_13
REMARK    8  A    between atoms: C_13  and  C_14
REMARK                            x       y       z     vdW  Elec       q    Type
REMARK                         _______ _______ _______ _____ _____    ______ ____
ROOT
ATOM      1  C   UNL     1       6.458   4.465  16.129  0.00  0.00    +0.000 A 
ATOM      2  N   UNL     1       7.276   4.566  17.160  0.00  0.00    +0.000 NA
ATOM      3  N   UNL     1       6.495   4.420  18.291  0.00  0.00    +0.000 NA
ATOM      4  C   UNL     1       5.259   4.238  17.872  0.00  0.00    +0.000 A 
ATOM      5  O   UNL     1       5.153   4.260  16.507  0.00  0.00    +0.000 OA
ENDROOT
BRANCH   1   7
ATOM      6  N   UNL     1       6.205   3.534  13.933  0.00  0.00    +0.000 N 
ATOM      7  C   UNL     1       6.820   4.494  14.724  0.00  0.00    +0.000 C 
ATOM      8  O   UNL     1       7.596   5.320  14.241  0.00  0.00    +0.000 OA
ATOM      9  H   UNL     1       5.572   2.880  14.383  0.00  0.00    +0.000 HD
BRANCH   6  10
ATOM     10  C   UNL     1       6.413   3.462  12.500  0.00  0.00    +0.000 C 
BRANCH  10  11
ATOM     11  C   UNL     1       5.514   2.429  11.812  0.00  0.00    +0.000 C 
BRANCH  11  13
ATOM     12  C   UNL     1       7.736   1.806  10.731  0.00  0.00    +0.000 C 
ATOM     13  C   UNL     1       6.254   1.456  10.873  0.00  0.00    +0.000 C 
ATOM     14  C   UNL     1       6.121   0.016  11.380  0.00  0.00    +0.000 C 
ENDBRANCH  11  13
ENDBRANCH  10  11
ENDBRANCH   6  10
ENDBRANCH   1   7
BRANCH   4  15
ATOM     15  C   UNL     1       4.031   3.912  18.648  0.00  0.00    +0.000 C 
BRANCH  15  16
ATOM     16  C   UNL     1       3.259   5.124  19.119  0.00  0.00    +0.000 A 
ATOM     17  C   UNL     1       3.299   6.325  18.394  0.00  0.00    +0.000 A 
ATOM     18  C   UNL     1       2.594   7.448  18.839  0.00  0.00    +0.000 A 
ATOM     19  C   UNL     1       1.846   7.377  20.012  0.00  0.00    +0.000 A 
ATOM     20 CL   UNL     1       0.998   8.765  20.573  0.00  0.00    +0.000 Cl
ATOM     21  C   UNL     1       1.787   6.189  20.738  0.00  0.00    +0.000 A 
ATOM     22  C   UNL     1       2.493   5.067  20.295  0.00  0.00    +0.000 A 
ENDBRANCH  15  16
ENDBRANCH   4  15
TORSDOF 6
ENDMDL
MODEL 2
REMARK VINA RESULT:      -7.4      2.002      2.639
REMARK  Name = 
REMARK  8 active torsions:
REMARK  status: ('A' for Active; 'I' for Inactive)
REMARK    1  A    between atoms: C_1  and  C_2
REMARK    2  A    between atoms: C_2  and  C_3
REMARK    3  A    between atoms: C_2  and  C_4
REMARK    4  A    between atoms: C_4  and  C_5
REMARK    5  A    between atoms: C_5  and  N_6
REMARK    6  A    between atoms: C_7  and  C_9
REMARK    7  A    between atoms: C_12  and  C_13
REMARK    8  A    between atoms: C_13  and  C_14
REMARK                            x       y       z     vdW  Elec       q    Type
REMARK                         _______ _______ _______ _____ _____    ______ ____
ROOT
ATOM      1  C   UNL     1       7.095   4.783  16.300  0.00  0.00    +0.000 A 
ATOM      2  N   UNL     1       8.138   4.390  17.007  0.00  0.00    +0.000 NA
ATOM      3  N   UNL     1       7.772   4.506  18.336  0.00  0.00    +0.000 NA
ATOM      4  C   UNL     1       6.533   4.958  18.345  0.00  0.00    +0.000 A 
ATOM      5  O   UNL     1       6.035   5.165  17.086  0.00  0.00    +0.000 OA
ENDROOT
BRANCH   1   7
ATOM      6  N   UNL     1       5.897   4.074  14.346  0.00  0.00    +0.000 N 
ATOM      7  C   UNL     1       6.975   4.786  14.853  0.00  0.00    +0.000 C 
ATOM      8  O   UNL     1       7.748   5.391  14.110  0.00  0.00    +0.000 OA
ATOM      9  H   UNL     1       5.290   3.596  15.005  0.00  0.00    +0.000 HD
BRANCH   6  10
ATOM     10  C   UNL     1       5.601   4.023  12.929  0.00  0.00    +0.000 C 
BRANCH  10  11
ATOM     11  C   UNL     1       6.468   3.013  12.168  0.00  0.00    +0.000 C 
BRANCH  11  13
ATOM     12  C   UNL     1       5.915   0.740  11.155  0.00  0.00    +0.000 C 
ATOM     13  C   UNL     1       5.736   2.256  11.043  0.00  0.00    +0.000 C 
ATOM     14  C   UNL     1       4.241   2.590  11.055  0.00  0.00    +0.000 C 
ENDBRANCH  11  13
ENDBRANCH  10  11
ENDBRANCH   6  10
ENDBRANCH   1   7
BRANCH   4  15
ATOM     15  C   UNL     1       5.603   5.157  19.490  0.00  0.00    +0.000 C 
BRANCH  15  16
ATOM     16  C   UNL     1       4.294   4.410  19.360  0.00  0.00    +0.000 A 
ATOM     17  C   UNL     1       4.262   3.007  19.412  0.00  0.00    +0.000 A 
ATOM     18  C   UNL     1       3.052   2.320  19.278  0.00  0.00    +0.000 A 
ATOM     19  C   UNL     1       1.868   3.029  19.092  0.00  0.00    +0.000 A 
ATOM     20 CL   UNL     1       0.383   2.181  18.904  0.00  0.00    +0.000 Cl
ATOM     21  C   UNL     1       1.881   4.421  19.050  0.00  0.00    +0.000 A 
ATOM     22  C   UNL     1       3.090   5.110  19.181  0.00  0.00    +0.000 A 
ENDBRANCH  15  16
ENDBRANCH   4  15
TORSDOF 6
ENDMDL
MODEL 3
REMARK VINA RESULT:      -7.3      1.471      2.367
REMARK  Name = 
REMARK  8 active torsions:
REMARK  status: ('A' for Active; 'I' for Inactive)
REMARK    1  A    between atoms: C_1  and  C_2
REMARK    2  A    between atoms: C_2  and  C_3
REMARK    3  A    between atoms: C_2  and  C_4
REMARK    4  A    between atoms: C_4  and  C_5
REMARK    5  A    between atoms: C_5  and  N_6
REMARK    6  A    between atoms: C_7  and  C_9
REMARK    7  A    between atoms: C_12  and  C_13
REMARK    8  A    between atoms: C_13  and  C_14
REMARK                            x       y       z     vdW  Elec       q    Type
REMARK                         _______ _______ _______ _____ _____    ______ ____
ROOT
ATOM      1  C   UNL     1       6.029   5.019  17.718  0.00  0.00    +0.000 A 
ATOM      2  N   UNL     1       6.566   5.114  18.920  0.00  0.00    +0.000 NA
ATOM      3  N   UNL     1       5.521   5.355  19.794  0.00  0.00    +0.000 NA
ATOM      4  C   UNL     1       4.423   5.386  19.065  0.00  0.00    +0.000 A 
ATOM      5  O   UNL     1       4.666   5.187  17.732  0.00  0.00    +0.000 OA
ENDROOT
BRANCH   1   7
ATOM      6  N   UNL     1       5.947   4.814  15.329  0.00  0.00    +0.000 N 
ATOM      7  C   UNL     1       6.719   4.713  16.478  0.00  0.00    +0.000 C 
ATOM      8  O   UNL     1       7.911   4.408  16.424  0.00  0.00    +0.000 OA
ATOM      9  H   UNL     1       4.971   5.072  15.433  0.00  0.00    +0.000 HD
BRANCH   6  10
ATOM     10  C   UNL     1       6.497   4.597  14.006  0.00  0.00    +0.000 C 
BRANCH  10  11
ATOM     11  C   UNL     1       6.167   3.213  13.435  0.00  0.00    +0.000 C 
BRANCH  11  13
ATOM     12  C   UNL     1       6.438   1.898  11.269  0.00  0.00    +0.000 C 
ATOM     13  C   UNL     1       5.923   3.186  11.914  0.00  0.00    +0.000 C 
ATOM     14  C   UNL     1       4.430   3.343  11.608  0.00  0.00    +0.000 C 
ENDBRANCH  11  13
ENDBRANCH  10  11
ENDBRANCH   6  10
ENDBRANCH   1   7
BRANCH   4  15
ATOM     15  C   UNL     1       3.002   5.493  19.493  0.00  0.00    +0.000 C 
BRANCH  15  16
ATOM     16  C   UNL     1       2.411   6.876  19.337  0.00  0.00    +0.000 A 
ATOM     17  C   UNL     1       1.813   7.526  20.429  0.00  0.00    +0.000 A 
ATOM     18  C   UNL     1       1.256   8.800  20.279  0.00  0.00    +0.000 A 
ATOM     19  C   UNL     1       1.293   9.431  19.038  0.00  0.00    +0.000 A 
ATOM     20 CL   UNL     1       0.587  10.988  18.847  0.00  0.00    +0.000 Cl
ATOM     21  C   UNL     1       1.893   8.805  17.948  0.00  0.00    +0.000 A 
ATOM     22  C   UNL     1       2.447   7.531  18.096  0.00  0.00    +0.000 A 
ENDBRANCH  15  16
ENDBRANCH   4  15
TORSDOF 6
ENDMDL
MODEL 4
REMARK VINA RESULT:      -7.2      4.687      7.073
REMARK  Name = 
REMARK  8 active torsions:
REMARK  status: ('A' for Active; 'I' for Inactive)
REMARK    1  A    between atoms: C_1  and  C_2
REMARK    2  A    between atoms: C_2  and  C_3
REMARK    3  A    between atoms: C_2  and  C_4
REMARK    4  A    between atoms: C_4  and  C_5
REMARK    5  A    between atoms: C_5  and  N_6
REMARK    6  A    between atoms: C_7  and  C_9
REMARK    7  A    between atoms: C_12  and  C_13
REMARK    8  A    between atoms: C_13  and  C_14
REMARK                            x       y       z     vdW  Elec       q    Type
REMARK                         _______ _______ _______ _____ _____    ______ ____
ROOT
ATOM      1  C   UNL     1       6.723   6.702  17.241  0.00  0.00    +0.000 A 
ATOM      2  N   UNL     1       6.008   7.307  16.311  0.00  0.00    +0.000 NA
ATOM      3  N   UNL     1       5.143   6.355  15.805  0.00  0.00    +0.000 NA
ATOM      4  C   UNL     1       5.388   5.239  16.463  0.00  0.00    +0.000 A 
ATOM      5  O   UNL     1       6.386   5.378  17.390  0.00  0.00    +0.000 OA
ENDROOT
BRANCH   1   7
ATOM      6  N   UNL     1       7.941   8.661  17.897  0.00  0.00    +0.000 N 
ATOM      7  C   UNL     1       7.728   7.305  18.097  0.00  0.00    +0.000 C 
ATOM      8  O   UNL     1       8.342   6.681  18.964  0.00  0.00    +0.000 OA
ATOM      9  H   UNL     1       7.405   9.125  17.171  0.00  0.00    +0.000 HD
BRANCH   6  10
ATOM     10  C   UNL     1       8.868   9.426  18.707  0.00  0.00    +0.000 C 
BRANCH  10  11
ATOM     11  C   UNL     1       9.149  10.824  18.143  0.00  0.00    +0.000 C 
BRANCH  11  13
ATOM     12  C   UNL     1      10.966  11.622  19.742  0.00  0.00    +0.000 C 
ATOM     13  C   UNL     1       9.559  11.872  19.195  0.00  0.00    +0.000 C 
ATOM     14  C   UNL     1       9.491  13.283  18.603  0.00  0.00    +0.000 C 
ENDBRANCH  11  13
ENDBRANCH  10  11
ENDBRANCH   6  10
ENDBRANCH   1   7
BRANCH   4  15
ATOM     15  C   UNL     1       4.677   3.932  16.414  0.00  0.00    +0.000 C 
BRANCH  15  16
ATOM     16  C   UNL     1       3.769   3.677  17.596  0.00  0.00    +0.000 A 
ATOM     17  C   UNL     1       2.479   4.230  17.640  0.00  0.00    +0.000 A 
ATOM     18  C   UNL     1       1.647   4.003  18.741  0.00  0.00    +0.000 A 
ATOM     19  C   UNL     1       2.099   3.225  19.804  0.00  0.00    +0.000 A 
ATOM     20 CL   UNL     1       1.084   2.966  21.168  0.00  0.00    +0.000 Cl
ATOM     21  C   UNL     1       3.372   2.661  19.771  0.00  0.00    +0.000 A 
ATOM     22  C   UNL     1       4.206   2.888  18.673  0.00  0.00    +0.000 A 
ENDBRANCH  15  16
ENDBRANCH   4  15
TORSDOF 6
ENDMDL
MODEL 5
REMARK VINA RESULT:      -7.2      2.079      2.705
REMARK  Name = 
REMARK  8 active torsions:
REMARK  status: ('A' for Active; 'I' for Inactive)
REMARK    1  A    between atoms: C_1  and  C_2
REMARK    2  A    between atoms: C_2  and  C_3
REMARK    3  A    between atoms: C_2  and  C_4
REMARK    4  A    between atoms: C_4  and  C_5
REMARK    5  A    between atoms: C_5  and  N_6
REMARK    6  A    between atoms: C_7  and  C_9
REMARK    7  A    between atoms: C_12  and  C_13
REMARK    8  A    between atoms: C_13  and  C_14
REMARK                            x       y       z     vdW  Elec       q    Type
REMARK                         _______ _______ _______ _____ _____    ______ ____
ROOT
ATOM      1  C   UNL     1       5.920   5.747  15.965  0.00  0.00    +0.000 A 
ATOM      2  N   UNL     1       6.631   6.661  16.599  0.00  0.00    +0.000 NA
ATOM      3  N   UNL     1       5.735   7.396  17.352  0.00  0.00    +0.000 NA
ATOM      4  C   UNL     1       4.543   6.878  17.128  0.00  0.00    +0.000 A 
ATOM      5  O   UNL     1       4.579   5.828  16.250  0.00  0.00    +0.000 OA
ENDROOT
BRANCH   1   7
ATOM      6  N   UNL     1       7.087   5.141  13.958  0.00  0.00    +0.000 N 
ATOM      7  C   UNL     1       6.425   4.700  15.095  0.00  0.00    +0.000 C 
ATOM      8  O   UNL     1       6.307   3.499  15.342  0.00  0.00    +0.000 OA
ATOM      9  H   UNL     1       7.157   6.143  13.807  0.00  0.00    +0.000 HD
BRANCH   6  10
ATOM     10  C   UNL     1       7.700   4.227  13.016  0.00  0.00    +0.000 C 
BRANCH  10  11
ATOM     11  C   UNL     1       6.825   3.950  11.788  0.00  0.00    +0.000 C 
BRANCH  11  13
ATOM     12  C   UNL     1       4.400   3.225  11.489  0.00  0.00    +0.000 C 
ATOM     13  C   UNL     1       5.793   2.821  11.974  0.00  0.00    +0.000 C 
ATOM     14  C   UNL     1       6.240   1.558  11.231  0.00  0.00    +0.000 C 
ENDBRANCH  11  13
ENDBRANCH  10  11
ENDBRANCH   6  10
ENDBRANCH   1   7
BRANCH   4  15
ATOM     15  C   UNL     1       3.235   7.196  17.762  0.00  0.00    +0.000 C 
BRANCH  15  16
ATOM     16  C   UNL     1       2.667   6.075  18.604  0.00  0.00    +0.000 A 
ATOM     17  C   UNL     1       2.818   6.082  20.000  0.00  0.00    +0.000 A 
ATOM     18  C   UNL     1       2.303   5.037  20.775  0.00  0.00    +0.000 A 
ATOM     19  C   UNL     1       1.638   3.980  20.159  0.00  0.00    +0.000 A 
ATOM     20 CL   UNL     1       1.026   2.683  21.110  0.00  0.00    +0.000 Cl
ATOM     21  C   UNL     1       1.470   3.964  18.777  0.00  0.00    +0.000 A 
ATOM     22  C   UNL     1       1.986   5.006  18.001  0.00  0.00    +0.000 A 
ENDBRANCH  15  16
ENDBRANCH   4  15
TORSDOF 6
ENDMDL
MODEL 6
REMARK VINA RESULT:      -7.1      1.408      1.989
REMARK  Name = 
REMARK  8 active torsions:
REMARK  status: ('A' for Active; 'I' for Inactive)
REMARK    1  A    between atoms: C_1  and  C_2
REMARK    2  A    between atoms: C_2  and  C_3
REMARK    3  A    between atoms: C_2  and  C_4
REMARK    4  A    between atoms: C_4  and  C_5
REMARK    5  A    between atoms: C_5  and  N_6
REMARK    6  A    between atoms: C_7  and  C_9
REMARK    7  A    between atoms: C_12  and  C_13
REMARK    8  A    between atoms: C_13  and  C_14
REMARK                            x       y       z     vdW  Elec       q    Type
REMARK                         _______ _______ _______ _____ _____    ______ ____
ROOT
ATOM      1  C   UNL     1       6.064   5.034  17.496  0.00  0.00    +0.000 A 
ATOM      2  N   UNL     1       6.780   4.842  18.588  0.00  0.00    +0.000 NA
ATOM      3  N   UNL     1       5.912   4.992  19.653  0.00  0.00    +0.000 NA
ATOM      4  C   UNL     1       4.729   5.260  19.137  0.00  0.00    +0.000 A 
ATOM      5  O   UNL     1       4.746   5.311  17.769  0.00  0.00    +0.000 OA
ENDROOT
BRANCH   1   7
ATOM      6  N   UNL     1       5.856   3.987  15.348  0.00  0.00    +0.000 N 
ATOM      7  C   UNL     1       6.523   4.925  16.123  0.00  0.00    +0.000 C 
ATOM      8  O   UNL     1       7.422   5.623  15.652  0.00  0.00    +0.000 OA
ATOM      9  H   UNL     1       5.122   3.441  15.788  0.00  0.00    +0.000 HD
BRANCH   6  10
ATOM     10  C   UNL     1       6.153   3.792  13.943  0.00  0.00    +0.000 C 
BRANCH  10  11
ATOM     11  C   UNL     1       4.910   3.478  13.102  0.00  0.00    +0.000 C 
BRANCH  11  13
ATOM     12  C   UNL     1       5.895   1.867  11.391  0.00  0.00    +0.000 C 
ATOM     13  C   UNL     1       5.193   3.208  11.612  0.00  0.00    +0.000 C 
ATOM     14  C   UNL     1       3.891   3.236  10.805  0.00  0.00    +0.000 C 
ENDBRANCH  11  13
ENDBRANCH  10  11
ENDBRANCH   6  10
ENDBRANCH   1   7
BRANCH   4  15
ATOM     15  C   UNL     1       3.408   5.398  19.809  0.00  0.00    +0.000 C 
BRANCH  15  16
ATOM     16  C   UNL     1       2.688   6.691  19.497  0.00  0.00    +0.000 A 
ATOM     17  C   UNL     1       2.725   7.237  18.203  0.00  0.00    +0.000 A 
ATOM     18  C   UNL     1       2.069   8.439  17.921  0.00  0.00    +0.000 A 
ATOM     19  C   UNL     1       1.374   9.103  18.929  0.00  0.00    +0.000 A 
ATOM     20 CL   UNL     1       0.586  10.594  18.586  0.00  0.00    +0.000 Cl
ATOM     21  C   UNL     1       1.318   8.569  20.214  0.00  0.00    +0.000 A 
ATOM     22  C   UNL     1       1.975   7.369  20.498  0.00  0.00    +0.000 A 
ENDBRANCH  15  16
ENDBRANCH   4  15
TORSDOF 6
ENDMDL
MODEL 7
REMARK VINA RESULT:      -7.1      2.247      2.558
REMARK  Name = 
REMARK  8 active torsions:
REMARK  status: ('A' for Active; 'I' for Inactive)
REMARK    1  A    between atoms: C_1  and  C_2
REMARK    2  A    between atoms: C_2  and  C_3
REMARK    3  A    between atoms: C_2  and  C_4
REMARK    4  A    between atoms: C_4  and  C_5
REMARK    5  A    between atoms: C_5  and  N_6
REMARK    6  A    between atoms: C_7  and  C_9
REMARK    7  A    between atoms: C_12  and  C_13
REMARK    8  A    between atoms: C_13  and  C_14
REMARK                            x       y       z     vdW  Elec       q    Type
REMARK                         _______ _______ _______ _____ _____    ______ ____
ROOT
ATOM      1  C   UNL     1       6.862   5.360  15.696  0.00  0.00    +0.000 A 
ATOM      2  N   UNL     1       7.060   6.521  16.291  0.00  0.00    +0.000 NA
ATOM      3  N   UNL     1       6.666   6.355  17.606  0.00  0.00    +0.000 NA
ATOM      4  C   UNL     1       6.258   5.107  17.720  0.00  0.00    +0.000 A 
ATOM      5  O   UNL     1       6.346   4.410  16.545  0.00  0.00    +0.000 OA
ENDROOT
BRANCH   1   7
ATOM      6  N   UNL     1       6.354   4.071  13.737  0.00  0.00    +0.000 N 
ATOM      7  C   UNL     1       7.180   5.020  14.321  0.00  0.00    +0.000 C 
ATOM      8  O   UNL     1       8.099   5.545  13.689  0.00  0.00    +0.000 OA
ATOM      9  H   UNL     1       5.611   3.674  14.304  0.00  0.00    +0.000 HD
BRANCH   6  10
ATOM     10  C   UNL     1       6.501   3.662  12.355  0.00  0.00    +0.000 C 
BRANCH  10  11
ATOM     11  C   UNL     1       5.612   2.470  11.981  0.00  0.00    +0.000 C 
BRANCH  11  13
ATOM     12  C   UNL     1       7.714   1.770  10.721  0.00  0.00    +0.000 C 
ATOM     13  C   UNL     1       6.220   1.519  10.931  0.00  0.00    +0.000 C 
ATOM     14  C   UNL     1       6.006   0.059  11.342  0.00  0.00    +0.000 C 
ENDBRANCH  11  13
ENDBRANCH  10  11
ENDBRANCH   6  10
ENDBRANCH   1   7
BRANCH   4  15
ATOM     15  C   UNL     1       5.839   4.352  18.933  0.00  0.00    +0.000 C 
BRANCH  15  16
ATOM     16  C   UNL     1       4.433   3.799  18.861  0.00  0.00    +0.000 A 
ATOM     17  C   UNL     1       3.409   4.526  18.231  0.00  0.00    +0.000 A 
ATOM     18  C   UNL     1       2.107   4.019  18.178  0.00  0.00    +0.000 A 
ATOM     19  C   UNL     1       1.820   2.784  18.754  0.00  0.00    +0.000 A 
ATOM     20 CL   UNL     1       0.213   2.171  18.709  0.00  0.00    +0.000 Cl
ATOM     21  C   UNL     1       2.826   2.046  19.373  0.00  0.00    +0.000 A 
ATOM     22  C   UNL     1       4.127   2.552  19.429  0.00  0.00    +0.000 A 
ENDBRANCH  15  16
ENDBRANCH   4  15
TORSDOF 6
ENDMDL
MODEL 8
REMARK VINA RESULT:      -7.0      4.772      6.874
REMARK  Name = 
REMARK  8 active torsions:
REMARK  status: ('A' for Active; 'I' for Inactive)
REMARK    1  A    between atoms: C_1  and  C_2
REMARK    2  A    between atoms: C_2  and  C_3
REMARK    3  A    between atoms: C_2  and  C_4
REMARK    4  A    between atoms: C_4  and  C_5
REMARK    5  A    between atoms: C_5  and  N_6
REMARK    6  A    between atoms: C_7  and  C_9
REMARK    7  A    between atoms: C_12  and  C_13
REMARK    8  A    between atoms: C_13  and  C_14
REMARK                            x       y       z     vdW  Elec       q    Type
REMARK                         _______ _______ _______ _____ _____    ______ ____
ROOT
ATOM      1  C   UNL     1       6.496   6.969  17.371  0.00  0.00    +0.000 A 
ATOM      2  N   UNL     1       6.427   6.471  16.151  0.00  0.00    +0.000 NA
ATOM      3  N   UNL     1       5.099   6.146  15.939  0.00  0.00    +0.000 NA
ATOM      4  C   UNL     1       4.454   6.470  17.041  0.00  0.00    +0.000 A 
ATOM      5  O   UNL     1       5.276   6.994  18.003  0.00  0.00    +0.000 OA
ENDROOT
BRANCH   1   7
ATOM      6  N   UNL     1       7.860   8.874  17.885  0.00  0.00    +0.000 N 
ATOM      7  C   UNL     1       7.674   7.506  18.027  0.00  0.00    +0.000 C 
ATOM      8  O   UNL     1       8.453   6.820  18.690  0.00  0.00    +0.000 OA
ATOM      9  H   UNL     1       7.184   9.391  17.330  0.00  0.00    +0.000 HD
BRANCH   6  10
ATOM     10  C   UNL     1       8.954   9.577  18.524  0.00  0.00    +0.000 C 
BRANCH  10  11
ATOM     11  C   UNL     1       9.049  11.050  18.108  0.00  0.00    +0.000 C 
BRANCH  11  13
ATOM     12  C   UNL     1      10.511  13.007  17.382  0.00  0.00    +0.000 C 
ATOM     13  C   UNL     1      10.485  11.567  17.898  0.00  0.00    +0.000 C 
ATOM     14  C   UNL     1      11.282  11.484  19.204  0.00  0.00    +0.000 C 
ENDBRANCH  11  13
ENDBRANCH  10  11
ENDBRANCH   6  10
ENDBRANCH   1   7
BRANCH   4  15
ATOM     15  C   UNL     1       2.993   6.449  17.328  0.00  0.00    +0.000 C 
BRANCH  15  16
ATOM     16  C   UNL     1       2.592   5.484  18.421  0.00  0.00    +0.000 A 
ATOM     17  C   UNL     1       2.443   4.114  18.149  0.00  0.00    +0.000 A 
ATOM     18  C   UNL     1       2.059   3.227  19.159  0.00  0.00    +0.000 A 
ATOM     19  C   UNL     1       1.821   3.703  20.446  0.00  0.00    +0.000 A 
ATOM     20 CL   UNL     1       1.326   2.614  21.683  0.00  0.00    +0.000 Cl
ATOM     21  C   UNL     1       1.975   5.056  20.735  0.00  0.00    +0.000 A 
ATOM     22  C   UNL     1       2.356   5.945  19.726  0.00  0.00    +0.000 A 
ENDBRANCH  15  16
ENDBRANCH   4  15
TORSDOF 6
ENDMDL
MODEL 9
REMARK VINA RESULT:      -7.0      2.124      2.652
REMARK  Name = 
REMARK  8 active torsions:
REMARK  status: ('A' for Active; 'I' for Inactive)
REMARK    1  A    between atoms: C_1  and  C_2
REMARK    2  A    between atoms: C_2  and  C_3
REMARK    3  A    between atoms: C_2  and  C_4
REMARK    4  A    between atoms: C_4  and  C_5
REMARK    5  A    between atoms: C_5  and  N_6
REMARK    6  A    between atoms: C_7  and  C_9
REMARK    7  A    between atoms: C_12  and  C_13
REMARK    8  A    between atoms: C_13  and  C_14
REMARK                            x       y       z     vdW  Elec       q    Type
REMARK                         _______ _______ _______ _____ _____    ______ ____
ROOT
ATOM      1  C   UNL     1       7.097   4.997  16.283  0.00  0.00    +0.000 A 
ATOM      2  N   UNL     1       7.925   4.407  17.125  0.00  0.00    +0.000 NA
ATOM      3  N   UNL     1       7.372   4.557  18.384  0.00  0.00    +0.000 NA
ATOM      4  C   UNL     1       6.246   5.224  18.220  0.00  0.00    +0.000 A 
ATOM      5  O   UNL     1       6.006   5.546  16.912  0.00  0.00    +0.000 OA
ENDROOT
BRANCH   1   7
ATOM      6  N   UNL     1       6.226   4.389  14.133  0.00  0.00    +0.000 N 
ATOM      7  C   UNL     1       7.219   5.053  14.838  0.00  0.00    +0.000 C 
ATOM      8  O   UNL     1       8.118   5.663  14.257  0.00  0.00    +0.000 OA
ATOM      9  H   UNL     1       5.508   3.905  14.664  0.00  0.00    +0.000 HD
BRANCH   6  10
ATOM     10  C   UNL     1       6.168   4.396  12.685  0.00  0.00    +0.000 C 
BRANCH  10  11
ATOM     11  C   UNL     1       6.639   3.078  12.057  0.00  0.00    +0.000 C 
BRANCH  11  13
ATOM     12  C   UNL     1       4.315   2.754  11.062  0.00  0.00    +0.000 C 
ATOM     13  C   UNL     1       5.511   2.079  11.737  0.00  0.00    +0.000 C 
ATOM     14  C   UNL     1       6.030   0.954  10.836  0.00  0.00    +0.000 C 
ENDBRANCH  11  13
ENDBRANCH  10  11
ENDBRANCH   6  10
ENDBRANCH   1   7
BRANCH   4  15
ATOM     15  C   UNL     1       5.190   5.561  19.213  0.00  0.00    +0.000 C 
BRANCH  15  16
ATOM     16  C   UNL     1       3.941   4.716  19.099  0.00  0.00    +0.000 A 
ATOM     17  C   UNL     1       3.250   4.300  20.249  0.00  0.00    +0.000 A 
ATOM     18  C   UNL     1       2.104   3.507  20.140  0.00  0.00    +0.000 A 
ATOM     19  C   UNL     1       1.642   3.124  18.884  0.00  0.00    +0.000 A 
ATOM     20 CL   UNL     1       0.244   2.129  18.752  0.00  0.00    +0.000 Cl
ATOM     21  C   UNL     1       2.309   3.537  17.733  0.00  0.00    +0.000 A 
ATOM     22  C   UNL     1       3.456   4.328  17.840  0.00  0.00    +0.000 A 
ENDBRANCH  15  16
ENDBRANCH   4  15
TORSDOF 6
ENDMDL
