MODEL 1
REMARK VINA RESULT:      -8.7      0.000      0.000
REMARK  Name = 
REMARK  8 active torsions:
REMARK  status: ('A' for Active; 'I' for Inactive)
REMARK    1  A    between atoms: C_1  and  C_2
REMARK    2  A    between atoms: N_4  and  C_5
REMARK    3  A    between atoms: C_5  and  C_6
REMARK    4  A    between atoms: N_8  and  C_9
REMARK    5  A    between atoms: C_12  and  N_13
REMARK    6  A    between atoms: N_16  and  N_17
REMARK    7  A    between atoms: C_18  and  C_19
REMARK    8  A    between atoms: C_22  and  N_23
REMARK                            x       y       z     vdW  Elec       q    Type
REMARK                         _______ _______ _______ _____ _____    ______ ____
ROOT
ATOM      1  C   UNL     1       4.237   6.288  17.794  0.00  0.00    +0.000 A 
ATOM      2  C   UNL     1       3.825   7.579  17.460  0.00  0.00    +0.000 A 
ATOM      3  C   UNL     1       2.829   8.240  18.191  0.00  0.00    +0.000 A 
ATOM      4  C   UNL     1       2.209   7.657  19.302  0.00  0.00    +0.000 A 
ATOM      5  C   UNL     1       2.626   6.351  19.613  0.00  0.00    +0.000 A 
ATOM      6  F   UNL     1       2.139   5.719  20.695  0.00  0.00    +0.000 F 
ATOM      7  C   UNL     1       3.604   5.670  18.873  0.00  0.00    +0.000 A 
ENDROOT
BRANCH   1  10
ATOM      8  C   UNL     1       6.641   4.943  15.344  0.00  0.00    +0.000 C 
ATOM      9  C   UNL     1       5.255   5.488  15.637  0.00  0.00    +0.000 C 
ATOM     10  N   UNL     1       5.258   5.632  17.063  0.00  0.00    +0.000 N 
ATOM     11  C   UNL     1       6.323   4.924  17.605  0.00  0.00    +0.000 C 
ATOM     12  O   UNL     1       6.587   4.725  18.777  0.00  0.00    +0.000 OA
ATOM     13  O   UNL     1       7.077   4.384  16.594  0.00  0.00    +0.000 OA
BRANCH   8  14
ATOM     14  C   UNL     1       6.640   3.853  14.268  0.00  0.00    +0.000 C 
BRANCH  14  18
ATOM     15  C   UNL     1       4.168   3.503  11.417  0.00  0.00    +0.000 C 
ATOM     16  C   UNL     1       5.425   3.251  12.202  0.00  0.00    +0.000 C 
ATOM     17  O   UNL     1       6.320   2.510  11.810  0.00  0.00    +0.000 OA
ATOM     18  N   UNL     1       5.493   3.956  13.380  0.00  0.00    +0.000 N 
ATOM     19  H   UNL     1       4.638   4.349  13.759  0.00  0.00    +0.000 HD
ENDBRANCH  14  18
ENDBRANCH   8  14
ENDBRANCH   1  10
BRANCH   4  20
ATOM     20  N   UNL     1       1.263   8.358  20.024  0.00  0.00    +0.000 N 
ATOM     21  C   UNL     1       0.919   8.034  21.418  0.00  0.00    +0.000 C 
ATOM     22  C   UNL     1       1.028   9.284  22.307  0.00  0.00    +0.000 C 
ATOM     23  N   UNL     1       0.181  10.364  21.755  0.00  0.00    +0.000 N 
ATOM     24  C   UNL     1       0.707  10.741  20.426  0.00  0.00    +0.000 C 
ATOM     25  C   UNL     1       0.585   9.539  19.463  0.00  0.00    +0.000 C 
BRANCH  23  26
ATOM     26  N   UNL     1      -0.243  11.303  22.635  0.00  0.00    +0.000 NA
ATOM     27  C   UNL     1      -1.417  11.775  22.343  0.00  0.00    +0.000 C 
BRANCH  27  28
ATOM     28  C   UNL     1      -2.150  12.563  23.291  0.00  0.00    +0.000 A 
ATOM     29  C   UNL     1      -3.460  12.495  23.732  0.00  0.00    +0.000 A 
ATOM     30  C   UNL     1      -3.678  13.628  24.555  0.00  0.00    +0.000 A 
ATOM     31  C   UNL     1      -2.479  14.300  24.572  0.00  0.00    +0.000 A 
ATOM     32  O   UNL     1      -1.537  13.667  23.822  0.00  0.00    +0.000 OA
BRANCH  31  33
ATOM     33  N   UNL     1      -2.086  15.525  25.195  0.00  0.00    +0.000 N 
ATOM     34  O   UNL     1      -1.245  15.434  26.100  0.00  0.00    +0.000 OA
ATOM     35  O   UNL     1      -2.610  16.572  24.793  0.00  0.00    +0.000 OA
ENDBRANCH  31  33
ENDBRANCH  27  28
ENDBRANCH  23  26
ENDBRANCH   4  20
TORSDOF 7
ENDMDL
MODEL 2
REMARK VINA RESULT:      -8.6      1.095      1.177
REMARK  Name = 
REMARK  8 active torsions:
REMARK  status: ('A' for Active; 'I' for Inactive)
REMARK    1  A    between atoms: C_1  and  C_2
REMARK    2  A    between atoms: N_4  and  C_5
REMARK    3  A    between atoms: C_5  and  C_6
REMARK    4  A    between atoms: N_8  and  C_9
REMARK    5  A    between atoms: C_12  and  N_13
REMARK    6  A    between atoms: N_16  and  N_17
REMARK    7  A    between atoms: C_18  and  C_19
REMARK    8  A    between atoms: C_22  and  N_23
REMARK                            x       y       z     vdW  Elec       q    Type
REMARK                         _______ _______ _______ _____ _____    ______ ____
ROOT
ATOM      1  C   UNL     1       3.719   6.214  17.892  0.00  0.00    +0.000 A 
ATOM      2  C   UNL     1       3.451   7.514  17.458  0.00  0.00    +0.000 A 
ATOM      3  C   UNL     1       2.555   8.342  18.147  0.00  0.00    +0.000 A 
ATOM      4  C   UNL     1       1.899   7.926  19.312  0.00  0.00    +0.000 A 
ATOM      5  C   UNL     1       2.171   6.610  19.723  0.00  0.00    +0.000 A 
ATOM      6  F   UNL     1       1.641   6.127  20.860  0.00  0.00    +0.000 F 
ATOM      7  C   UNL     1       3.046   5.762  19.027  0.00  0.00    +0.000 A 
ENDROOT
BRANCH   1  10
ATOM      8  C   UNL     1       6.491   4.655  16.026  0.00  0.00    +0.000 C 
ATOM      9  C   UNL     1       5.640   5.881  16.301  0.00  0.00    +0.000 C 
ATOM     10  N   UNL     1       4.641   5.387  17.202  0.00  0.00    +0.000 N 
ATOM     11  C   UNL     1       4.634   3.999  17.182  0.00  0.00    +0.000 C 
ATOM     12  O   UNL     1       3.862   3.233  17.730  0.00  0.00    +0.000 OA
ATOM     13  O   UNL     1       5.642   3.546  16.369  0.00  0.00    +0.000 OA
BRANCH   8  14
ATOM     14  C   UNL     1       6.918   4.539  14.561  0.00  0.00    +0.000 C 
BRANCH  14  18
ATOM     15  C   UNL     1       4.904   3.039  11.723  0.00  0.00    +0.000 C 
ATOM     16  C   UNL     1       6.111   3.598  12.423  0.00  0.00    +0.000 C 
ATOM     17  O   UNL     1       7.196   3.742  11.871  0.00  0.00    +0.000 OA
ATOM     18  N   UNL     1       5.874   3.965  13.726  0.00  0.00    +0.000 N 
ATOM     19  H   UNL     1       5.048   3.602  14.189  0.00  0.00    +0.000 HD
ENDBRANCH  14  18
ENDBRANCH   8  14
ENDBRANCH   1  10
BRANCH   4  20
ATOM     20  N   UNL     1       1.057   8.788  19.987  0.00  0.00    +0.000 N 
ATOM     21  C   UNL     1       0.873   8.745  21.446  0.00  0.00    +0.000 C 
ATOM     22  C   UNL     1       1.109  10.134  22.063  0.00  0.00    +0.000 C 
ATOM     23  N   UNL     1       0.223  11.124  21.413  0.00  0.00    +0.000 N 
ATOM     24  C   UNL     1       0.597  11.224  19.986  0.00  0.00    +0.000 C 
ATOM     25  C   UNL     1       0.341   9.870  19.290  0.00  0.00    +0.000 C 
BRANCH  23  26
ATOM     26  N   UNL     1      -0.077  12.229  22.139  0.00  0.00    +0.000 NA
ATOM     27  C   UNL     1      -1.342  12.321  22.418  0.00  0.00    +0.000 C 
BRANCH  27  28
ATOM     28  C   UNL     1      -1.812  13.255  23.399  0.00  0.00    +0.000 A 
ATOM     29  C   UNL     1      -3.083  13.540  23.868  0.00  0.00    +0.000 A 
ATOM     30  C   UNL     1      -2.966  14.667  24.720  0.00  0.00    +0.000 A 
ATOM     31  C   UNL     1      -1.627  14.980  24.724  0.00  0.00    +0.000 A 
ATOM     32  O   UNL     1      -0.909  14.132  23.940  0.00  0.00    +0.000 OA
BRANCH  31  33
ATOM     33  N   UNL     1      -0.900  16.031  25.364  0.00  0.00    +0.000 N 
ATOM     34  O   UNL     1      -1.519  16.686  26.214  0.00  0.00    +0.000 OA
ATOM     35  O   UNL     1       0.276  16.211  25.025  0.00  0.00    +0.000 OA
ENDBRANCH  31  33
ENDBRANCH  27  28
ENDBRANCH  23  26
ENDBRANCH   4  20
TORSDOF 7
ENDMDL
MODEL 3
REMARK VINA RESULT:      -8.6      1.746      2.104
REMARK  Name = 
REMARK  8 active torsions:
REMARK  status: ('A' for Active; 'I' for Inactive)
REMARK    1  A    between atoms: C_1  and  C_2
REMARK    2  A    between atoms: N_4  and  C_5
REMARK    3  A    between atoms: C_5  and  C_6
REMARK    4  A    between atoms: N_8  and  C_9
REMARK    5  A    between atoms: C_12  and  N_13
REMARK    6  A    between atoms: N_16  and  N_17
REMARK    7  A    between atoms: C_18  and  C_19
REMARK    8  A    between atoms: C_22  and  N_23
REMARK                            x       y       z     vdW  Elec       q    Type
REMARK                         _______ _______ _______ _____ _____    ______ ____
ROOT
ATOM      1  C   UNL     1       3.804   6.240  17.888  0.00  0.00    +0.000 A 
ATOM      2  C   UNL     1       3.311   5.856  19.136  0.00  0.00    +0.000 A 
ATOM      3  C   UNL     1       2.426   6.672  19.854  0.00  0.00    +0.000 A 
ATOM      4  C   UNL     1       1.974   7.901  19.356  0.00  0.00    +0.000 A 
ATOM      5  C   UNL     1       2.494   8.276  18.106  0.00  0.00    +0.000 A 
ATOM      6  F   UNL     1       2.082   9.407  17.508  0.00  0.00    +0.000 F 
ATOM      7  C   UNL     1       3.400   7.479  17.389  0.00  0.00    +0.000 A 
ENDROOT
BRANCH   1  10
ATOM      8  C   UNL     1       6.523   4.614  16.003  0.00  0.00    +0.000 C 
ATOM      9  C   UNL     1       5.777   5.884  16.369  0.00  0.00    +0.000 C 
ATOM     10  N   UNL     1       4.683   5.402  17.158  0.00  0.00    +0.000 N 
ATOM     11  C   UNL     1       4.545   4.031  16.984  0.00  0.00    +0.000 C 
ATOM     12  O   UNL     1       3.672   3.294  17.404  0.00  0.00    +0.000 OA
ATOM     13  O   UNL     1       5.553   3.567  16.177  0.00  0.00    +0.000 OA
BRANCH   8  14
ATOM     14  C   UNL     1       7.026   4.610  14.557  0.00  0.00    +0.000 C 
BRANCH  14  18
ATOM     15  C   UNL     1       5.713   2.492  11.702  0.00  0.00    +0.000 C 
ATOM     16  C   UNL     1       6.530   3.558  12.376  0.00  0.00    +0.000 C 
ATOM     17  O   UNL     1       7.278   4.314  11.765  0.00  0.00    +0.000 OA
ATOM     18  N   UNL     1       6.333   3.631  13.734  0.00  0.00    +0.000 N 
ATOM     19  H   UNL     1       5.904   2.842  14.204  0.00  0.00    +0.000 HD
ENDBRANCH  14  18
ENDBRANCH   8  14
ENDBRANCH   1  10
BRANCH   4  20
ATOM     20  N   UNL     1       1.068   8.656  20.074  0.00  0.00    +0.000 N 
ATOM     21  C   UNL     1       0.720   8.368  21.475  0.00  0.00    +0.000 C 
ATOM     22  C   UNL     1       0.895   9.625  22.345  0.00  0.00    +0.000 C 
ATOM     23  N   UNL     1       0.095  10.735  21.784  0.00  0.00    +0.000 N 
ATOM     24  C   UNL     1       0.627  11.068  20.445  0.00  0.00    +0.000 C 
ATOM     25  C   UNL     1       0.442   9.860  19.501  0.00  0.00    +0.000 C 
BRANCH  23  26
ATOM     26  N   UNL     1      -0.277  11.706  22.652  0.00  0.00    +0.000 NA
ATOM     27  C   UNL     1      -0.936  12.668  22.082  0.00  0.00    +0.000 C 
BRANCH  27  28
ATOM     28  C   UNL     1      -1.648  13.637  22.864  0.00  0.00    +0.000 A 
ATOM     29  C   UNL     1      -1.297  14.347  23.999  0.00  0.00    +0.000 A 
ATOM     30  C   UNL     1      -2.456  15.042  24.426  0.00  0.00    +0.000 A 
ATOM     31  C   UNL     1      -3.430  14.720  23.511  0.00  0.00    +0.000 A 
ATOM     32  O   UNL     1      -2.960  13.880  22.550  0.00  0.00    +0.000 OA
BRANCH  31  33
ATOM     33  N   UNL     1      -4.810  15.082  23.426  0.00  0.00    +0.000 N 
ATOM     34  O   UNL     1      -5.471  14.516  22.546  0.00  0.00    +0.000 OA
ATOM     35  O   UNL     1      -5.237  15.926  24.225  0.00  0.00    +0.000 OA
ENDBRANCH  31  33
ENDBRANCH  27  28
ENDBRANCH  23  26
ENDBRANCH   4  20
TORSDOF 7
ENDMDL
MODEL 4
REMARK VINA RESULT:      -8.4      1.198      1.410
REMARK  Name = 
REMARK  8 active torsions:
REMARK  status: ('A' for Active; 'I' for Inactive)
REMARK    1  A    between atoms: C_1  and  C_2
REMARK    2  A    between atoms: N_4  and  C_5
REMARK    3  A    between atoms: C_5  and  C_6
REMARK    4  A    between atoms: N_8  and  C_9
REMARK    5  A    between atoms: C_12  and  N_13
REMARK    6  A    between atoms: N_16  and  N_17
REMARK    7  A    between atoms: C_18  and  C_19
REMARK    8  A    between atoms: C_22  and  N_23
REMARK                            x       y       z     vdW  Elec       q    Type
REMARK                         _______ _______ _______ _____ _____    ______ ____
ROOT
ATOM      1  C   UNL     1       4.298   6.455  17.694  0.00  0.00    +0.000 A 
ATOM      2  C   UNL     1       3.806   7.721  17.371  0.00  0.00    +0.000 A 
ATOM      3  C   UNL     1       2.794   8.326  18.128  0.00  0.00    +0.000 A 
ATOM      4  C   UNL     1       2.236   7.709  19.255  0.00  0.00    +0.000 A 
ATOM      5  C   UNL     1       2.734   6.430  19.554  0.00  0.00    +0.000 A 
ATOM      6  F   UNL     1       2.311   5.773  20.648  0.00  0.00    +0.000 F 
ATOM      7  C   UNL     1       3.729   5.804  18.789  0.00  0.00    +0.000 A 
ENDROOT
BRANCH   1  10
ATOM      8  C   UNL     1       6.644   5.149  15.168  0.00  0.00    +0.000 C 
ATOM      9  C   UNL     1       5.225   5.532  15.545  0.00  0.00    +0.000 C 
ATOM     10  N   UNL     1       5.336   5.857  16.936  0.00  0.00    +0.000 N 
ATOM     11  C   UNL     1       6.539   5.377  17.437  0.00  0.00    +0.000 C 
ATOM     12  O   UNL     1       6.935   5.369  18.589  0.00  0.00    +0.000 OA
ATOM     13  O   UNL     1       7.270   4.821  16.419  0.00  0.00    +0.000 OA
BRANCH   8  14
ATOM     14  C   UNL     1       6.709   3.941  14.230  0.00  0.00    +0.000 C 
BRANCH  14  18
ATOM     15  C   UNL     1       4.321   3.255  11.369  0.00  0.00    +0.000 C 
ATOM     16  C   UNL     1       5.609   3.209  12.141  0.00  0.00    +0.000 C 
ATOM     17  O   UNL     1       6.623   2.663  11.719  0.00  0.00    +0.000 OA
ATOM     18  N   UNL     1       5.555   3.865  13.348  0.00  0.00    +0.000 N 
ATOM     19  H   UNL     1       4.646   4.077  13.743  0.00  0.00    +0.000 HD
ENDBRANCH  14  18
ENDBRANCH   8  14
ENDBRANCH   1  10
BRANCH   4  20
ATOM     20  N   UNL     1       1.271   8.357  20.001  0.00  0.00    +0.000 N 
ATOM     21  C   UNL     1       0.967   8.001  21.396  0.00  0.00    +0.000 C 
ATOM     22  C   UNL     1       1.033   9.245  22.299  0.00  0.00    +0.000 C 
ATOM     23  N   UNL     1       0.127  10.289  21.775  0.00  0.00    +0.000 N 
ATOM     24  C   UNL     1       0.611  10.706  20.442  0.00  0.00    +0.000 C 
ATOM     25  C   UNL     1       0.529   9.511  19.466  0.00  0.00    +0.000 C 
BRANCH  23  26
ATOM     26  N   UNL     1      -0.325  11.198  22.673  0.00  0.00    +0.000 NA
ATOM     27  C   UNL     1      -0.729  12.299  22.117  0.00  0.00    +0.000 C 
BRANCH  27  28
ATOM     28  C   UNL     1      -1.491  13.262  22.858  0.00  0.00    +0.000 A 
ATOM     29  C   UNL     1      -1.110  14.276  23.720  0.00  0.00    +0.000 A 
ATOM     30  C   UNL     1      -2.297  14.805  24.286  0.00  0.00    +0.000 A 
ATOM     31  C   UNL     1      -3.321  14.086  23.717  0.00  0.00    +0.000 A 
ATOM     32  O   UNL     1      -2.857  13.155  22.842  0.00  0.00    +0.000 OA
BRANCH  31  33
ATOM     33  N   UNL     1      -4.736  14.133  23.913  0.00  0.00    +0.000 N 
ATOM     34  O   UNL     1      -5.338  13.055  23.814  0.00  0.00    +0.000 OA
ATOM     35  O   UNL     1      -5.250  15.231  24.160  0.00  0.00    +0.000 OA
ENDBRANCH  31  33
ENDBRANCH  27  28
ENDBRANCH  23  26
ENDBRANCH   4  20
TORSDOF 7
ENDMDL
MODEL 5
REMARK VINA RESULT:      -8.4      2.118      2.808
REMARK  Name = 
REMARK  8 active torsions:
REMARK  status: ('A' for Active; 'I' for Inactive)
REMARK    1  A    between atoms: C_1  and  C_2
REMARK    2  A    between atoms: N_4  and  C_5
REMARK    3  A    between atoms: C_5  and  C_6
REMARK    4  A    between atoms: N_8  and  C_9
REMARK    5  A    between atoms: C_12  and  N_13
REMARK    6  A    between atoms: N_16  and  N_17
REMARK    7  A    between atoms: C_18  and  C_19
REMARK    8  A    between atoms: C_22  and  N_23
REMARK                            x       y       z     vdW  Elec       q    Type
REMARK                         _______ _______ _______ _____ _____    ______ ____
ROOT
ATOM      1  C   UNL     1       2.948   7.035  18.532  0.00  0.00    +0.000 A 
ATOM      2  C   UNL     1       2.831   8.126  17.669  0.00  0.00    +0.000 A 
ATOM      3  C   UNL     1       2.045   9.238  18.000  0.00  0.00    +0.000 A 
ATOM      4  C   UNL     1       1.354   9.327  19.215  0.00  0.00    +0.000 A 
ATOM      5  C   UNL     1       1.473   8.213  20.063  0.00  0.00    +0.000 A 
ATOM      6  F   UNL     1       0.899   8.217  21.278  0.00  0.00    +0.000 F 
ATOM      7  C   UNL     1       2.236   7.083  19.731  0.00  0.00    +0.000 A 
ENDROOT
BRANCH   1  10
ATOM      8  C   UNL     1       5.566   4.495  17.999  0.00  0.00    +0.000 C 
ATOM      9  C   UNL     1       5.192   5.956  18.171  0.00  0.00    +0.000 C 
ATOM     10  N   UNL     1       3.759   5.921  18.199  0.00  0.00    +0.000 N 
ATOM     11  C   UNL     1       3.309   4.696  17.728  0.00  0.00    +0.000 C 
ATOM     12  O   UNL     1       2.165   4.338  17.508  0.00  0.00    +0.000 OA
ATOM     13  O   UNL     1       4.381   3.882  17.466  0.00  0.00    +0.000 OA
BRANCH   8  14
ATOM     14  C   UNL     1       6.732   4.286  17.029  0.00  0.00    +0.000 C 
BRANCH  14  18
ATOM     15  C   UNL     1       6.148   3.762  13.322  0.00  0.00    +0.000 C 
ATOM     16  C   UNL     1       6.731   4.383  14.560  0.00  0.00    +0.000 C 
ATOM     17  O   UNL     1       7.506   5.334  14.528  0.00  0.00    +0.000 OA
ATOM     18  N   UNL     1       6.288   3.811  15.728  0.00  0.00    +0.000 N 
ATOM     19  H   UNL     1       5.855   2.896  15.685  0.00  0.00    +0.000 HD
ENDBRANCH  14  18
ENDBRANCH   8  14
ENDBRANCH   1  10
BRANCH   4  20
ATOM     20  N   UNL     1       0.626  10.459  19.524  0.00  0.00    +0.000 N 
ATOM     21  C   UNL     1      -0.468  10.961  18.678  0.00  0.00    +0.000 C 
ATOM     22  C   UNL     1      -1.747  11.162  19.509  0.00  0.00    +0.000 C 
ATOM     23  N   UNL     1      -1.463  12.057  20.651  0.00  0.00    +0.000 N 
ATOM     24  C   UNL     1      -0.482  11.394  21.536  0.00  0.00    +0.000 C 
ATOM     25  C   UNL     1       0.849  11.201  20.777  0.00  0.00    +0.000 C 
BRANCH  23  26
ATOM     26  N   UNL     1      -2.520  12.735  21.160  0.00  0.00    +0.000 NA
ATOM     27  C   UNL     1      -2.168  13.688  21.968  0.00  0.00    +0.000 C 
BRANCH  27  28
ATOM     28  C   UNL     1      -3.110  14.685  22.385  0.00  0.00    +0.000 A 
ATOM     29  C   UNL     1      -4.134  15.328  21.712  0.00  0.00    +0.000 A 
ATOM     30  C   UNL     1      -4.632  16.333  22.579  0.00  0.00    +0.000 A 
ATOM     31  C   UNL     1      -3.887  16.221  23.729  0.00  0.00    +0.000 A 
ATOM     32  O   UNL     1      -2.968  15.223  23.638  0.00  0.00    +0.000 OA
BRANCH  31  33
ATOM     33  N   UNL     1      -3.897  16.975  24.943  0.00  0.00    +0.000 N 
ATOM     34  O   UNL     1      -5.008  17.327  25.360  0.00  0.00    +0.000 OA
ATOM     35  O   UNL     1      -2.809  17.220  25.480  0.00  0.00    +0.000 OA
ENDBRANCH  31  33
ENDBRANCH  27  28
ENDBRANCH  23  26
ENDBRANCH   4  20
TORSDOF 7
ENDMDL
MODEL 6
REMARK VINA RESULT:      -8.4      2.149      2.812
REMARK  Name = 
REMARK  8 active torsions:
REMARK  status: ('A' for Active; 'I' for Inactive)
REMARK    1  A    between atoms: C_1  and  C_2
REMARK    2  A    between atoms: N_4  and  C_5
REMARK    3  A    between atoms: C_5  and  C_6
REMARK    4  A    between atoms: N_8  and  C_9
REMARK    5  A    between atoms: C_12  and  N_13
REMARK    6  A    between atoms: N_16  and  N_17
REMARK    7  A    between atoms: C_18  and  C_19
REMARK    8  A    between atoms: C_22  and  N_23
REMARK                            x       y       z     vdW  Elec       q    Type
REMARK                         _______ _______ _______ _____ _____    ______ ____
ROOT
ATOM      1  C   UNL     1       2.867   6.962  18.643  0.00  0.00    +0.000 A 
ATOM      2  C   UNL     1       2.578   8.028  17.789  0.00  0.00    +0.000 A 
ATOM      3  C   UNL     1       1.801   9.114  18.214  0.00  0.00    +0.000 A 
ATOM      4  C   UNL     1       1.291   9.202  19.515  0.00  0.00    +0.000 A 
ATOM      5  C   UNL     1       1.581   8.113  20.355  0.00  0.00    +0.000 A 
ATOM      6  F   UNL     1       1.191   8.121  21.641  0.00  0.00    +0.000 F 
ATOM      7  C   UNL     1       2.336   7.008  19.933  0.00  0.00    +0.000 A 
ENDROOT
BRANCH   1  10
ATOM      8  C   UNL     1       5.470   4.468  17.872  0.00  0.00    +0.000 C 
ATOM      9  C   UNL     1       5.101   5.913  18.157  0.00  0.00    +0.000 C 
ATOM     10  N   UNL     1       3.670   5.876  18.214  0.00  0.00    +0.000 N 
ATOM     11  C   UNL     1       3.207   4.688  17.665  0.00  0.00    +0.000 C 
ATOM     12  O   UNL     1       2.059   4.346  17.445  0.00  0.00    +0.000 OA
ATOM     13  O   UNL     1       4.273   3.895  17.321  0.00  0.00    +0.000 OA
BRANCH   8  14
ATOM     14  C   UNL     1       6.614   4.331  16.863  0.00  0.00    +0.000 C 
BRANCH  14  18
ATOM     15  C   UNL     1       6.038   3.770  13.160  0.00  0.00    +0.000 C 
ATOM     16  C   UNL     1       6.650   4.374  14.393  0.00  0.00    +0.000 C 
ATOM     17  O   UNL     1       7.492   5.265  14.352  0.00  0.00    +0.000 OA
ATOM     18  N   UNL     1       6.153   3.861  15.567  0.00  0.00    +0.000 N 
ATOM     19  H   UNL     1       5.655   2.978  15.537  0.00  0.00    +0.000 HD
ENDBRANCH  14  18
ENDBRANCH   8  14
ENDBRANCH   1  10
BRANCH   4  20
ATOM     20  N   UNL     1       0.567  10.310  19.909  0.00  0.00    +0.000 N 
ATOM     21  C   UNL     1      -0.614  10.223  20.783  0.00  0.00    +0.000 C 
ATOM     22  C   UNL     1      -0.468  11.169  21.987  0.00  0.00    +0.000 C 
ATOM     23  N   UNL     1      -0.220  12.547  21.512  0.00  0.00    +0.000 N 
ATOM     24  C   UNL     1       1.072  12.571  20.793  0.00  0.00    +0.000 C 
ATOM     25  C   UNL     1       0.981  11.674  19.539  0.00  0.00    +0.000 C 
BRANCH  23  26
ATOM     26  N   UNL     1      -0.572  13.546  22.357  0.00  0.00    +0.000 NA
ATOM     27  C   UNL     1      -1.180  14.524  21.757  0.00  0.00    +0.000 C 
BRANCH  27  28
ATOM     28  C   UNL     1      -1.869  15.532  22.508  0.00  0.00    +0.000 A 
ATOM     29  C   UNL     1      -1.456  16.755  23.009  0.00  0.00    +0.000 A 
ATOM     30  C   UNL     1      -2.517  17.253  23.807  0.00  0.00    +0.000 A 
ATOM     31  C   UNL     1      -3.510  16.307  23.722  0.00  0.00    +0.000 A 
ATOM     32  O   UNL     1      -3.144  15.262  22.932  0.00  0.00    +0.000 OA
BRANCH  31  33
ATOM     33  N   UNL     1      -4.800  16.227  24.332  0.00  0.00    +0.000 N 
ATOM     34  O   UNL     1      -5.066  17.102  25.167  0.00  0.00    +0.000 OA
ATOM     35  O   UNL     1      -5.546  15.301  23.990  0.00  0.00    +0.000 OA
ENDBRANCH  31  33
ENDBRANCH  27  28
ENDBRANCH  23  26
ENDBRANCH   4  20
TORSDOF 7
ENDMDL
MODEL 7
REMARK VINA RESULT:      -8.1      2.935      4.106
REMARK  Name = 
REMARK  8 active torsions:
REMARK  status: ('A' for Active; 'I' for Inactive)
REMARK    1  A    between atoms: C_1  and  C_2
REMARK    2  A    between atoms: N_4  and  C_5
REMARK    3  A    between atoms: C_5  and  C_6
REMARK    4  A    between atoms: N_8  and  C_9
REMARK    5  A    between atoms: C_12  and  N_13
REMARK    6  A    between atoms: N_16  and  N_17
REMARK    7  A    between atoms: C_18  and  C_19
REMARK    8  A    between atoms: C_22  and  N_23
REMARK                            x       y       z     vdW  Elec       q    Type
REMARK                         _______ _______ _______ _____ _____    ______ ____
ROOT
ATOM      1  C   UNL     1       2.392   7.317  18.413  0.00  0.00    +0.000 A 
ATOM      2  C   UNL     1       2.241   8.367  17.505  0.00  0.00    +0.000 A 
ATOM      3  C   UNL     1       1.645   9.578  17.883  0.00  0.00    +0.000 A 
ATOM      4  C   UNL     1       1.190   9.810  19.187  0.00  0.00    +0.000 A 
ATOM      5  C   UNL     1       1.337   8.736  20.080  0.00  0.00    +0.000 A 
ATOM      6  F   UNL     1       0.987   8.870  21.371  0.00  0.00    +0.000 F 
ATOM      7  C   UNL     1       1.908   7.510  19.707  0.00  0.00    +0.000 A 
ENDROOT
BRANCH   1  10
ATOM      8  C   UNL     1       3.352   3.947  17.267  0.00  0.00    +0.000 C 
ATOM      9  C   UNL     1       2.322   4.851  17.920  0.00  0.00    +0.000 C 
ATOM     10  N   UNL     1       3.013   6.102  18.030  0.00  0.00    +0.000 N 
ATOM     11  C   UNL     1       4.374   5.906  17.841  0.00  0.00    +0.000 C 
ATOM     12  O   UNL     1       5.283   6.708  17.963  0.00  0.00    +0.000 OA
ATOM     13  O   UNL     1       4.610   4.592  17.527  0.00  0.00    +0.000 OA
BRANCH   8  14
ATOM     14  C   UNL     1       3.368   2.535  17.858  0.00  0.00    +0.000 C 
BRANCH  14  18
ATOM     15  C   UNL     1       2.721   2.408  21.589  0.00  0.00    +0.000 C 
ATOM     16  C   UNL     1       3.528   2.480  20.323  0.00  0.00    +0.000 C 
ATOM     17  O   UNL     1       4.754   2.501  20.313  0.00  0.00    +0.000 OA
ATOM     18  N   UNL     1       2.765   2.483  19.180  0.00  0.00    +0.000 N 
ATOM     19  H   UNL     1       1.779   2.709  19.256  0.00  0.00    +0.000 HD
ENDBRANCH  14  18
ENDBRANCH   8  14
ENDBRANCH   1  10
BRANCH   4  20
ATOM     20  N   UNL     1       0.648  11.033  19.531  0.00  0.00    +0.000 N 
ATOM     21  C   UNL     1      -0.677  11.478  19.073  0.00  0.00    +0.000 C 
ATOM     22  C   UNL     1      -1.544  11.916  20.265  0.00  0.00    +0.000 C 
ATOM     23  N   UNL     1      -0.837  12.959  21.039  0.00  0.00    +0.000 N 
ATOM     24  C   UNL     1       0.396  12.372  21.603  0.00  0.00    +0.000 C 
ATOM     25  C   UNL     1       1.339  11.950  20.455  0.00  0.00    +0.000 C 
BRANCH  23  26
ATOM     26  N   UNL     1      -1.614  13.795  21.769  0.00  0.00    +0.000 NA
ATOM     27  C   UNL     1      -1.316  13.787  23.033  0.00  0.00    +0.000 C 
BRANCH  27  28
ATOM     28  C   UNL     1      -1.827  14.794  23.916  0.00  0.00    +0.000 A 
ATOM     29  C   UNL     1      -1.284  15.405  25.034  0.00  0.00    +0.000 A 
ATOM     30  C   UNL     1      -2.305  16.209  25.601  0.00  0.00    +0.000 A 
ATOM     31  C   UNL     1      -3.394  16.046  24.779  0.00  0.00    +0.000 A 
ATOM     32  O   UNL     1      -3.124  15.202  23.747  0.00  0.00    +0.000 OA
BRANCH  31  33
ATOM     33  N   UNL     1      -4.723  16.568  24.849  0.00  0.00    +0.000 N 
ATOM     34  O   UNL     1      -5.545  16.080  24.063  0.00  0.00    +0.000 OA
ATOM     35  O   UNL     1      -4.950  17.462  25.676  0.00  0.00    +0.000 OA
ENDBRANCH  31  33
ENDBRANCH  27  28
ENDBRANCH  23  26
ENDBRANCH   4  20
TORSDOF 7
ENDMDL
MODEL 8
REMARK VINA RESULT:      -8.1      2.517      3.052
REMARK  Name = 
REMARK  8 active torsions:
REMARK  status: ('A' for Active; 'I' for Inactive)
REMARK    1  A    between atoms: C_1  and  C_2
REMARK    2  A    between atoms: N_4  and  C_5
REMARK    3  A    between atoms: C_5  and  C_6
REMARK    4  A    between atoms: N_8  and  C_9
REMARK    5  A    between atoms: C_12  and  N_13
REMARK    6  A    between atoms: N_16  and  N_17
REMARK    7  A    between atoms: C_18  and  C_19
REMARK    8  A    between atoms: C_22  and  N_23
REMARK                            x       y       z     vdW  Elec       q    Type
REMARK                         _______ _______ _______ _____ _____    ______ ____
ROOT
ATOM      1  C   UNL     1       3.024   7.038  18.501  0.00  0.00    +0.000 A 
ATOM      2  C   UNL     1       2.716   8.152  17.717  0.00  0.00    +0.000 A 
ATOM      3  C   UNL     1       1.846   9.150  18.178  0.00  0.00    +0.000 A 
ATOM      4  C   UNL     1       1.256   9.098  19.447  0.00  0.00    +0.000 A 
ATOM      5  C   UNL     1       1.567   7.962  20.213  0.00  0.00    +0.000 A 
ATOM      6  F   UNL     1       1.103   7.838  21.469  0.00  0.00    +0.000 F 
ATOM      7  C   UNL     1       2.416   6.944  19.753  0.00  0.00    +0.000 A 
ENDROOT
BRANCH   1  10
ATOM      8  C   UNL     1       5.849   4.852  17.589  0.00  0.00    +0.000 C 
ATOM      9  C   UNL     1       5.327   6.250  17.863  0.00  0.00    +0.000 C 
ATOM     10  N   UNL     1       3.919   6.042  18.037  0.00  0.00    +0.000 N 
ATOM     11  C   UNL     1       3.567   4.787  17.562  0.00  0.00    +0.000 C 
ATOM     12  O   UNL     1       2.456   4.300  17.445  0.00  0.00    +0.000 OA
ATOM     13  O   UNL     1       4.693   4.117  17.154  0.00  0.00    +0.000 OA
BRANCH   8  14
ATOM     14  C   UNL     1       6.919   4.817  16.495  0.00  0.00    +0.000 C 
BRANCH  14  18
ATOM     15  C   UNL     1       6.282   3.726  12.923  0.00  0.00    +0.000 C 
ATOM     16  C   UNL     1       6.888   4.527  14.042  0.00  0.00    +0.000 C 
ATOM     17  O   UNL     1       7.671   5.452  13.853  0.00  0.00    +0.000 OA
ATOM     18  N   UNL     1       6.455   4.149  15.290  0.00  0.00    +0.000 N 
ATOM     19  H   UNL     1       6.012   3.243  15.395  0.00  0.00    +0.000 HD
ENDBRANCH  14  18
ENDBRANCH   8  14
ENDBRANCH   1  10
BRANCH   4  20
ATOM     20  N   UNL     1       0.439  10.123  19.881  0.00  0.00    +0.000 N 
ATOM     21  C   UNL     1       0.840  11.075  20.929  0.00  0.00    +0.000 C 
ATOM     22  C   UNL     1       0.665  12.523  20.441  0.00  0.00    +0.000 C 
ATOM     23  N   UNL     1      -0.729  12.733  19.994  0.00  0.00    +0.000 N 
ATOM     24  C   UNL     1      -0.986  11.858  18.830  0.00  0.00    +0.000 C 
ATOM     25  C   UNL     1      -0.872  10.380  19.261  0.00  0.00    +0.000 C 
BRANCH  23  26
ATOM     26  N   UNL     1      -1.185  14.009  20.027  0.00  0.00    +0.000 NA
ATOM     27  C   UNL     1      -2.261  14.142  20.741  0.00  0.00    +0.000 C 
BRANCH  27  28
ATOM     28  C   UNL     1      -2.734  15.441  21.124  0.00  0.00    +0.000 A 
ATOM     29  C   UNL     1      -2.403  16.711  20.685  0.00  0.00    +0.000 A 
ATOM     30  C   UNL     1      -3.072  17.628  21.533  0.00  0.00    +0.000 A 
ATOM     31  C   UNL     1      -3.779  16.852  22.420  0.00  0.00    +0.000 A 
ATOM     32  O   UNL     1      -3.597  15.526  22.184  0.00  0.00    +0.000 OA
BRANCH  31  33
ATOM     33  N   UNL     1      -4.613  17.198  23.529  0.00  0.00    +0.000 N 
ATOM     34  O   UNL     1      -5.194  18.289  23.458  0.00  0.00    +0.000 OA
ATOM     35  O   UNL     1      -4.690  16.395  24.468  0.00  0.00    +0.000 OA
ENDBRANCH  31  33
ENDBRANCH  27  28
ENDBRANCH  23  26
ENDBRANCH   4  20
TORSDOF 7
ENDMDL
MODEL 9
REMARK VINA RESULT:      -8.0      2.778      3.602
REMARK  Name = 
REMARK  8 active torsions:
REMARK  status: ('A' for Active; 'I' for Inactive)
REMARK    1  A    between atoms: C_1  and  C_2
REMARK    2  A    between atoms: N_4  and  C_5
REMARK    3  A    between atoms: C_5  and  C_6
REMARK    4  A    between atoms: N_8  and  C_9
REMARK    5  A    between atoms: C_12  and  N_13
REMARK    6  A    between atoms: N_16  and  N_17
REMARK    7  A    between atoms: C_18  and  C_19
REMARK    8  A    between atoms: C_22  and  N_23
REMARK                            x       y       z     vdW  Elec       q    Type
REMARK                         _______ _______ _______ _____ _____    ______ ____
ROOT
ATOM      1  C   UNL     1       2.539   7.299  18.754  0.00  0.00    +0.000 A 
ATOM      2  C   UNL     1       2.421   8.275  17.763  0.00  0.00    +0.000 A 
ATOM      3  C   UNL     1       1.732   9.473  17.997  0.00  0.00    +0.000 A 
ATOM      4  C   UNL     1       1.145   9.765  19.234  0.00  0.00    +0.000 A 
ATOM      5  C   UNL     1       1.262   8.764  20.213  0.00  0.00    +0.000 A 
ATOM      6  F   UNL     1       0.786   8.965  21.454  0.00  0.00    +0.000 F 
ATOM      7  C   UNL     1       1.927   7.550  19.982  0.00  0.00    +0.000 A 
ENDROOT
BRANCH   1  10
ATOM      8  C   UNL     1       4.899   4.476  18.529  0.00  0.00    +0.000 C 
ATOM      9  C   UNL     1       4.674   5.971  18.658  0.00  0.00    +0.000 C 
ATOM     10  N   UNL     1       3.253   6.098  18.517  0.00  0.00    +0.000 N 
ATOM     11  C   UNL     1       2.726   4.925  17.994  0.00  0.00    +0.000 C 
ATOM     12  O   UNL     1       1.583   4.695  17.640  0.00  0.00    +0.000 OA
ATOM     13  O   UNL     1       3.723   3.993  17.858  0.00  0.00    +0.000 OA
BRANCH   8  14
ATOM     14  C   UNL     1       6.140   4.127  17.702  0.00  0.00    +0.000 C 
BRANCH  14  18
ATOM     15  C   UNL     1       6.098   3.902  13.920  0.00  0.00    +0.000 C 
ATOM     16  C   UNL     1       6.608   4.284  15.281  0.00  0.00    +0.000 C 
ATOM     17  O   UNL     1       7.622   4.953  15.450  0.00  0.00    +0.000 OA
ATOM     18  N   UNL     1       5.815   3.844  16.313  0.00  0.00    +0.000 N 
ATOM     19  H   UNL     1       5.145   3.105  16.128  0.00  0.00    +0.000 HD
ENDBRANCH  14  18
ENDBRANCH   8  14
ENDBRANCH   1  10
BRANCH   4  20
ATOM     20  N   UNL     1       0.513  10.976  19.440  0.00  0.00    +0.000 N 
ATOM     21  C   UNL     1      -0.800  11.301  18.858  0.00  0.00    +0.000 C 
ATOM     22  C   UNL     1      -1.773  11.777  19.950  0.00  0.00    +0.000 C 
ATOM     23  N   UNL     1      -1.183  12.919  20.680  0.00  0.00    +0.000 N 
ATOM     24  C   UNL     1       0.038  12.455  21.373  0.00  0.00    +0.000 C 
ATOM     25  C   UNL     1       1.083  12.003  20.329  0.00  0.00    +0.000 C 
BRANCH  23  26
ATOM     26  N   UNL     1      -2.056  13.761  21.285  0.00  0.00    +0.000 NA
ATOM     27  C   UNL     1      -2.090  14.936  20.734  0.00  0.00    +0.000 C 
BRANCH  27  28
ATOM     28  C   UNL     1      -3.135  15.866  21.047  0.00  0.00    +0.000 A 
ATOM     29  C   UNL     1      -3.491  17.079  20.484  0.00  0.00    +0.000 A 
ATOM     30  C   UNL     1      -4.506  17.633  21.304  0.00  0.00    +0.000 A 
ATOM     31  C   UNL     1      -4.711  16.709  22.301  0.00  0.00    +0.000 A 
ATOM     32  O   UNL     1      -3.900  15.627  22.159  0.00  0.00    +0.000 OA
BRANCH  31  33
ATOM     33  N   UNL     1      -5.577  16.715  23.438  0.00  0.00    +0.000 N 
ATOM     34  O   UNL     1      -5.380  15.830  24.282  0.00  0.00    +0.000 OA
ATOM     35  O   UNL     1      -6.452  17.589  23.494  0.00  0.00    +0.000 OA
ENDBRANCH  31  33
ENDBRANCH  27  28
ENDBRANCH  23  26
ENDBRANCH   4  20
TORSDOF 7
ENDMDL
