MODEL 1
REMARK VINA RESULT:      -8.1      0.000      0.000
REMARK  Name = 
REMARK  5 active torsions:
REMARK  status: ('A' for Active; 'I' for Inactive)
REMARK    1  A    between atoms: C_1  and  N_2
REMARK    2  A    between atoms: N_2  and  C_3
REMARK    3  A    between atoms: N_2  and  C_4
REMARK    4  A    between atoms: C_4  and  C_5
REMARK    5  A    between atoms: C_5  and  N_6
REMARK                            x       y       z     vdW  Elec       q    Type
REMARK                         _______ _______ _______ _____ _____    ______ ____
ROOT
ATOM      1  N   UNL     1       2.960   7.036  17.946  0.00  0.00    +0.000 N 
ATOM      2  C   UNL     1       2.454   8.344  18.065  0.00  0.00    +0.000 A 
ATOM      3  O   UNL     1       2.642   9.211  17.213  0.00  0.00    +0.000 OA
ATOM      4  C   UNL     1       1.694   8.725  19.272  0.00  0.00    +0.000 A 
ATOM      5  C   UNL     1       1.260  10.063  19.405  0.00  0.00    +0.000 A 
ATOM      6  C   UNL     1       0.575  10.417  20.541  0.00  0.00    +0.000 A 
ATOM      7  C   UNL     1       0.309   9.499  21.517  0.00  0.00    +0.000 A 
ATOM      8  C   UNL     1       0.722   8.188  21.409  0.00  0.00    +0.000 A 
ATOM      9  C   UNL     1       1.452   7.766  20.270  0.00  0.00    +0.000 A 
ATOM     10  C   UNL     1       1.954   6.386  20.093  0.00  0.00    +0.000 A 
ATOM     11  C   UNL     1       1.779   5.443  21.124  0.00  0.00    +0.000 A 
ATOM     12  C   UNL     1       2.252   4.146  21.024  0.00  0.00    +0.000 A 
ATOM     13  C   UNL     1       2.842   3.709  19.849  0.00  0.00    +0.000 A 
ATOM     14  C   UNL     1       3.276   2.380  19.781  0.00  0.00    +0.000 A 
ATOM     15  N   UNL     1       3.786   1.795  18.684  0.00  0.00    +0.000 NA
ATOM     16  C   UNL     1       3.787   2.550  17.580  0.00  0.00    +0.000 A 
ATOM     17  C   UNL     1       3.358   3.874  17.549  0.00  0.00    +0.000 A 
ATOM     18  C   UNL     1       2.969   4.567  18.730  0.00  0.00    +0.000 A 
ATOM     19  C   UNL     1       2.628   5.982  18.899  0.00  0.00    +0.000 A 
ATOM     20  O   UNL     1      -0.378  10.028  22.563  0.00  0.00    +0.000 OA
ATOM     21  C   UNL     1      -0.503  11.402  22.137  0.00  0.00    +0.000 C 
ATOM     22  O   UNL     1       0.096  11.652  20.849  0.00  0.00    +0.000 OA
ENDROOT
BRANCH   1  23
ATOM     23  C   UNL     1       3.923   6.877  16.843  0.00  0.00    +0.000 C 
BRANCH  23  24
ATOM     24  C   UNL     1       5.419   6.896  17.256  0.00  0.00    +0.000 C 
BRANCH  24  26
ATOM     25  C   UNL     1       7.047   5.125  17.066  0.00  0.00    +0.000 C 
ATOM     26  N   UNL     1       6.322   6.166  16.329  0.00  0.00    +0.000 NA
ATOM     27  C   UNL     1       5.632   5.555  15.192  0.00  0.00    +0.000 C 
ENDBRANCH  24  26
ENDBRANCH  23  24
ENDBRANCH   1  23
TORSDOF 3
ENDMDL
MODEL 2
REMARK VINA RESULT:      -7.4      3.375      7.487
REMARK  Name = 
REMARK  5 active torsions:
REMARK  status: ('A' for Active; 'I' for Inactive)
REMARK    1  A    between atoms: C_1  and  N_2
REMARK    2  A    between atoms: N_2  and  C_3
REMARK    3  A    between atoms: N_2  and  C_4
REMARK    4  A    between atoms: C_4  and  C_5
REMARK    5  A    between atoms: C_5  and  N_6
REMARK                            x       y       z     vdW  Elec       q    Type
REMARK                         _______ _______ _______ _____ _____    ______ ____
ROOT
ATOM      1  N   UNL     1       0.604  10.724  19.161  0.00  0.00    +0.000 N 
ATOM      2  C   UNL     1       1.386   9.791  18.457  0.00  0.00    +0.000 A 
ATOM      3  O   UNL     1       1.783   9.985  17.309  0.00  0.00    +0.000 OA
ATOM      4  C   UNL     1       1.728   8.500  19.088  0.00  0.00    +0.000 A 
ATOM      5  C   UNL     1       2.450   7.548  18.335  0.00  0.00    +0.000 A 
ATOM      6  C   UNL     1       2.743   6.340  18.919  0.00  0.00    +0.000 A 
ATOM      7  C   UNL     1       2.355   6.065  20.199  0.00  0.00    +0.000 A 
ATOM      8  C   UNL     1       1.650   6.979  20.954  0.00  0.00    +0.000 A 
ATOM      9  C   UNL     1       1.298   8.235  20.399  0.00  0.00    +0.000 A 
ATOM     10  C   UNL     1       0.519   9.257  21.132  0.00  0.00    +0.000 A 
ATOM     11  C   UNL     1       0.024   8.966  22.418  0.00  0.00    +0.000 A 
ATOM     12  C   UNL     1      -0.734   9.872  23.138  0.00  0.00    +0.000 A 
ATOM     13  C   UNL     1      -0.953  11.147  22.640  0.00  0.00    +0.000 A 
ATOM     14  C   UNL     1      -1.697  12.042  23.418  0.00  0.00    +0.000 A 
ATOM     15  N   UNL     1      -1.916  13.331  23.106  0.00  0.00    +0.000 NA
ATOM     16  C   UNL     1      -1.294  13.767  22.005  0.00  0.00    +0.000 A 
ATOM     17  C   UNL     1      -0.520  12.954  21.181  0.00  0.00    +0.000 A 
ATOM     18  C   UNL     1      -0.407  11.552  21.398  0.00  0.00    +0.000 A 
ATOM     19  C   UNL     1       0.242  10.538  20.563  0.00  0.00    +0.000 A 
ATOM     20  O   UNL     1       2.734   4.826  20.609  0.00  0.00    +0.000 OA
ATOM     21  C   UNL     1       3.398   4.341  19.422  0.00  0.00    +0.000 C 
ATOM     22  O   UNL     1       3.412   5.303  18.347  0.00  0.00    +0.000 OA
ENDROOT
BRANCH   1  23
ATOM     23  C   UNL     1       0.109  11.828  18.322  0.00  0.00    +0.000 C 
BRANCH  23  24
ATOM     24  C   UNL     1      -1.415  11.811  18.025  0.00  0.00    +0.000 C 
BRANCH  24  26
ATOM     25  C   UNL     1      -2.708   9.774  17.976  0.00  0.00    +0.000 C 
ATOM     26  N   UNL     1      -1.863  10.673  17.181  0.00  0.00    +0.000 NA
ATOM     27  C   UNL     1      -2.594  11.081  15.981  0.00  0.00    +0.000 C 
ENDBRANCH  24  26
ENDBRANCH  23  24
ENDBRANCH   1  23
TORSDOF 3
ENDMDL
MODEL 3
REMARK VINA RESULT:      -7.0      1.838      4.132
REMARK  Name = 
REMARK  5 active torsions:
REMARK  status: ('A' for Active; 'I' for Inactive)
REMARK    1  A    between atoms: C_1  and  N_2
REMARK    2  A    between atoms: N_2  and  C_3
REMARK    3  A    between atoms: N_2  and  C_4
REMARK    4  A    between atoms: C_4  and  C_5
REMARK    5  A    between atoms: C_5  and  N_6
REMARK                            x       y       z     vdW  Elec       q    Type
REMARK                         _______ _______ _______ _____ _____    ______ ____
ROOT
ATOM      1  N   UNL     1       1.894   6.652  20.357  0.00  0.00    +0.000 N 
ATOM      2  C   UNL     1       1.068   7.658  20.891  0.00  0.00    +0.000 A 
ATOM      3  O   UNL     1       0.431   7.514  21.933  0.00  0.00    +0.000 OA
ATOM      4  C   UNL     1       0.916   8.937  20.169  0.00  0.00    +0.000 A 
ATOM      5  C   UNL     1       0.024   9.904  20.684  0.00  0.00    +0.000 A 
ATOM      6  C   UNL     1      -0.132  11.081  19.993  0.00  0.00    +0.000 A 
ATOM      7  C   UNL     1       0.564  11.320  18.842  0.00  0.00    +0.000 A 
ATOM      8  C   UNL     1       1.440  10.391  18.321  0.00  0.00    +0.000 A 
ATOM      9  C   UNL     1       1.627   9.148  18.975  0.00  0.00    +0.000 A 
ATOM     10  C   UNL     1       2.527   8.090  18.465  0.00  0.00    +0.000 A 
ATOM     11  C   UNL     1       3.183   8.267  17.232  0.00  0.00    +0.000 A 
ATOM     12  C   UNL     1       4.013   7.300  16.694  0.00  0.00    +0.000 A 
ATOM     13  C   UNL     1       4.296   6.148  17.410  0.00  0.00    +0.000 A 
ATOM     14  C   UNL     1       5.167   5.212  16.841  0.00  0.00    +0.000 A 
ATOM     15  N   UNL     1       5.598   4.095  17.451  0.00  0.00    +0.000 NA
ATOM     16  C   UNL     1       5.204   3.947  18.721  0.00  0.00    +0.000 A 
ATOM     17  C   UNL     1       4.354   4.836  19.374  0.00  0.00    +0.000 A 
ATOM     18  C   UNL     1       3.753   5.937  18.701  0.00  0.00    +0.000 A 
ATOM     19  C   UNL     1       2.741   6.876  19.189  0.00  0.00    +0.000 A 
ATOM     20  O   UNL     1       0.284  12.534  18.301  0.00  0.00    +0.000 OA
ATOM     21  C   UNL     1      -0.688  13.033  19.245  0.00  0.00    +0.000 C 
ATOM     22  O   UNL     1      -0.951  12.114  20.326  0.00  0.00    +0.000 OA
ENDROOT
BRANCH   1  23
ATOM     23  C   UNL     1       1.734   5.347  21.020  0.00  0.00    +0.000 C 
BRANCH  23  24
ATOM     24  C   UNL     1       0.851   4.317  20.266  0.00  0.00    +0.000 C 
BRANCH  24  26
ATOM     25  C   UNL     1       1.641   2.236  19.335  0.00  0.00    +0.000 C 
ATOM     26  N   UNL     1       1.175   2.898  20.559  0.00  0.00    +0.000 NA
ATOM     27  C   UNL     1       2.180   2.726  21.608  0.00  0.00    +0.000 C 
ENDBRANCH  24  26
ENDBRANCH  23  24
ENDBRANCH   1  23
TORSDOF 3
ENDMDL
MODEL 4
REMARK VINA RESULT:      -6.9      1.757      4.265
REMARK  Name = 
REMARK  5 active torsions:
REMARK  status: ('A' for Active; 'I' for Inactive)
REMARK    1  A    between atoms: C_1  and  N_2
REMARK    2  A    between atoms: N_2  and  C_3
REMARK    3  A    between atoms: N_2  and  C_4
REMARK    4  A    between atoms: C_4  and  C_5
REMARK    5  A    between atoms: C_5  and  N_6
REMARK                            x       y       z     vdW  Elec       q    Type
REMARK                         _______ _______ _______ _____ _____    ______ ____
ROOT
ATOM      1  N   UNL     1       3.626   5.168  19.368  0.00  0.00    +0.000 N 
ATOM      2  C   UNL     1       2.712   5.744  20.270  0.00  0.00    +0.000 A 
ATOM      3  O   UNL     1       2.360   5.186  21.309  0.00  0.00    +0.000 OA
ATOM      4  C   UNL     1       2.109   7.055  19.961  0.00  0.00    +0.000 A 
ATOM      5  C   UNL     1       1.138   7.579  20.843  0.00  0.00    +0.000 A 
ATOM      6  C   UNL     1       0.562   8.788  20.536  0.00  0.00    +0.000 A 
ATOM      7  C   UNL     1       0.923   9.475  19.412  0.00  0.00    +0.000 A 
ATOM      8  C   UNL     1       1.868   8.983  18.537  0.00  0.00    +0.000 A 
ATOM      9  C   UNL     1       2.483   7.731  18.787  0.00  0.00    +0.000 A 
ATOM     10  C   UNL     1       3.484   7.123  17.883  0.00  0.00    +0.000 A 
ATOM     11  C   UNL     1       3.805   7.761  16.669  0.00  0.00    +0.000 A 
ATOM     12  C   UNL     1       4.712   7.224  15.773  0.00  0.00    +0.000 A 
ATOM     13  C   UNL     1       5.408   6.069  16.094  0.00  0.00    +0.000 A 
ATOM     14  C   UNL     1       6.341   5.580  15.172  0.00  0.00    +0.000 A 
ATOM     15  N   UNL     1       7.146   4.525  15.381  0.00  0.00    +0.000 NA
ATOM     16  C   UNL     1       7.074   3.982  16.601  0.00  0.00    +0.000 A 
ATOM     17  C   UNL     1       6.190   4.414  17.587  0.00  0.00    +0.000 A 
ATOM     18  C   UNL     1       5.214   5.419  17.337  0.00  0.00    +0.000 A 
ATOM     19  C   UNL     1       4.131   5.889  18.203  0.00  0.00    +0.000 A 
ATOM     20  O   UNL     1       0.252  10.648  19.275  0.00  0.00    +0.000 OA
ATOM     21  C   UNL     1      -0.593  10.615  20.445  0.00  0.00    +0.000 C 
ATOM     22  O   UNL     1      -0.394   9.436  21.254  0.00  0.00    +0.000 OA
ENDROOT
BRANCH   1  23
ATOM     23  C   UNL     1       3.928   3.756  19.657  0.00  0.00    +0.000 C 
BRANCH  23  24
ATOM     24  C   UNL     1       3.245   2.722  18.722  0.00  0.00    +0.000 C 
BRANCH  24  26
ATOM     25  C   UNL     1       2.076   2.162  20.757  0.00  0.00    +0.000 C 
ATOM     26  N   UNL     1       2.030   2.087  19.292  0.00  0.00    +0.000 NA
ATOM     27  C   UNL     1       0.778   2.680  18.822  0.00  0.00    +0.000 C 
ENDBRANCH  24  26
ENDBRANCH  23  24
ENDBRANCH   1  23
TORSDOF 3
ENDMDL
MODEL 5
REMARK VINA RESULT:      -6.8      3.440      7.451
REMARK  Name = 
REMARK  5 active torsions:
REMARK  status: ('A' for Active; 'I' for Inactive)
REMARK    1  A    between atoms: C_1  and  N_2
REMARK    2  A    between atoms: N_2  and  C_3
REMARK    3  A    between atoms: N_2  and  C_4
REMARK    4  A    between atoms: C_4  and  C_5
REMARK    5  A    between atoms: C_5  and  N_6
REMARK                            x       y       z     vdW  Elec       q    Type
REMARK                         _______ _______ _______ _____ _____    ______ ____
ROOT
ATOM      1  N   UNL     1       0.715  11.127  19.293  0.00  0.00    +0.000 N 
ATOM      2  C   UNL     1       1.510  10.243  18.539  0.00  0.00    +0.000 A 
ATOM      3  O   UNL     1       1.971  10.537  17.437  0.00  0.00    +0.000 OA
ATOM      4  C   UNL     1       1.786   8.888  19.055  0.00  0.00    +0.000 A 
ATOM      5  C   UNL     1       2.522   7.992  18.249  0.00  0.00    +0.000 A 
ATOM      6  C   UNL     1       2.754   6.725  18.724  0.00  0.00    +0.000 A 
ATOM      7  C   UNL     1       2.293   6.338  19.950  0.00  0.00    +0.000 A 
ATOM      8  C   UNL     1       1.572   7.195  20.756  0.00  0.00    +0.000 A 
ATOM      9  C   UNL     1       1.282   8.509  20.311  0.00  0.00    +0.000 A 
ATOM     10  C   UNL     1       0.491   9.477  21.102  0.00  0.00    +0.000 A 
ATOM     11  C   UNL     1      -0.078   9.077  22.327  0.00  0.00    +0.000 A 
ATOM     12  C   UNL     1      -0.850   9.931  23.094  0.00  0.00    +0.000 A 
ATOM     13  C   UNL     1      -1.010  11.255  22.715  0.00  0.00    +0.000 A 
ATOM     14  C   UNL     1      -1.771  12.092  23.539  0.00  0.00    +0.000 A 
ATOM     15  N   UNL     1      -1.942  13.410  23.346  0.00  0.00    +0.000 NA
ATOM     16  C   UNL     1      -1.253  13.933  22.325  0.00  0.00    +0.000 A 
ATOM     17  C   UNL     1      -0.457  13.182  21.465  0.00  0.00    +0.000 A 
ATOM     18  C   UNL     1      -0.390  11.762  21.548  0.00  0.00    +0.000 A 
ATOM     19  C   UNL     1       0.276  10.816  20.650  0.00  0.00    +0.000 A 
ATOM     20  O   UNL     1       2.619   5.054  20.254  0.00  0.00    +0.000 OA
ATOM     21  C   UNL     1       3.332   4.668  19.060  0.00  0.00    +0.000 C 
ATOM     22  O   UNL     1       3.426   5.729  18.087  0.00  0.00    +0.000 OA
ENDROOT
BRANCH   1  23
ATOM     23  C   UNL     1       0.292  12.322  18.543  0.00  0.00    +0.000 C 
BRANCH  23  24
ATOM     24  C   UNL     1       1.164  13.587  18.757  0.00  0.00    +0.000 C 
BRANCH  24  26
ATOM     25  C   UNL     1       3.497  13.929  18.245  0.00  0.00    +0.000 C 
ATOM     26  N   UNL     1       2.559  13.307  19.186  0.00  0.00    +0.000 NA
ATOM     27  C   UNL     1       2.863  13.769  20.541  0.00  0.00    +0.000 C 
ENDBRANCH  24  26
ENDBRANCH  23  24
ENDBRANCH   1  23
TORSDOF 3
ENDMDL
MODEL 6
REMARK VINA RESULT:      -6.8      2.817      7.019
REMARK  Name = 
REMARK  5 active torsions:
REMARK  status: ('A' for Active; 'I' for Inactive)
REMARK    1  A    between atoms: C_1  and  N_2
REMARK    2  A    between atoms: N_2  and  C_3
REMARK    3  A    between atoms: N_2  and  C_4
REMARK    4  A    between atoms: C_4  and  C_5
REMARK    5  A    between atoms: C_5  and  N_6
REMARK                            x       y       z     vdW  Elec       q    Type
REMARK                         _______ _______ _______ _____ _____    ______ ____
ROOT
ATOM      1  N   UNL     1       4.235   5.863  18.242  0.00  0.00    +0.000 N 
ATOM      2  C   UNL     1       5.158   6.315  17.280  0.00  0.00    +0.000 A 
ATOM      3  O   UNL     1       5.671   7.433  17.322  0.00  0.00    +0.000 OA
ATOM      4  C   UNL     1       5.513   5.443  16.143  0.00  0.00    +0.000 A 
ATOM      5  C   UNL     1       6.383   5.946  15.149  0.00  0.00    +0.000 A 
ATOM      6  C   UNL     1       6.689   5.138  14.081  0.00  0.00    +0.000 A 
ATOM      7  C   UNL     1       6.176   3.876  13.982  0.00  0.00    +0.000 A 
ATOM      8  C   UNL     1       5.325   3.364  14.940  0.00  0.00    +0.000 A 
ATOM      9  C   UNL     1       4.954   4.157  16.055  0.00  0.00    +0.000 A 
ATOM     10  C   UNL     1       4.025   3.692  17.108  0.00  0.00    +0.000 A 
ATOM     11  C   UNL     1       3.406   2.433  16.985  0.00  0.00    +0.000 A 
ATOM     12  C   UNL     1       2.508   1.959  17.925  0.00  0.00    +0.000 A 
ATOM     13  C   UNL     1       2.260   2.685  19.080  0.00  0.00    +0.000 A 
ATOM     14  C   UNL     1       1.370   2.151  20.019  0.00  0.00    +0.000 A 
ATOM     15  N   UNL     1       1.099   2.698  21.216  0.00  0.00    +0.000 NA
ATOM     16  C   UNL     1       1.813   3.787  21.523  0.00  0.00    +0.000 A 
ATOM     17  C   UNL     1       2.732   4.377  20.660  0.00  0.00    +0.000 A 
ATOM     18  C   UNL     1       2.917   3.915  19.326  0.00  0.00    +0.000 A 
ATOM     19  C   UNL     1       3.728   4.495  18.252  0.00  0.00    +0.000 A 
ATOM     20  O   UNL     1       6.589   3.226  12.864  0.00  0.00    +0.000 OA
ATOM     21  C   UNL     1       7.419   4.238  12.255  0.00  0.00    +0.000 C 
ATOM     22  O   UNL     1       7.491   5.454  13.029  0.00  0.00    +0.000 OA
ENDROOT
BRANCH   1  23
ATOM     23  C   UNL     1       3.765   6.924  19.149  0.00  0.00    +0.000 C 
BRANCH  23  24
ATOM     24  C   UNL     1       2.390   7.548  18.790  0.00  0.00    +0.000 C 
BRANCH  24  26
ATOM     25  C   UNL     1       0.984   9.485  19.094  0.00  0.00    +0.000 C 
ATOM     26  N   UNL     1       1.900   8.556  19.766  0.00  0.00    +0.000 NA
ATOM     27  C   UNL     1       1.226   7.975  20.927  0.00  0.00    +0.000 C 
ENDBRANCH  24  26
ENDBRANCH  23  24
ENDBRANCH   1  23
TORSDOF 3
ENDMDL
MODEL 7
REMARK VINA RESULT:      -6.7      1.126      1.343
REMARK  Name = 
REMARK  5 active torsions:
REMARK  status: ('A' for Active; 'I' for Inactive)
REMARK    1  A    between atoms: C_1  and  N_2
REMARK    2  A    between atoms: N_2  and  C_3
REMARK    3  A    between atoms: N_2  and  C_4
REMARK    4  A    between atoms: C_4  and  C_5
REMARK    5  A    between atoms: C_5  and  N_6
REMARK                            x       y       z     vdW  Elec       q    Type
REMARK                         _______ _______ _______ _____ _____    ______ ____
ROOT
ATOM      1  N   UNL     1       3.516   6.237  17.582  0.00  0.00    +0.000 N 
ATOM      2  C   UNL     1       3.152   7.590  17.454  0.00  0.00    +0.000 A 
ATOM      3  O   UNL     1       3.487   8.282  16.493  0.00  0.00    +0.000 OA
ATOM      4  C   UNL     1       2.366   8.239  18.521  0.00  0.00    +0.000 A 
ATOM      5  C   UNL     1       2.076   9.617  18.407  0.00  0.00    +0.000 A 
ATOM      6  C   UNL     1       1.366  10.220  19.416  0.00  0.00    +0.000 A 
ATOM      7  C   UNL     1       0.939   9.508  20.500  0.00  0.00    +0.000 A 
ATOM      8  C   UNL     1       1.210   8.162  20.633  0.00  0.00    +0.000 A 
ATOM      9  C   UNL     1       1.958   7.488  19.636  0.00  0.00    +0.000 A 
ATOM     10  C   UNL     1       2.314   6.054  19.719  0.00  0.00    +0.000 A 
ATOM     11  C   UNL     1       1.971   5.316  20.869  0.00  0.00    +0.000 A 
ATOM     12  C   UNL     1       2.303   3.981  21.013  0.00  0.00    +0.000 A 
ATOM     13  C   UNL     1       2.912   3.298  19.971  0.00  0.00    +0.000 A 
ATOM     14  C   UNL     1       3.199   1.940  20.148  0.00  0.00    +0.000 A 
ATOM     15  N   UNL     1       3.708   1.134  19.201  0.00  0.00    +0.000 NA
ATOM     16  C   UNL     1       3.861   1.692  17.995  0.00  0.00    +0.000 A 
ATOM     17  C   UNL     1       3.585   3.029  17.723  0.00  0.00    +0.000 A 
ATOM     18  C   UNL     1       3.202   3.943  18.744  0.00  0.00    +0.000 A 
ATOM     19  C   UNL     1       3.011   5.393  18.661  0.00  0.00    +0.000 A 
ATOM     20  O   UNL     1       0.252  10.268  21.392  0.00  0.00    +0.000 OA
ATOM     21  C   UNL     1       0.307  11.558  20.746  0.00  0.00    +0.000 C 
ATOM     22  O   UNL     1       1.009  11.531  19.485  0.00  0.00    +0.000 OA
ENDROOT
BRANCH   1  23
ATOM     23  C   UNL     1       4.522   5.803  16.598  0.00  0.00    +0.000 C 
BRANCH  23  24
ATOM     24  C   UNL     1       5.890   5.368  17.189  0.00  0.00    +0.000 C 
BRANCH  24  26
ATOM     25  C   UNL     1       7.115   5.587  19.256  0.00  0.00    +0.000 C 
ATOM     26  N   UNL     1       6.470   6.326  18.165  0.00  0.00    +0.000 NA
ATOM     27  C   UNL     1       7.438   7.253  17.577  0.00  0.00    +0.000 C 
ENDBRANCH  24  26
ENDBRANCH  23  24
ENDBRANCH   1  23
TORSDOF 3
ENDMDL
MODEL 8
REMARK VINA RESULT:      -6.7      3.323      7.463
REMARK  Name = 
REMARK  5 active torsions:
REMARK  status: ('A' for Active; 'I' for Inactive)
REMARK    1  A    between atoms: C_1  and  N_2
REMARK    2  A    between atoms: N_2  and  C_3
REMARK    3  A    between atoms: N_2  and  C_4
REMARK    4  A    between atoms: C_4  and  C_5
REMARK    5  A    between atoms: C_5  and  N_6
REMARK                            x       y       z     vdW  Elec       q    Type
REMARK                         _______ _______ _______ _____ _____    ______ ____
ROOT
ATOM      1  N   UNL     1       1.171  10.726  19.270  0.00  0.00    +0.000 N 
ATOM      2  C   UNL     1       1.934   9.823  18.506  0.00  0.00    +0.000 A 
ATOM      3  O   UNL     1       2.487  10.142  17.454  0.00  0.00    +0.000 OA
ATOM      4  C   UNL     1       2.061   8.420  18.947  0.00  0.00    +0.000 A 
ATOM      5  C   UNL     1       2.769   7.514  18.126  0.00  0.00    +0.000 A 
ATOM      6  C   UNL     1       2.862   6.204  18.529  0.00  0.00    +0.000 A 
ATOM      7  C   UNL     1       2.295   5.786  19.699  0.00  0.00    +0.000 A 
ATOM      8  C   UNL     1       1.599   6.652  20.516  0.00  0.00    +0.000 A 
ATOM      9  C   UNL     1       1.449   8.012  20.144  0.00  0.00    +0.000 A 
ATOM     10  C   UNL     1       0.695   8.996  20.950  0.00  0.00    +0.000 A 
ATOM     11  C   UNL     1       0.019   8.574  22.111  0.00  0.00    +0.000 A 
ATOM     12  C   UNL     1      -0.725   9.444  22.888  0.00  0.00    +0.000 A 
ATOM     13  C   UNL     1      -0.749  10.798  22.589  0.00  0.00    +0.000 A 
ATOM     14  C   UNL     1      -1.487  11.647  23.421  0.00  0.00    +0.000 A 
ATOM     15  N   UNL     1      -1.533  12.985  23.306  0.00  0.00    +0.000 NA
ATOM     16  C   UNL     1      -0.739  13.506  22.363  0.00  0.00    +0.000 A 
ATOM     17  C   UNL     1       0.042  12.741  21.502  0.00  0.00    +0.000 A 
ATOM     18  C   UNL     1      -0.016  11.318  21.495  0.00  0.00    +0.000 A 
ATOM     19  C   UNL     1       0.623  10.373  20.576  0.00  0.00    +0.000 A 
ATOM     20  O   UNL     1       2.491   4.462  19.935  0.00  0.00    +0.000 OA
ATOM     21  C   UNL     1       3.243   4.087  18.761  0.00  0.00    +0.000 C 
ATOM     22  O   UNL     1       3.487   5.194  17.867  0.00  0.00    +0.000 OA
ENDROOT
BRANCH   1  23
ATOM     23  C   UNL     1       0.898  11.997  18.578  0.00  0.00    +0.000 C 
BRANCH  23  24
ATOM     24  C   UNL     1       1.941  13.123  18.814  0.00  0.00    +0.000 C 
BRANCH  24  26
ATOM     25  C   UNL     1       0.454  15.023  18.854  0.00  0.00    +0.000 C 
ATOM     26  N   UNL     1       1.602  14.418  18.170  0.00  0.00    +0.000 NA
ATOM     27  C   UNL     1       2.708  15.376  18.154  0.00  0.00    +0.000 C 
ENDBRANCH  24  26
ENDBRANCH  23  24
ENDBRANCH   1  23
TORSDOF 3
ENDMDL
MODEL 9
REMARK VINA RESULT:      -6.6      3.119      7.322
REMARK  Name = 
REMARK  5 active torsions:
REMARK  status: ('A' for Active; 'I' for Inactive)
REMARK    1  A    between atoms: C_1  and  N_2
REMARK    2  A    between atoms: N_2  and  C_3
REMARK    3  A    between atoms: N_2  and  C_4
REMARK    4  A    between atoms: C_4  and  C_5
REMARK    5  A    between atoms: C_5  and  N_6
REMARK                            x       y       z     vdW  Elec       q    Type
REMARK                         _______ _______ _______ _____ _____    ______ ____
ROOT
ATOM      1  N   UNL     1       1.162   9.923  19.076  0.00  0.00    +0.000 N 
ATOM      2  C   UNL     1       1.918   8.975  18.364  0.00  0.00    +0.000 A 
ATOM      3  O   UNL     1       2.361   9.187  17.235  0.00  0.00    +0.000 OA
ATOM      4  C   UNL     1       2.175   7.649  18.959  0.00  0.00    +0.000 A 
ATOM      5  C   UNL     1       2.872   6.686  18.195  0.00  0.00    +0.000 A 
ATOM      6  C   UNL     1       3.085   5.446  18.746  0.00  0.00    +0.000 A 
ATOM      7  C   UNL     1       2.644   5.149  20.003  0.00  0.00    +0.000 A 
ATOM      8  C   UNL     1       1.962   6.072  20.768  0.00  0.00    +0.000 A 
ATOM      9  C   UNL     1       1.691   7.362  20.247  0.00  0.00    +0.000 A 
ATOM     10  C   UNL     1       0.942   8.398  20.992  0.00  0.00    +0.000 A 
ATOM     11  C   UNL     1       0.392   8.090  22.251  0.00  0.00    +0.000 A 
ATOM     12  C   UNL     1      -0.342   9.009  22.979  0.00  0.00    +0.000 A 
ATOM     13  C   UNL     1      -0.481  10.310  22.520  0.00  0.00    +0.000 A 
ATOM     14  C   UNL     1      -1.203  11.215  23.305  0.00  0.00    +0.000 A 
ATOM     15  N   UNL     1      -1.348  12.523  23.032  0.00  0.00    +0.000 NA
ATOM     16  C   UNL     1      -0.670  12.963  21.966  0.00  0.00    +0.000 A 
ATOM     17  C   UNL     1       0.087  12.140  21.138  0.00  0.00    +0.000 A 
ATOM     18  C   UNL     1       0.124  10.727  21.310  0.00  0.00    +0.000 A 
ATOM     19  C   UNL     1       0.747   9.710  20.460  0.00  0.00    +0.000 A 
ATOM     20  O   UNL     1       2.947   3.879  20.381  0.00  0.00    +0.000 OA
ATOM     21  C   UNL     1       3.624   3.401  19.199  0.00  0.00    +0.000 C 
ATOM     22  O   UNL     1       3.719   4.396  18.158  0.00  0.00    +0.000 OA
ENDROOT
BRANCH   1  23
ATOM     23  C   UNL     1       0.749  11.079  18.261  0.00  0.00    +0.000 C 
BRANCH  23  24
ATOM     24  C   UNL     1      -0.687  11.007  17.679  0.00  0.00    +0.000 C 
BRANCH  24  26
ATOM     25  C   UNL     1      -2.541  12.037  18.830  0.00  0.00    +0.000 C 
ATOM     26  N   UNL     1      -1.479  12.253  17.840  0.00  0.00    +0.000 NA
ATOM     27  C   UNL     1      -0.681  13.412  18.240  0.00  0.00    +0.000 C 
ENDBRANCH  24  26
ENDBRANCH  23  24
ENDBRANCH   1  23
TORSDOF 3
ENDMDL
