MODEL 1
REMARK VINA RESULT:      -7.9      0.000      0.000
REMARK  Name = 
REMARK  4 active torsions:
REMARK  status: ('A' for Active; 'I' for Inactive)
REMARK    1  A    between atoms: C_1  and  N_2
REMARK    2  A    between atoms: N_2  and  C_3
REMARK    3  A    between atoms: N_2  and  C_4
REMARK    4  A    between atoms: C_4  and  C_5
REMARK                            x       y       z     vdW  Elec       q    Type
REMARK                         _______ _______ _______ _____ _____    ______ ____
ROOT
ATOM      1  C   UNL     1       6.715   4.465  14.872  0.00  0.00    +0.000 C 
ATOM      2  C   UNL     1       7.338   4.286  16.283  0.00  0.00    +0.000 C 
ATOM      3  C   UNL     1       6.869   5.236  17.415  0.00  0.00    +0.000 C 
ATOM      4  C   UNL     1       5.391   5.554  17.275  0.00  0.00    +0.000 C 
ATOM      5  C   UNL     1       5.089   6.080  15.873  0.00  0.00    +0.000 C 
ATOM      6  C   UNL     1       5.272   4.976  14.868  0.00  0.00    +0.000 C 
ATOM      7  O   UNL     1       4.839   6.490  18.183  0.00  0.00    +0.000 OA
ATOM      8  O   UNL     1       3.416   6.068  18.163  0.00  0.00    +0.000 OA
ATOM      9  C   UNL     1       3.548   4.649  18.227  0.00  0.00    +0.000 C 
ATOM     10  O   UNL     1       4.743   4.313  17.535  0.00  0.00    +0.000 OA
ATOM     11  C   UNL     1       3.636   4.286  19.722  0.00  0.00    +0.000 C 
ATOM     12  C   UNL     1       3.978   2.802  19.874  0.00  0.00    +0.000 C 
ATOM     13  C   UNL     1       2.886   1.951  19.206  0.00  0.00    +0.000 C 
ATOM     14  C   UNL     1       1.541   2.252  19.890  0.00  0.00    +0.000 C 
ATOM     15  C   UNL     1       1.170   3.737  19.713  0.00  0.00    +0.000 C 
ATOM     16  C   UNL     1       2.267   4.598  20.365  0.00  0.00    +0.000 C 
ATOM     17  C   UNL     1       1.081   4.074  18.213  0.00  0.00    +0.000 C 
ATOM     18  C   UNL     1       2.436   3.819  17.550  0.00  0.00    +0.000 C 
ATOM     19  C   UNL     1       2.780   2.312  17.710  0.00  0.00    +0.000 C 
ENDROOT
BRANCH   1  20
ATOM     20  C   UNL     1       7.554   5.193  13.789  0.00  0.00    +0.000 C 
BRANCH  20  22
ATOM     21  C   UNL     1       6.580   3.581  12.257  0.00  0.00    +0.000 C 
ATOM     22  N   UNL     1       7.636   4.570  12.462  0.00  0.00    +0.000 NA
ATOM     23  C   UNL     1       7.520   5.593  11.414  0.00  0.00    +0.000 C 
ENDBRANCH  20  22
ENDBRANCH   1  20
TORSDOF 2
ENDMDL
MODEL 2
REMARK VINA RESULT:      -7.2      1.156      1.580
REMARK  Name = 
REMARK  4 active torsions:
REMARK  status: ('A' for Active; 'I' for Inactive)
REMARK    1  A    between atoms: C_1  and  N_2
REMARK    2  A    between atoms: N_2  and  C_3
REMARK    3  A    between atoms: N_2  and  C_4
REMARK    4  A    between atoms: C_4  and  C_5
REMARK                            x       y       z     vdW  Elec       q    Type
REMARK                         _______ _______ _______ _____ _____    ______ ____
ROOT
ATOM      1  C   UNL     1       5.680   5.199  14.961  0.00  0.00    +0.000 C 
ATOM      2  C   UNL     1       5.998   3.781  15.509  0.00  0.00    +0.000 C 
ATOM      3  C   UNL     1       6.376   3.643  17.006  0.00  0.00    +0.000 C 
ATOM      4  C   UNL     1       5.582   4.622  17.854  0.00  0.00    +0.000 C 
ATOM      5  C   UNL     1       5.736   6.043  17.315  0.00  0.00    +0.000 C 
ATOM      6  C   UNL     1       5.052   6.153  15.979  0.00  0.00    +0.000 C 
ATOM      7  O   UNL     1       5.888   4.681  19.236  0.00  0.00    +0.000 OA
ATOM      8  O   UNL     1       4.600   5.189  19.769  0.00  0.00    +0.000 OA
ATOM      9  C   UNL     1       3.666   4.396  19.038  0.00  0.00    +0.000 C 
ATOM     10  O   UNL     1       4.240   4.153  17.761  0.00  0.00    +0.000 OA
ATOM     11  C   UNL     1       3.483   3.091  19.836  0.00  0.00    +0.000 C 
ATOM     12  C   UNL     1       2.648   2.099  19.021  0.00  0.00    +0.000 C 
ATOM     13  C   UNL     1       1.271   2.711  18.722  0.00  0.00    +0.000 C 
ATOM     14  C   UNL     1       0.567   3.017  20.056  0.00  0.00    +0.000 C 
ATOM     15  C   UNL     1       1.383   4.040  20.869  0.00  0.00    +0.000 C 
ATOM     16  C   UNL     1       2.771   3.442  21.160  0.00  0.00    +0.000 C 
ATOM     17  C   UNL     1       1.545   5.337  20.055  0.00  0.00    +0.000 C 
ATOM     18  C   UNL     1       2.290   5.034  18.753  0.00  0.00    +0.000 C 
ATOM     19  C   UNL     1       1.440   4.025  17.932  0.00  0.00    +0.000 C 
ENDROOT
BRANCH   1  20
ATOM     20  C   UNL     1       6.772   5.926  14.134  0.00  0.00    +0.000 C 
BRANCH  20  22
ATOM     21  C   UNL     1       6.999   4.362  12.290  0.00  0.00    +0.000 C 
ATOM     22  N   UNL     1       7.692   5.095  13.347  0.00  0.00    +0.000 NA
ATOM     23  C   UNL     1       8.726   5.934  12.725  0.00  0.00    +0.000 C 
ENDBRANCH  20  22
ENDBRANCH   1  20
TORSDOF 2
ENDMDL
MODEL 3
REMARK VINA RESULT:      -7.0      9.698     12.514
REMARK  Name = 
REMARK  4 active torsions:
REMARK  status: ('A' for Active; 'I' for Inactive)
REMARK    1  A    between atoms: C_1  and  N_2
REMARK    2  A    between atoms: N_2  and  C_3
REMARK    3  A    between atoms: N_2  and  C_4
REMARK    4  A    between atoms: C_4  and  C_5
REMARK                            x       y       z     vdW  Elec       q    Type
REMARK                         _______ _______ _______ _____ _____    ______ ____
ROOT
ATOM      1  C   UNL     1       6.661  12.953  23.763  0.00  0.00    +0.000 C 
ATOM      2  C   UNL     1       6.094  13.621  22.482  0.00  0.00    +0.000 C 
ATOM      3  C   UNL     1       6.945  14.716  21.789  0.00  0.00    +0.000 C 
ATOM      4  C   UNL     1       8.424  14.386  21.879  0.00  0.00    +0.000 C 
ATOM      5  C   UNL     1       8.827  14.127  23.330  0.00  0.00    +0.000 C 
ATOM      6  C   UNL     1       8.188  12.853  23.812  0.00  0.00    +0.000 C 
ATOM      7  O   UNL     1       9.336  15.345  21.374  0.00  0.00    +0.000 OA
ATOM      8  O   UNL     1      10.492  14.470  21.060  0.00  0.00    +0.000 OA
ATOM      9  C   UNL     1       9.840  13.363  20.440  0.00  0.00    +0.000 C 
ATOM     10  O   UNL     1       8.571  13.227  21.064  0.00  0.00    +0.000 OA
ATOM     11  C   UNL     1       9.702  13.719  18.947  0.00  0.00    +0.000 C 
ATOM     12  C   UNL     1       8.836  12.671  18.243  0.00  0.00    +0.000 C 
ATOM     13  C   UNL     1       9.491  11.288  18.379  0.00  0.00    +0.000 C 
ATOM     14  C   UNL     1      10.885  11.336  17.730  0.00  0.00    +0.000 C 
ATOM     15  C   UNL     1      11.776  12.364  18.453  0.00  0.00    +0.000 C 
ATOM     16  C   UNL     1      11.120  13.752  18.336  0.00  0.00    +0.000 C 
ATOM     17  C   UNL     1      11.905  11.984  19.939  0.00  0.00    +0.000 C 
ATOM     18  C   UNL     1      10.520  11.986  20.590  0.00  0.00    +0.000 C 
ATOM     19  C   UNL     1       9.645  10.923  19.870  0.00  0.00    +0.000 C 
ENDROOT
BRANCH   1  20
ATOM     20  C   UNL     1       6.101  13.409  25.136  0.00  0.00    +0.000 C 
BRANCH  20  22
ATOM     21  C   UNL     1       5.553  11.128  25.761  0.00  0.00    +0.000 C 
ATOM     22  N   UNL     1       5.134  12.527  25.801  0.00  0.00    +0.000 NA
ATOM     23  C   UNL     1       4.973  12.921  27.207  0.00  0.00    +0.000 C 
ENDBRANCH  20  22
ENDBRANCH   1  20
TORSDOF 2
ENDMDL
MODEL 4
REMARK VINA RESULT:      -6.7      4.025      6.676
REMARK  Name = 
REMARK  4 active torsions:
REMARK  status: ('A' for Active; 'I' for Inactive)
REMARK    1  A    between atoms: C_1  and  N_2
REMARK    2  A    between atoms: N_2  and  C_3
REMARK    3  A    between atoms: N_2  and  C_4
REMARK    4  A    between atoms: C_4  and  C_5
REMARK                            x       y       z     vdW  Elec       q    Type
REMARK                         _______ _______ _______ _____ _____    ______ ____
ROOT
ATOM      1  C   UNL     1       1.601   9.131  19.343  0.00  0.00    +0.000 C 
ATOM      2  C   UNL     1       2.028   8.134  20.454  0.00  0.00    +0.000 C 
ATOM      3  C   UNL     1       1.881   6.617  20.172  0.00  0.00    +0.000 C 
ATOM      4  C   UNL     1       2.191   6.307  18.718  0.00  0.00    +0.000 C 
ATOM      5  C   UNL     1       1.347   7.184  17.794  0.00  0.00    +0.000 C 
ATOM      6  C   UNL     1       1.789   8.617  17.914  0.00  0.00    +0.000 C 
ATOM      7  O   UNL     1       2.005   4.972  18.284  0.00  0.00    +0.000 OA
ATOM      8  O   UNL     1       2.944   4.935  17.136  0.00  0.00    +0.000 OA
ATOM      9  C   UNL     1       4.078   5.605  17.685  0.00  0.00    +0.000 C 
ATOM     10  O   UNL     1       3.583   6.578  18.594  0.00  0.00    +0.000 OA
ATOM     11  C   UNL     1       4.914   4.529  18.405  0.00  0.00    +0.000 C 
ATOM     12  C   UNL     1       6.047   5.195  19.191  0.00  0.00    +0.000 C 
ATOM     13  C   UNL     1       6.949   5.981  18.226  0.00  0.00    +0.000 C 
ATOM     14  C   UNL     1       7.533   5.004  17.191  0.00  0.00    +0.000 C 
ATOM     15  C   UNL     1       6.402   4.354  16.371  0.00  0.00    +0.000 C 
ATOM     16  C   UNL     1       5.484   3.576  17.331  0.00  0.00    +0.000 C 
ATOM     17  C   UNL     1       5.587   5.446  15.656  0.00  0.00    +0.000 C 
ATOM     18  C   UNL     1       4.968   6.385  16.694  0.00  0.00    +0.000 C 
ATOM     19  C   UNL     1       6.122   7.055  17.490  0.00  0.00    +0.000 C 
ENDROOT
BRANCH   1  20
ATOM     20  C   UNL     1       0.233   9.847  19.489  0.00  0.00    +0.000 C 
BRANCH  20  22
ATOM     21  C   UNL     1      -1.563  10.196  17.893  0.00  0.00    +0.000 C 
ATOM     22  N   UNL     1      -0.246  10.635  18.346  0.00  0.00    +0.000 NA
ATOM     23  C   UNL     1      -0.334  12.055  18.712  0.00  0.00    +0.000 C 
ENDBRANCH  20  22
ENDBRANCH   1  20
TORSDOF 2
ENDMDL
MODEL 5
REMARK VINA RESULT:      -6.6      2.414      4.075
REMARK  Name = 
REMARK  4 active torsions:
REMARK  status: ('A' for Active; 'I' for Inactive)
REMARK    1  A    between atoms: C_1  and  N_2
REMARK    2  A    between atoms: N_2  and  C_3
REMARK    3  A    between atoms: N_2  and  C_4
REMARK    4  A    between atoms: C_4  and  C_5
REMARK                            x       y       z     vdW  Elec       q    Type
REMARK                         _______ _______ _______ _____ _____    ______ ____
ROOT
ATOM      1  C   UNL     1       6.798   7.350  17.802  0.00  0.00    +0.000 C 
ATOM      2  C   UNL     1       5.637   7.421  16.773  0.00  0.00    +0.000 C 
ATOM      3  C   UNL     1       5.242   6.122  16.025  0.00  0.00    +0.000 C 
ATOM      4  C   UNL     1       5.372   4.915  16.937  0.00  0.00    +0.000 C 
ATOM      5  C   UNL     1       6.768   4.861  17.556  0.00  0.00    +0.000 C 
ATOM      6  C   UNL     1       6.938   6.005  18.518  0.00  0.00    +0.000 C 
ATOM      7  O   UNL     1       5.137   3.641  16.365  0.00  0.00    +0.000 OA
ATOM      8  O   UNL     1       4.740   2.878  17.574  0.00  0.00    +0.000 OA
ATOM      9  C   UNL     1       3.865   3.808  18.212  0.00  0.00    +0.000 C 
ATOM     10  O   UNL     1       4.356   5.108  17.916  0.00  0.00    +0.000 OA
ATOM     11  C   UNL     1       2.467   3.577  17.606  0.00  0.00    +0.000 C 
ATOM     12  C   UNL     1       1.507   4.666  18.091  0.00  0.00    +0.000 C 
ATOM     13  C   UNL     1       1.412   4.623  19.624  0.00  0.00    +0.000 C 
ATOM     14  C   UNL     1       0.890   3.238  20.046  0.00  0.00    +0.000 C 
ATOM     15  C   UNL     1       1.867   2.136  19.593  0.00  0.00    +0.000 C 
ATOM     16  C   UNL     1       1.981   2.182  18.059  0.00  0.00    +0.000 C 
ATOM     17  C   UNL     1       3.252   2.384  20.216  0.00  0.00    +0.000 C 
ATOM     18  C   UNL     1       3.787   3.741  19.752  0.00  0.00    +0.000 C 
ATOM     19  C   UNL     1       2.808   4.842  20.244  0.00  0.00    +0.000 C 
ENDROOT
BRANCH   1  20
ATOM     20  C   UNL     1       8.189   7.887  17.374  0.00  0.00    +0.000 C 
BRANCH  20  22
ATOM     21  C   UNL     1       7.436  10.181  17.628  0.00  0.00    +0.000 C 
ATOM     22  N   UNL     1       8.549   9.248  17.791  0.00  0.00    +0.000 NA
ATOM     23  C   UNL     1       8.953   9.254  19.203  0.00  0.00    +0.000 C 
ENDBRANCH  20  22
ENDBRANCH   1  20
TORSDOF 2
ENDMDL
MODEL 6
REMARK VINA RESULT:      -6.5      9.934     12.693
REMARK  Name = 
REMARK  4 active torsions:
REMARK  status: ('A' for Active; 'I' for Inactive)
REMARK    1  A    between atoms: C_1  and  N_2
REMARK    2  A    between atoms: N_2  and  C_3
REMARK    3  A    between atoms: N_2  and  C_4
REMARK    4  A    between atoms: C_4  and  C_5
REMARK                            x       y       z     vdW  Elec       q    Type
REMARK                         _______ _______ _______ _____ _____    ______ ____
ROOT
ATOM      1  C   UNL     1       6.701  12.550  23.934  0.00  0.00    +0.000 C 
ATOM      2  C   UNL     1       6.126  13.372  22.749  0.00  0.00    +0.000 C 
ATOM      3  C   UNL     1       6.990  14.520  22.168  0.00  0.00    +0.000 C 
ATOM      4  C   UNL     1       8.462  14.150  22.188  0.00  0.00    +0.000 C 
ATOM      5  C   UNL     1       8.885  13.718  23.592  0.00  0.00    +0.000 C 
ATOM      6  C   UNL     1       8.225  12.412  23.939  0.00  0.00    +0.000 C 
ATOM      7  O   UNL     1       9.387  15.140  21.777  0.00  0.00    +0.000 OA
ATOM      8  O   UNL     1      10.516  14.283  21.341  0.00  0.00    +0.000 OA
ATOM      9  C   UNL     1       9.826  13.267  20.613  0.00  0.00    +0.000 C 
ATOM     10  O   UNL     1       8.567  13.089  21.245  0.00  0.00    +0.000 OA
ATOM     11  C   UNL     1       9.669  13.794  19.173  0.00  0.00    +0.000 C 
ATOM     12  C   UNL     1       8.766  12.853  18.373  0.00  0.00    +0.000 C 
ATOM     13  C   UNL     1       9.390  11.449  18.337  0.00  0.00    +0.000 C 
ATOM     14  C   UNL     1      10.772  11.541  17.669  0.00  0.00    +0.000 C 
ATOM     15  C   UNL     1      11.701  12.460  18.485  0.00  0.00    +0.000 C 
ATOM     16  C   UNL     1      11.076  13.866  18.540  0.00  0.00    +0.000 C 
ATOM     17  C   UNL     1      11.848  11.910  19.915  0.00  0.00    +0.000 C 
ATOM     18  C   UNL     1      10.476  11.868  20.591  0.00  0.00    +0.000 C 
ATOM     19  C   UNL     1       9.562  10.913  19.774  0.00  0.00    +0.000 C 
ENDROOT
BRANCH   1  20
ATOM     20  C   UNL     1       6.177  12.859  25.361  0.00  0.00    +0.000 C 
BRANCH  20  22
ATOM     21  C   UNL     1       5.271  14.891  26.333  0.00  0.00    +0.000 C 
ATOM     22  N   UNL     1       6.480  14.181  25.924  0.00  0.00    +0.000 NA
ATOM     23  C   UNL     1       7.354  14.043  27.097  0.00  0.00    +0.000 C 
ENDBRANCH  20  22
ENDBRANCH   1  20
TORSDOF 2
ENDMDL
MODEL 7
REMARK VINA RESULT:      -6.3     10.468     12.662
REMARK  Name = 
REMARK  4 active torsions:
REMARK  status: ('A' for Active; 'I' for Inactive)
REMARK    1  A    between atoms: C_1  and  N_2
REMARK    2  A    between atoms: N_2  and  C_3
REMARK    3  A    between atoms: N_2  and  C_4
REMARK    4  A    between atoms: C_4  and  C_5
REMARK                            x       y       z     vdW  Elec       q    Type
REMARK                         _______ _______ _______ _____ _____    ______ ____
ROOT
ATOM      1  C   UNL     1       5.962  16.378  19.278  0.00  0.00    +0.000 C 
ATOM      2  C   UNL     1       7.155  17.076  18.570  0.00  0.00    +0.000 C 
ATOM      3  C   UNL     1       8.499  17.182  19.335  0.00  0.00    +0.000 C 
ATOM      4  C   UNL     1       8.740  15.941  20.177  0.00  0.00    +0.000 C 
ATOM      5  C   UNL     1       7.541  15.672  21.085  0.00  0.00    +0.000 C 
ATOM      6  C   UNL     1       6.357  15.265  20.251  0.00  0.00    +0.000 C 
ATOM      7  O   UNL     1       9.884  15.934  21.010  0.00  0.00    +0.000 OA
ATOM      8  O   UNL     1      10.111  14.473  21.134  0.00  0.00    +0.000 OA
ATOM      9  C   UNL     1       9.916  14.047  19.786  0.00  0.00    +0.000 C 
ATOM     10  O   UNL     1       8.934  14.905  19.220  0.00  0.00    +0.000 OA
ATOM     11  C   UNL     1      11.277  14.199  19.081  0.00  0.00    +0.000 C 
ATOM     12  C   UNL     1      11.111  13.952  17.579  0.00  0.00    +0.000 C 
ATOM     13  C   UNL     1      10.572  12.532  17.348  0.00  0.00    +0.000 C 
ATOM     14  C   UNL     1      11.573  11.523  17.937  0.00  0.00    +0.000 C 
ATOM     15  C   UNL     1      11.722  11.741  19.455  0.00  0.00    +0.000 C 
ATOM     16  C   UNL     1      12.247  13.168  19.698  0.00  0.00    +0.000 C 
ATOM     17  C   UNL     1      10.352  11.577  20.139  0.00  0.00    +0.000 C 
ATOM     18  C   UNL     1       9.376  12.616  19.583  0.00  0.00    +0.000 C 
ATOM     19  C   UNL     1       9.213  12.363  18.059  0.00  0.00    +0.000 C 
ENDROOT
BRANCH   1  20
ATOM     20  C   UNL     1       4.852  17.271  19.892  0.00  0.00    +0.000 C 
BRANCH  20  22
ATOM     21  C   UNL     1       3.509  16.616  17.978  0.00  0.00    +0.000 C 
ATOM     22  N   UNL     1       3.497  17.144  19.341  0.00  0.00    +0.000 NA
ATOM     23  C   UNL     1       2.692  16.244  20.177  0.00  0.00    +0.000 C 
ENDBRANCH  20  22
ENDBRANCH   1  20
TORSDOF 2
ENDMDL
MODEL 8
REMARK VINA RESULT:      -6.1     10.356     12.770
REMARK  Name = 
REMARK  4 active torsions:
REMARK  status: ('A' for Active; 'I' for Inactive)
REMARK    1  A    between atoms: C_1  and  N_2
REMARK    2  A    between atoms: N_2  and  C_3
REMARK    3  A    between atoms: N_2  and  C_4
REMARK    4  A    between atoms: C_4  and  C_5
REMARK                            x       y       z     vdW  Elec       q    Type
REMARK                         _______ _______ _______ _____ _____    ______ ____
ROOT
ATOM      1  C   UNL     1       5.386  15.358  19.833  0.00  0.00    +0.000 C 
ATOM      2  C   UNL     1       6.190  16.040  18.693  0.00  0.00    +0.000 C 
ATOM      3  C   UNL     1       7.585  16.626  19.032  0.00  0.00    +0.000 C 
ATOM      4  C   UNL     1       8.302  15.756  20.049  0.00  0.00    +0.000 C 
ATOM      5  C   UNL     1       7.420  15.531  21.276  0.00  0.00    +0.000 C 
ATOM      6  C   UNL     1       6.242  14.675  20.902  0.00  0.00    +0.000 C 
ATOM      7  O   UNL     1       9.552  16.216  20.530  0.00  0.00    +0.000 OA
ATOM      8  O   UNL     1      10.170  14.928  20.931  0.00  0.00    +0.000 OA
ATOM      9  C   UNL     1       9.828  14.100  19.821  0.00  0.00    +0.000 C 
ATOM     10  O   UNL     1       8.565  14.545  19.346  0.00  0.00    +0.000 OA
ATOM     11  C   UNL     1      10.934  14.304  18.768  0.00  0.00    +0.000 C 
ATOM     12  C   UNL     1      10.543  13.604  17.464  0.00  0.00    +0.000 C 
ATOM     13  C   UNL     1      10.357  12.101  17.723  0.00  0.00    +0.000 C 
ATOM     14  C   UNL     1      11.683  11.525  18.250  0.00  0.00    +0.000 C 
ATOM     15  C   UNL     1      12.069  12.199  19.580  0.00  0.00    +0.000 C 
ATOM     16  C   UNL     1      12.242  13.709  19.334  0.00  0.00    +0.000 C 
ATOM     17  C   UNL     1      10.953  11.975  20.617  0.00  0.00    +0.000 C 
ATOM     18  C   UNL     1       9.650  12.594  20.109  0.00  0.00    +0.000 C 
ATOM     19  C   UNL     1       9.259  11.882  18.784  0.00  0.00    +0.000 C 
ENDROOT
BRANCH   1  20
ATOM     20  C   UNL     1       4.227  16.154  20.488  0.00  0.00    +0.000 C 
BRANCH  20  22
ATOM     21  C   UNL     1       2.619  17.910  20.014  0.00  0.00    +0.000 C 
ATOM     22  N   UNL     1       4.032  17.545  20.059  0.00  0.00    +0.000 NA
ATOM     23  C   UNL     1       4.715  18.460  20.984  0.00  0.00    +0.000 C 
ENDBRANCH  20  22
ENDBRANCH   1  20
TORSDOF 2
ENDMDL
MODEL 9
REMARK VINA RESULT:      -6.1     10.308     12.842
REMARK  Name = 
REMARK  4 active torsions:
REMARK  status: ('A' for Active; 'I' for Inactive)
REMARK    1  A    between atoms: C_1  and  N_2
REMARK    2  A    between atoms: N_2  and  C_3
REMARK    3  A    between atoms: N_2  and  C_4
REMARK    4  A    between atoms: C_4  and  C_5
REMARK                            x       y       z     vdW  Elec       q    Type
REMARK                         _______ _______ _______ _____ _____    ______ ____
ROOT
ATOM      1  C   UNL     1       6.015  15.894  20.777  0.00  0.00    +0.000 C 
ATOM      2  C   UNL     1       5.683  14.981  19.566  0.00  0.00    +0.000 C 
ATOM      3  C   UNL     1       6.471  15.196  18.249  0.00  0.00    +0.000 C 
ATOM      4  C   UNL     1       7.914  15.571  18.541  0.00  0.00    +0.000 C 
ATOM      5  C   UNL     1       7.973  16.767  19.490  0.00  0.00    +0.000 C 
ATOM      6  C   UNL     1       7.471  16.360  20.848  0.00  0.00    +0.000 C 
ATOM      7  O   UNL     1       8.737  15.895  17.435  0.00  0.00    +0.000 OA
ATOM      8  O   UNL     1      10.072  15.578  17.998  0.00  0.00    +0.000 OA
ATOM      9  C   UNL     1       9.809  14.338  18.654  0.00  0.00    +0.000 C 
ATOM     10  O   UNL     1       8.468  14.395  19.121  0.00  0.00    +0.000 OA
ATOM     11  C   UNL     1       9.994  13.236  17.593  0.00  0.00    +0.000 C 
ATOM     12  C   UNL     1       9.538  11.890  18.161  0.00  0.00    +0.000 C 
ATOM     13  C   UNL     1      10.373  11.547  19.404  0.00  0.00    +0.000 C 
ATOM     14  C   UNL     1      11.854  11.468  18.996  0.00  0.00    +0.000 C 
ATOM     15  C   UNL     1      12.333  12.828  18.455  0.00  0.00    +0.000 C 
ATOM     16  C   UNL     1      11.491  13.189  17.218  0.00  0.00    +0.000 C 
ATOM     17  C   UNL     1      12.145  13.911  19.533  0.00  0.00    +0.000 C 
ATOM     18  C   UNL     1      10.663  14.018  19.898  0.00  0.00    +0.000 C 
ATOM     19  C   UNL     1      10.205  12.648  20.471  0.00  0.00    +0.000 C 
ENDROOT
BRANCH   1  20
ATOM     20  C   UNL     1       5.051  17.067  21.095  0.00  0.00    +0.000 C 
BRANCH  20  22
ATOM     21  C   UNL     1       2.732  16.428  21.424  0.00  0.00    +0.000 C 
ATOM     22  N   UNL     1       3.982  16.820  22.071  0.00  0.00    +0.000 NA
ATOM     23  C   UNL     1       4.378  15.749  22.996  0.00  0.00    +0.000 C 
ENDBRANCH  20  22
ENDBRANCH   1  20
TORSDOF 2
ENDMDL
