MODEL 1
REMARK VINA RESULT:      -8.1      0.000      0.000
REMARK  Name = 
REMARK  9 active torsions:
REMARK  status: ('A' for Active; 'I' for Inactive)
REMARK    1  A    between atoms: CD_2  and  OE2_3
REMARK    2  A    between atoms: CD_2  and  CG_4
REMARK    3  A    between atoms: CG_4  and  CB_5
REMARK    4  A    between atoms: CB_5  and  CA_6
REMARK    5  A    between atoms: CA_6  and  N_7
REMARK    6  A    between atoms: CA_6  and  C_24
REMARK    7  A    between atoms: C_8  and  C_10
REMARK    8  A    between atoms: C_14  and  C_15
REMARK    9  A    between atoms: C_24  and  OXT_26
REMARK                            x       y       z     vdW  Elec       q    Type
REMARK                         _______ _______ _______ _____ _____    ______ ____
ROOT
ATOM      1  N   GLU A   1       4.746   5.509  17.806  0.00  0.00    +0.000 N 
ATOM      2  C   UNK A   0       3.719   5.514  18.734  0.00  0.00    +0.000 C 
ATOM      3  O   UNK A   0       3.499   4.581  19.496  0.00  0.00    +0.000 OA
ATOM      4  H   GLU A   1       5.081   6.405  17.463  0.00  0.00    +0.000 HD
ENDROOT
BRANCH   2   5
ATOM      5  C   UNK A   0       2.910   6.757  18.799  0.00  0.00    +0.000 A 
ATOM      6  C   UNK A   0       2.811   7.589  17.679  0.00  0.00    +0.000 A 
ATOM      7  C   UNK A   0       2.103   8.785  17.762  0.00  0.00    +0.000 A 
ATOM      8  C   UNK A   0       1.509   9.162  18.968  0.00  0.00    +0.000 A 
ATOM      9  C   UNK A   0       1.608   8.338  20.096  0.00  0.00    +0.000 A 
ATOM     10  C   UNK A   0       2.283   7.114  20.000  0.00  0.00    +0.000 A 
BRANCH   9  11
ATOM     11  C   UNK A   0       1.082   8.810  21.383  0.00  0.00    +0.000 C 
ATOM     12  C   UNK A   0       0.189   9.801  21.516  0.00  0.00    +0.000 C 
ATOM     13  S   UNK A   0      -0.566  10.722  20.264  0.00  0.00    +0.000 S 
ATOM     14  C   UNK A   0      -1.460  11.698  21.404  0.00  0.00    +0.000 C 
ATOM     15  S   UNK A   0      -2.487  12.943  21.041  0.00  0.00    +0.000 S 
ATOM     16  N   UNK A   0      -1.193  11.284  22.675  0.00  0.00    +0.000 N 
ATOM     17  C   UNK A   0      -0.305  10.260  22.839  0.00  0.00    +0.000 C 
ATOM     18  O   UNK A   0       0.034   9.797  23.924  0.00  0.00    +0.000 OA
ATOM     19  H   UNK A   0      -1.612  11.728  23.476  0.00  0.00    +0.000 HD
ENDBRANCH   9  11
ENDBRANCH   2   5
BRANCH   1  20
ATOM     20  CA  GLU A   1       5.622   4.338  17.691  0.00  0.00    +0.000 C 
BRANCH  20  21
ATOM     21  C   GLU A   1       7.059   4.690  18.113  0.00  0.00    +0.000 C 
ATOM     22  O   GLU A   1       7.349   5.339  19.107  0.00  0.00    +0.000 OA
BRANCH  21  23
ATOM     23  OXT GLU A   1       8.004   4.175  17.289  0.00  0.00    +0.000 OA
ATOM     24  HXT GLU A   1       8.738   3.704  17.742  0.00  0.00    +0.000 HD
ENDBRANCH  21  23
ENDBRANCH  20  21
BRANCH  20  25
ATOM     25  CB  GLU A   1       5.568   3.754  16.264  0.00  0.00    +0.000 C 
BRANCH  25  26
ATOM     26  CG  GLU A   1       5.541   4.779  15.122  0.00  0.00    +0.000 C 
BRANCH  26  28
ATOM     27  OE1 GLU A   1       7.754   5.401  14.441  0.00  0.00    +0.000 OA
ATOM     28  CD  GLU A   1       6.739   4.756  14.202  0.00  0.00    +0.000 C 
BRANCH  28  29
ATOM     29  OE2 GLU A   1       6.597   4.039  13.067  0.00  0.00    +0.000 OA
ATOM     30  HE2 GLU A   1       6.699   4.513  12.220  0.00  0.00    +0.000 HD
ENDBRANCH  28  29
ENDBRANCH  26  28
ENDBRANCH  25  26
ENDBRANCH  20  25
ENDBRANCH   1  20
TORSDOF 9
ENDMDL
MODEL 2
REMARK VINA RESULT:      -8.0      2.009      2.862
REMARK  Name = 
REMARK  9 active torsions:
REMARK  status: ('A' for Active; 'I' for Inactive)
REMARK    1  A    between atoms: CD_2  and  OE2_3
REMARK    2  A    between atoms: CD_2  and  CG_4
REMARK    3  A    between atoms: CG_4  and  CB_5
REMARK    4  A    between atoms: CB_5  and  CA_6
REMARK    5  A    between atoms: CA_6  and  N_7
REMARK    6  A    between atoms: CA_6  and  C_24
REMARK    7  A    between atoms: C_8  and  C_10
REMARK    8  A    between atoms: C_14  and  C_15
REMARK    9  A    between atoms: C_24  and  OXT_26
REMARK                            x       y       z     vdW  Elec       q    Type
REMARK                         _______ _______ _______ _____ _____    ______ ____
ROOT
ATOM      1  N   GLU A   1       5.038   3.865  16.922  0.00  0.00    +0.000 N 
ATOM      2  C   UNK A   0       4.347   5.031  17.201  0.00  0.00    +0.000 C 
ATOM      3  O   UNK A   0       4.558   6.090  16.623  0.00  0.00    +0.000 OA
ATOM      4  H   GLU A   1       4.601   2.982  17.171  0.00  0.00    +0.000 HD
ENDROOT
BRANCH   2   5
ATOM      5  C   UNK A   0       3.276   4.922  18.222  0.00  0.00    +0.000 A 
ATOM      6  C   UNK A   0       2.370   3.857  18.177  0.00  0.00    +0.000 A 
ATOM      7  C   UNK A   0       1.328   3.791  19.098  0.00  0.00    +0.000 A 
ATOM      8  C   UNK A   0       1.176   4.798  20.053  0.00  0.00    +0.000 A 
ATOM      9  C   UNK A   0       2.074   5.872  20.102  0.00  0.00    +0.000 A 
ATOM     10  C   UNK A   0       3.149   5.915  19.203  0.00  0.00    +0.000 A 
BRANCH   9  11
ATOM     11  C   UNK A   0       1.825   6.979  21.033  0.00  0.00    +0.000 C 
ATOM     12  C   UNK A   0       1.497   8.223  20.656  0.00  0.00    +0.000 C 
ATOM     13  S   UNK A   0       1.263   8.817  19.051  0.00  0.00    +0.000 S 
ATOM     14  C   UNK A   0       0.923  10.437  19.609  0.00  0.00    +0.000 C 
ATOM     15  S   UNK A   0       0.596  11.756  18.664  0.00  0.00    +0.000 S 
ATOM     16  N   UNK A   0       0.963  10.475  20.971  0.00  0.00    +0.000 N 
ATOM     17  C   UNK A   0       1.271   9.320  21.632  0.00  0.00    +0.000 C 
ATOM     18  O   UNK A   0       1.352   9.214  22.852  0.00  0.00    +0.000 OA
ATOM     19  H   UNK A   0       0.797  11.326  21.483  0.00  0.00    +0.000 HD
ENDBRANCH   9  11
ENDBRANCH   2   5
BRANCH   1  20
ATOM     20  CA  GLU A   1       6.093   3.866  15.902  0.00  0.00    +0.000 C 
BRANCH  20  21
ATOM     21  C   GLU A   1       7.281   4.735  16.348  0.00  0.00    +0.000 C 
ATOM     22  O   GLU A   1       7.517   5.856  15.920  0.00  0.00    +0.000 OA
BRANCH  21  23
ATOM     23  OXT GLU A   1       8.043   4.156  17.307  0.00  0.00    +0.000 OA
ATOM     24  HXT GLU A   1       7.553   3.583  17.938  0.00  0.00    +0.000 HD
ENDBRANCH  21  23
ENDBRANCH  20  21
BRANCH  20  25
ATOM     25  CB  GLU A   1       5.532   4.314  14.537  0.00  0.00    +0.000 C 
BRANCH  25  26
ATOM     26  CG  GLU A   1       6.382   3.951  13.312  0.00  0.00    +0.000 C 
BRANCH  26  28
ATOM     27  OE1 GLU A   1       4.544   3.467  11.852  0.00  0.00    +0.000 OA
ATOM     28  CD  GLU A   1       5.668   3.166  12.237  0.00  0.00    +0.000 C 
BRANCH  28  29
ATOM     29  OE2 GLU A   1       6.312   2.073  11.779  0.00  0.00    +0.000 OA
ATOM     30  HE2 GLU A   1       5.893   1.575  11.052  0.00  0.00    +0.000 HD
ENDBRANCH  28  29
ENDBRANCH  26  28
ENDBRANCH  25  26
ENDBRANCH  20  25
ENDBRANCH   1  20
TORSDOF 9
ENDMDL
MODEL 3
REMARK VINA RESULT:      -7.8      1.946      2.691
REMARK  Name = 
REMARK  9 active torsions:
REMARK  status: ('A' for Active; 'I' for Inactive)
REMARK    1  A    between atoms: CD_2  and  OE2_3
REMARK    2  A    between atoms: CD_2  and  CG_4
REMARK    3  A    between atoms: CG_4  and  CB_5
REMARK    4  A    between atoms: CB_5  and  CA_6
REMARK    5  A    between atoms: CA_6  and  N_7
REMARK    6  A    between atoms: CA_6  and  C_24
REMARK    7  A    between atoms: C_8  and  C_10
REMARK    8  A    between atoms: C_14  and  C_15
REMARK    9  A    between atoms: C_24  and  OXT_26
REMARK                            x       y       z     vdW  Elec       q    Type
REMARK                         _______ _______ _______ _____ _____    ______ ____
ROOT
ATOM      1  N   GLU A   1       4.855   4.988  17.133  0.00  0.00    +0.000 N 
ATOM      2  C   UNK A   0       4.260   4.279  18.160  0.00  0.00    +0.000 C 
ATOM      3  O   UNK A   0       4.507   3.102  18.394  0.00  0.00    +0.000 OA
ATOM      4  H   GLU A   1       4.874   6.003  17.204  0.00  0.00    +0.000 HD
ENDROOT
BRANCH   2   5
ATOM      5  C   UNK A   0       3.323   5.044  19.020  0.00  0.00    +0.000 A 
ATOM      6  C   UNK A   0       2.604   4.393  20.028  0.00  0.00    +0.000 A 
ATOM      7  C   UNK A   0       1.680   5.101  20.792  0.00  0.00    +0.000 A 
ATOM      8  C   UNK A   0       1.457   6.456  20.538  0.00  0.00    +0.000 A 
ATOM      9  C   UNK A   0       2.168   7.115  19.527  0.00  0.00    +0.000 A 
ATOM     10  C   UNK A   0       3.129   6.412  18.788  0.00  0.00    +0.000 A 
BRANCH   9  11
ATOM     11  C   UNK A   0       1.831   8.505  19.197  0.00  0.00    +0.000 C 
ATOM     12  C   UNK A   0       1.120   9.319  19.991  0.00  0.00    +0.000 C 
ATOM     13  S   UNK A   0       0.468   8.971  21.552  0.00  0.00    +0.000 S 
ATOM     14  C   UNK A   0      -0.249  10.556  21.700  0.00  0.00    +0.000 C 
ATOM     15  S   UNK A   0      -1.157  11.113  22.967  0.00  0.00    +0.000 S 
ATOM     16  N   UNK A   0       0.048  11.303  20.598  0.00  0.00    +0.000 N 
ATOM     17  C   UNK A   0       0.786  10.715  19.611  0.00  0.00    +0.000 C 
ATOM     18  O   UNK A   0       1.115  11.265  18.564  0.00  0.00    +0.000 OA
ATOM     19  H   UNK A   0      -0.281  12.249  20.493  0.00  0.00    +0.000 HD
ENDBRANCH   9  11
ENDBRANCH   2   5
BRANCH   1  20
ATOM     20  CA  GLU A   1       5.822   4.327  16.250  0.00  0.00    +0.000 C 
BRANCH  20  21
ATOM     21  C   GLU A   1       7.224   4.933  16.427  0.00  0.00    +0.000 C 
ATOM     22  O   GLU A   1       7.531   6.073  16.107  0.00  0.00    +0.000 OA
BRANCH  21  23
ATOM     23  OXT GLU A   1       8.106   4.090  17.016  0.00  0.00    +0.000 OA
ATOM     24  HXT GLU A   1       8.391   4.351  17.920  0.00  0.00    +0.000 HD
ENDBRANCH  21  23
ENDBRANCH  20  21
BRANCH  20  25
ATOM     25  CB  GLU A   1       5.351   4.386  14.782  0.00  0.00    +0.000 C 
BRANCH  25  26
ATOM     26  CG  GLU A   1       6.401   4.015  13.726  0.00  0.00    +0.000 C 
BRANCH  26  28
ATOM     27  OE1 GLU A   1       4.728   3.549  12.074  0.00  0.00    +0.000 OA
ATOM     28  CD  GLU A   1       5.862   3.338  12.487  0.00  0.00    +0.000 C 
BRANCH  28  29
ATOM     29  OE2 GLU A   1       6.679   2.435  11.907  0.00  0.00    +0.000 OA
ATOM     30  HE2 GLU A   1       6.997   2.630  11.005  0.00  0.00    +0.000 HD
ENDBRANCH  28  29
ENDBRANCH  26  28
ENDBRANCH  25  26
ENDBRANCH  20  25
ENDBRANCH   1  20
TORSDOF 9
ENDMDL
MODEL 4
REMARK VINA RESULT:      -7.8      1.828      3.265
REMARK  Name = 
REMARK  9 active torsions:
REMARK  status: ('A' for Active; 'I' for Inactive)
REMARK    1  A    between atoms: CD_2  and  OE2_3
REMARK    2  A    between atoms: CD_2  and  CG_4
REMARK    3  A    between atoms: CG_4  and  CB_5
REMARK    4  A    between atoms: CB_5  and  CA_6
REMARK    5  A    between atoms: CA_6  and  N_7
REMARK    6  A    between atoms: CA_6  and  C_24
REMARK    7  A    between atoms: C_8  and  C_10
REMARK    8  A    between atoms: C_14  and  C_15
REMARK    9  A    between atoms: C_24  and  OXT_26
REMARK                            x       y       z     vdW  Elec       q    Type
REMARK                         _______ _______ _______ _____ _____    ______ ____
ROOT
ATOM      1  N   GLU A   1       4.828   5.101  17.066  0.00  0.00    +0.000 N 
ATOM      2  C   UNK A   0       4.113   6.193  17.527  0.00  0.00    +0.000 C 
ATOM      3  O   UNK A   0       4.253   7.324  17.079  0.00  0.00    +0.000 OA
ATOM      4  H   GLU A   1       4.437   4.176  17.224  0.00  0.00    +0.000 HD
ENDROOT
BRANCH   2   5
ATOM      5  C   UNK A   0       3.107   5.911  18.581  0.00  0.00    +0.000 A 
ATOM      6  C   UNK A   0       2.436   4.683  18.600  0.00  0.00    +0.000 A 
ATOM      7  C   UNK A   0       1.448   4.446  19.552  0.00  0.00    +0.000 A 
ATOM      8  C   UNK A   0       1.113   5.440  20.473  0.00  0.00    +0.000 A 
ATOM      9  C   UNK A   0       1.775   6.675  20.457  0.00  0.00    +0.000 A 
ATOM     10  C   UNK A   0       2.800   6.897  19.528  0.00  0.00    +0.000 A 
BRANCH   9  11
ATOM     11  C   UNK A   0       1.324   7.746  21.353  0.00  0.00    +0.000 C 
ATOM     12  C   UNK A   0       0.972   8.974  20.946  0.00  0.00    +0.000 C 
ATOM     13  S   UNK A   0       0.930   9.582  19.330  0.00  0.00    +0.000 S 
ATOM     14  C   UNK A   0       0.410  11.166  19.848  0.00  0.00    +0.000 C 
ATOM     15  S   UNK A   0       0.135  12.479  18.879  0.00  0.00    +0.000 S 
ATOM     16  N   UNK A   0       0.252  11.181  21.202  0.00  0.00    +0.000 N 
ATOM     17  C   UNK A   0       0.537  10.035  21.889  0.00  0.00    +0.000 C 
ATOM     18  O   UNK A   0       0.451   9.913  23.108  0.00  0.00    +0.000 OA
ATOM     19  H   UNK A   0      -0.040  12.010  21.694  0.00  0.00    +0.000 HD
ENDBRANCH   9  11
ENDBRANCH   2   5
BRANCH   1  20
ATOM     20  CA  GLU A   1       5.822   5.274  16.001  0.00  0.00    +0.000 C 
BRANCH  20  21
ATOM     21  C   GLU A   1       5.920   4.005  15.137  0.00  0.00    +0.000 C 
ATOM     22  O   GLU A   1       6.090   4.003  13.926  0.00  0.00    +0.000 OA
BRANCH  21  23
ATOM     23  OXT GLU A   1       5.839   2.858  15.853  0.00  0.00    +0.000 OA
ATOM     24  HXT GLU A   1       4.927   2.522  16.000  0.00  0.00    +0.000 HD
ENDBRANCH  21  23
ENDBRANCH  20  21
BRANCH  20  25
ATOM     25  CB  GLU A   1       7.190   5.675  16.591  0.00  0.00    +0.000 C 
BRANCH  25  26
ATOM     26  CG  GLU A   1       7.621   4.921  17.856  0.00  0.00    +0.000 C 
BRANCH  26  28
ATOM     27  OE1 GLU A   1       7.528   5.402  20.202  0.00  0.00    +0.000 OA
ATOM     28  CD  GLU A   1       7.841   5.780  19.079  0.00  0.00    +0.000 C 
BRANCH  28  29
ATOM     29  OE2 GLU A   1       8.335   7.014  18.851  0.00  0.00    +0.000 OA
ATOM     30  HE2 GLU A   1       7.932   7.758  19.339  0.00  0.00    +0.000 HD
ENDBRANCH  28  29
ENDBRANCH  26  28
ENDBRANCH  25  26
ENDBRANCH  20  25
ENDBRANCH   1  20
TORSDOF 9
ENDMDL
MODEL 5
REMARK VINA RESULT:      -7.8      2.800      3.638
REMARK  Name = 
REMARK  9 active torsions:
REMARK  status: ('A' for Active; 'I' for Inactive)
REMARK    1  A    between atoms: CD_2  and  OE2_3
REMARK    2  A    between atoms: CD_2  and  CG_4
REMARK    3  A    between atoms: CG_4  and  CB_5
REMARK    4  A    between atoms: CB_5  and  CA_6
REMARK    5  A    between atoms: CA_6  and  N_7
REMARK    6  A    between atoms: CA_6  and  C_24
REMARK    7  A    between atoms: C_8  and  C_10
REMARK    8  A    between atoms: C_14  and  C_15
REMARK    9  A    between atoms: C_24  and  OXT_26
REMARK                            x       y       z     vdW  Elec       q    Type
REMARK                         _______ _______ _______ _____ _____    ______ ____
ROOT
ATOM      1  N   GLU A   1       4.046   5.970  19.557  0.00  0.00    +0.000 N 
ATOM      2  C   UNK A   0       2.992   6.554  18.877  0.00  0.00    +0.000 C 
ATOM      3  O   UNK A   0       2.751   6.334  17.697  0.00  0.00    +0.000 OA
ATOM      4  H   GLU A   1       3.988   5.919  20.572  0.00  0.00    +0.000 HD
ENDROOT
BRANCH   2   5
ATOM      5  C   UNK A   0       2.114   7.441  19.680  0.00  0.00    +0.000 A 
ATOM      6  C   UNK A   0       1.496   6.955  20.837  0.00  0.00    +0.000 A 
ATOM      7  C   UNK A   0       0.623   7.770  21.554  0.00  0.00    +0.000 A 
ATOM      8  C   UNK A   0       0.350   9.064  21.106  0.00  0.00    +0.000 A 
ATOM      9  C   UNK A   0       0.959   9.557  19.945  0.00  0.00    +0.000 A 
ATOM     10  C   UNK A   0       1.871   8.752  19.249  0.00  0.00    +0.000 A 
BRANCH   9  11
ATOM     11  C   UNK A   0       0.565  10.872  19.427  0.00  0.00    +0.000 C 
ATOM     12  C   UNK A   0      -0.419  11.071  18.539  0.00  0.00    +0.000 C 
ATOM     13  S   UNK A   0      -1.456   9.888  17.826  0.00  0.00    +0.000 S 
ATOM     14  C   UNK A   0      -2.297  11.079  16.865  0.00  0.00    +0.000 C 
ATOM     15  S   UNK A   0      -3.517  10.792  15.784  0.00  0.00    +0.000 S 
ATOM     16  N   UNK A   0      -1.801  12.321  17.131  0.00  0.00    +0.000 N 
ATOM     17  C   UNK A   0      -0.774  12.419  18.027  0.00  0.00    +0.000 C 
ATOM     18  O   UNK A   0      -0.228  13.469  18.350  0.00  0.00    +0.000 OA
ATOM     19  H   UNK A   0      -2.155  13.144  16.671  0.00  0.00    +0.000 HD
ENDBRANCH   9  11
ENDBRANCH   2   5
BRANCH   1  20
ATOM     20  CA  GLU A   1       4.950   5.051  18.857  0.00  0.00    +0.000 C 
BRANCH  20  21
ATOM     21  C   GLU A   1       4.498   3.593  19.047  0.00  0.00    +0.000 C 
ATOM     22  O   GLU A   1       4.941   2.836  19.900  0.00  0.00    +0.000 OA
BRANCH  21  23
ATOM     23  OXT GLU A   1       3.515   3.218  18.194  0.00  0.00    +0.000 OA
ATOM     24  HXT GLU A   1       3.150   2.318  18.349  0.00  0.00    +0.000 HD
ENDBRANCH  21  23
ENDBRANCH  20  21
BRANCH  20  25
ATOM     25  CB  GLU A   1       6.408   5.265  19.314  0.00  0.00    +0.000 C 
BRANCH  25  26
ATOM     26  CG  GLU A   1       7.295   6.078  18.361  0.00  0.00    +0.000 C 
BRANCH  26  28
ATOM     27  OE1 GLU A   1       7.594   4.793  16.360  0.00  0.00    +0.000 OA
ATOM     28  CD  GLU A   1       7.107   5.784  16.891  0.00  0.00    +0.000 C 
BRANCH  28  29
ATOM     29  OE2 GLU A   1       6.432   6.715  16.186  0.00  0.00    +0.000 OA
ATOM     30  HE2 GLU A   1       6.867   7.577  16.046  0.00  0.00    +0.000 HD
ENDBRANCH  28  29
ENDBRANCH  26  28
ENDBRANCH  25  26
ENDBRANCH  20  25
ENDBRANCH   1  20
TORSDOF 9
ENDMDL
MODEL 6
REMARK VINA RESULT:      -7.6      1.145      1.491
REMARK  Name = 
REMARK  9 active torsions:
REMARK  status: ('A' for Active; 'I' for Inactive)
REMARK    1  A    between atoms: CD_2  and  OE2_3
REMARK    2  A    between atoms: CD_2  and  CG_4
REMARK    3  A    between atoms: CG_4  and  CB_5
REMARK    4  A    between atoms: CB_5  and  CA_6
REMARK    5  A    between atoms: CA_6  and  N_7
REMARK    6  A    between atoms: CA_6  and  C_24
REMARK    7  A    between atoms: C_8  and  C_10
REMARK    8  A    between atoms: C_14  and  C_15
REMARK    9  A    between atoms: C_24  and  OXT_26
REMARK                            x       y       z     vdW  Elec       q    Type
REMARK                         _______ _______ _______ _____ _____    ______ ____
ROOT
ATOM      1  N   GLU A   1       3.721   5.384  17.929  0.00  0.00    +0.000 N 
ATOM      2  C   UNK A   0       2.649   5.684  18.751  0.00  0.00    +0.000 C 
ATOM      3  O   UNK A   0       2.093   4.852  19.458  0.00  0.00    +0.000 OA
ATOM      4  H   GLU A   1       4.334   6.146  17.649  0.00  0.00    +0.000 HD
ENDROOT
BRANCH   2   5
ATOM      5  C   UNK A   0       2.228   7.107  18.776  0.00  0.00    +0.000 A 
ATOM      6  C   UNK A   0       2.541   7.950  17.704  0.00  0.00    +0.000 A 
ATOM      7  C   UNK A   0       2.199   9.298  17.758  0.00  0.00    +0.000 A 
ATOM      8  C   UNK A   0       1.564   9.813  18.890  0.00  0.00    +0.000 A 
ATOM      9  C   UNK A   0       1.253   8.978  19.970  0.00  0.00    +0.000 A 
ATOM     10  C   UNK A   0       1.557   7.612  19.897  0.00  0.00    +0.000 A 
BRANCH   9  11
ATOM     11  C   UNK A   0       0.697   9.562  21.196  0.00  0.00    +0.000 C 
ATOM     12  C   UNK A   0      -0.282  10.479  21.220  0.00  0.00    +0.000 C 
ATOM     13  S   UNK A   0      -1.128  11.160  19.877  0.00  0.00    +0.000 S 
ATOM     14  C   UNK A   0      -2.098  12.190  20.901  0.00  0.00    +0.000 C 
ATOM     15  S   UNK A   0      -3.238  13.282  20.403  0.00  0.00    +0.000 S 
ATOM     16  N   UNK A   0      -1.784  11.968  22.209  0.00  0.00    +0.000 N 
ATOM     17  C   UNK A   0      -0.805  11.057  22.484  0.00  0.00    +0.000 C 
ATOM     18  O   UNK A   0      -0.416  10.770  23.612  0.00  0.00    +0.000 OA
ATOM     19  H   UNK A   0      -2.234  12.472  22.955  0.00  0.00    +0.000 HD
ENDBRANCH   9  11
ENDBRANCH   2   5
BRANCH   1  20
ATOM     20  CA  GLU A   1       4.232   4.010  17.863  0.00  0.00    +0.000 C 
BRANCH  20  21
ATOM     21  C   GLU A   1       5.133   3.706  19.071  0.00  0.00    +0.000 C 
ATOM     22  O   GLU A   1       4.976   2.762  19.833  0.00  0.00    +0.000 OA
BRANCH  21  23
ATOM     23  OXT GLU A   1       6.167   4.572  19.204  0.00  0.00    +0.000 OA
ATOM     24  HXT GLU A   1       6.868   4.492  18.519  0.00  0.00    +0.000 HD
ENDBRANCH  21  23
ENDBRANCH  20  21
BRANCH  20  25
ATOM     25  CB  GLU A   1       4.959   3.762  16.526  0.00  0.00    +0.000 C 
BRANCH  25  26
ATOM     26  CG  GLU A   1       5.612   4.992  15.880  0.00  0.00    +0.000 C 
BRANCH  26  28
ATOM     27  OE1 GLU A   1       7.814   4.483  16.678  0.00  0.00    +0.000 OA
ATOM     28  CD  GLU A   1       7.119   4.950  15.783  0.00  0.00    +0.000 C 
BRANCH  28  29
ATOM     29  OE2 GLU A   1       7.655   5.522  14.686  0.00  0.00    +0.000 OA
ATOM     30  HE2 GLU A   1       8.616   5.421  14.549  0.00  0.00    +0.000 HD
ENDBRANCH  28  29
ENDBRANCH  26  28
ENDBRANCH  25  26
ENDBRANCH  20  25
ENDBRANCH   1  20
TORSDOF 9
ENDMDL
MODEL 7
REMARK VINA RESULT:      -7.6      4.495      8.944
REMARK  Name = 
REMARK  9 active torsions:
REMARK  status: ('A' for Active; 'I' for Inactive)
REMARK    1  A    between atoms: CD_2  and  OE2_3
REMARK    2  A    between atoms: CD_2  and  CG_4
REMARK    3  A    between atoms: CG_4  and  CB_5
REMARK    4  A    between atoms: CB_5  and  CA_6
REMARK    5  A    between atoms: CA_6  and  N_7
REMARK    6  A    between atoms: CA_6  and  C_24
REMARK    7  A    between atoms: C_8  and  C_10
REMARK    8  A    between atoms: C_14  and  C_15
REMARK    9  A    between atoms: C_24  and  OXT_26
REMARK                            x       y       z     vdW  Elec       q    Type
REMARK                         _______ _______ _______ _____ _____    ______ ____
ROOT
ATOM      1  N   GLU A   1       0.978   9.335  19.229  0.00  0.00    +0.000 N 
ATOM      2  C   UNK A   0       1.853   8.643  18.410  0.00  0.00    +0.000 C 
ATOM      3  O   UNK A   0       2.236   9.069  17.328  0.00  0.00    +0.000 OA
ATOM      4  H   GLU A   1       0.973   9.107  20.221  0.00  0.00    +0.000 HD
ENDROOT
BRANCH   2   5
ATOM      5  C   UNK A   0       2.358   7.354  18.943  0.00  0.00    +0.000 A 
ATOM      6  C   UNK A   0       1.603   6.636  19.876  0.00  0.00    +0.000 A 
ATOM      7  C   UNK A   0       2.107   5.458  20.420  0.00  0.00    +0.000 A 
ATOM      8  C   UNK A   0       3.375   5.005  20.051  0.00  0.00    +0.000 A 
ATOM      9  C   UNK A   0       4.142   5.721  19.123  0.00  0.00    +0.000 A 
ATOM     10  C   UNK A   0       3.615   6.882  18.541  0.00  0.00    +0.000 A 
BRANCH   9  11
ATOM     11  C   UNK A   0       5.517   5.294  18.841  0.00  0.00    +0.000 C 
ATOM     12  C   UNK A   0       5.973   4.968  17.623  0.00  0.00    +0.000 C 
ATOM     13  S   UNK A   0       5.109   4.992  16.128  0.00  0.00    +0.000 S 
ATOM     14  C   UNK A   0       6.485   4.409  15.224  0.00  0.00    +0.000 C 
ATOM     15  S   UNK A   0       6.536   4.089  13.602  0.00  0.00    +0.000 S 
ATOM     16  N   UNK A   0       7.552   4.248  16.059  0.00  0.00    +0.000 N 
ATOM     17  C   UNK A   0       7.370   4.523  17.385  0.00  0.00    +0.000 C 
ATOM     18  O   UNK A   0       8.237   4.411  18.246  0.00  0.00    +0.000 OA
ATOM     19  H   UNK A   0       8.441   3.914  15.726  0.00  0.00    +0.000 HD
ENDBRANCH   9  11
ENDBRANCH   2   5
BRANCH   1  20
ATOM     20  CA  GLU A   1       0.451  10.637  18.804  0.00  0.00    +0.000 C 
BRANCH  20  21
ATOM     21  C   GLU A   1       1.375  11.776  19.267  0.00  0.00    +0.000 C 
ATOM     22  O   GLU A   1       1.320  12.308  20.366  0.00  0.00    +0.000 OA
BRANCH  21  23
ATOM     23  OXT GLU A   1       2.304  12.125  18.345  0.00  0.00    +0.000 OA
ATOM     24  HXT GLU A   1       3.233  12.121  18.668  0.00  0.00    +0.000 HD
ENDBRANCH  21  23
ENDBRANCH  20  21
BRANCH  20  25
ATOM     25  CB  GLU A   1      -0.995  10.830  19.305  0.00  0.00    +0.000 C 
BRANCH  25  26
ATOM     26  CG  GLU A   1      -1.930  11.610  18.370  0.00  0.00    +0.000 C 
BRANCH  26  28
ATOM     27  OE1 GLU A   1      -2.747   9.675  17.215  0.00  0.00    +0.000 OA
ATOM     28  CD  GLU A   1      -2.409  10.852  17.154  0.00  0.00    +0.000 C 
BRANCH  28  29
ATOM     29  OE2 GLU A   1      -2.375  11.528  15.988  0.00  0.00    +0.000 OA
ATOM     30  HE2 GLU A   1      -1.508  11.629  15.551  0.00  0.00    +0.000 HD
ENDBRANCH  28  29
ENDBRANCH  26  28
ENDBRANCH  25  26
ENDBRANCH  20  25
ENDBRANCH   1  20
TORSDOF 9
ENDMDL
MODEL 8
REMARK VINA RESULT:      -7.6      2.504      4.269
REMARK  Name = 
REMARK  9 active torsions:
REMARK  status: ('A' for Active; 'I' for Inactive)
REMARK    1  A    between atoms: CD_2  and  OE2_3
REMARK    2  A    between atoms: CD_2  and  CG_4
REMARK    3  A    between atoms: CG_4  and  CB_5
REMARK    4  A    between atoms: CB_5  and  CA_6
REMARK    5  A    between atoms: CA_6  and  N_7
REMARK    6  A    between atoms: CA_6  and  C_24
REMARK    7  A    between atoms: C_8  and  C_10
REMARK    8  A    between atoms: C_14  and  C_15
REMARK    9  A    between atoms: C_24  and  OXT_26
REMARK                            x       y       z     vdW  Elec       q    Type
REMARK                         _______ _______ _______ _____ _____    ______ ____
ROOT
ATOM      1  N   GLU A   1       3.120   4.628  19.247  0.00  0.00    +0.000 N 
ATOM      2  C   UNK A   0       3.478   5.653  18.389  0.00  0.00    +0.000 C 
ATOM      3  O   UNK A   0       4.308   5.524  17.498  0.00  0.00    +0.000 OA
ATOM      4  H   GLU A   1       2.218   4.690  19.712  0.00  0.00    +0.000 HD
ENDROOT
BRANCH   2   5
ATOM      5  C   UNK A   0       2.750   6.934  18.570  0.00  0.00    +0.000 A 
ATOM      6  C   UNK A   0       2.696   7.864  17.526  0.00  0.00    +0.000 A 
ATOM      7  C   UNK A   0       2.066   9.090  17.719  0.00  0.00    +0.000 A 
ATOM      8  C   UNK A   0       1.507   9.400  18.960  0.00  0.00    +0.000 A 
ATOM      9  C   UNK A   0       1.561   8.477  20.013  0.00  0.00    +0.000 A 
ATOM     10  C   UNK A   0       2.156   7.226  19.805  0.00  0.00    +0.000 A 
BRANCH   9  11
ATOM     11  C   UNK A   0       1.076   8.870  21.342  0.00  0.00    +0.000 C 
ATOM     12  C   UNK A   0       0.172   9.837  21.561  0.00  0.00    +0.000 C 
ATOM     13  S   UNK A   0      -0.642  10.810  20.390  0.00  0.00    +0.000 S 
ATOM     14  C   UNK A   0      -1.509  11.706  21.612  0.00  0.00    +0.000 C 
ATOM     15  S   UNK A   0      -2.569  12.951  21.356  0.00  0.00    +0.000 S 
ATOM     16  N   UNK A   0      -1.189  11.230  22.849  0.00  0.00    +0.000 N 
ATOM     17  C   UNK A   0      -0.279  10.214  22.924  0.00  0.00    +0.000 C 
ATOM     18  O   UNK A   0       0.107   9.700  23.970  0.00  0.00    +0.000 OA
ATOM     19  H   UNK A   0      -1.584  11.622  23.688  0.00  0.00    +0.000 HD
ENDBRANCH   9  11
ENDBRANCH   2   5
BRANCH   1  20
ATOM     20  CA  GLU A   1       3.760   3.314  19.123  0.00  0.00    +0.000 C 
BRANCH  20  21
ATOM     21  C   GLU A   1       3.138   2.512  17.967  0.00  0.00    +0.000 C 
ATOM     22  O   GLU A   1       2.040   2.739  17.480  0.00  0.00    +0.000 OA
BRANCH  21  23
ATOM     23  OXT GLU A   1       3.944   1.530  17.497  0.00  0.00    +0.000 OA
ATOM     24  HXT GLU A   1       3.493   0.844  16.957  0.00  0.00    +0.000 HD
ENDBRANCH  21  23
ENDBRANCH  20  21
BRANCH  20  25
ATOM     25  CB  GLU A   1       3.691   2.545  20.459  0.00  0.00    +0.000 C 
BRANCH  25  26
ATOM     26  CG  GLU A   1       2.823   3.182  21.554  0.00  0.00    +0.000 C 
BRANCH  26  28
ATOM     27  OE1 GLU A   1       0.879   2.166  22.518  0.00  0.00    +0.000 OA
ATOM     28  CD  GLU A   1       1.375   2.753  21.564  0.00  0.00    +0.000 C 
BRANCH  28  29
ATOM     29  OE2 GLU A   1       0.682   2.992  20.432  0.00  0.00    +0.000 OA
ATOM     30  HE2 GLU A   1       0.996   3.715  19.855  0.00  0.00    +0.000 HD
ENDBRANCH  28  29
ENDBRANCH  26  28
ENDBRANCH  25  26
ENDBRANCH  20  25
ENDBRANCH   1  20
TORSDOF 9
ENDMDL
MODEL 9
REMARK VINA RESULT:      -7.6      2.201      3.195
REMARK  Name = 
REMARK  9 active torsions:
REMARK  status: ('A' for Active; 'I' for Inactive)
REMARK    1  A    between atoms: CD_2  and  OE2_3
REMARK    2  A    between atoms: CD_2  and  CG_4
REMARK    3  A    between atoms: CG_4  and  CB_5
REMARK    4  A    between atoms: CB_5  and  CA_6
REMARK    5  A    between atoms: CA_6  and  N_7
REMARK    6  A    between atoms: CA_6  and  C_24
REMARK    7  A    between atoms: C_8  and  C_10
REMARK    8  A    between atoms: C_14  and  C_15
REMARK    9  A    between atoms: C_24  and  OXT_26
REMARK                            x       y       z     vdW  Elec       q    Type
REMARK                         _______ _______ _______ _____ _____    ______ ____
ROOT
ATOM      1  N   GLU A   1       4.680   4.297  17.018  0.00  0.00    +0.000 N 
ATOM      2  C   UNK A   0       4.731   4.147  18.393  0.00  0.00    +0.000 C 
ATOM      3  O   UNK A   0       5.778   4.029  19.016  0.00  0.00    +0.000 OA
ATOM      4  H   GLU A   1       3.848   4.723  16.617  0.00  0.00    +0.000 HD
ENDROOT
BRANCH   2   5
ATOM      5  C   UNK A   0       3.426   4.191  19.099  0.00  0.00    +0.000 A 
ATOM      6  C   UNK A   0       2.496   3.162  18.919  0.00  0.00    +0.000 A 
ATOM      7  C   UNK A   0       1.249   3.237  19.534  0.00  0.00    +0.000 A 
ATOM      8  C   UNK A   0       0.920   4.348  20.313  0.00  0.00    +0.000 A 
ATOM      9  C   UNK A   0       1.843   5.386  20.494  0.00  0.00    +0.000 A 
ATOM     10  C   UNK A   0       3.114   5.289  19.912  0.00  0.00    +0.000 A 
BRANCH   9  11
ATOM     11  C   UNK A   0       1.434   6.597  21.215  0.00  0.00    +0.000 C 
ATOM     12  C   UNK A   0       1.388   7.821  20.670  0.00  0.00    +0.000 C 
ATOM     13  S   UNK A   0       1.753   8.271  19.043  0.00  0.00    +0.000 S 
ATOM     14  C   UNK A   0       1.438   9.961  19.348  0.00  0.00    +0.000 C 
ATOM     15  S   UNK A   0       1.585  11.203  18.264  0.00  0.00    +0.000 S 
ATOM     16  N   UNK A   0       1.039  10.130  20.641  0.00  0.00    +0.000 N 
ATOM     17  C   UNK A   0       0.984   9.025  21.441  0.00  0.00    +0.000 C 
ATOM     18  O   UNK A   0       0.654   9.034  22.624  0.00  0.00    +0.000 OA
ATOM     19  H   UNK A   0       0.814  11.039  21.013  0.00  0.00    +0.000 HD
ENDBRANCH   9  11
ENDBRANCH   2   5
BRANCH   1  20
ATOM     20  CA  GLU A   1       5.920   4.301  16.236  0.00  0.00    +0.000 C 
BRANCH  20  21
ATOM     21  C   GLU A   1       6.356   5.741  15.913  0.00  0.00    +0.000 C 
ATOM     22  O   GLU A   1       7.502   6.155  16.008  0.00  0.00    +0.000 OA
BRANCH  21  23
ATOM     23  OXT GLU A   1       5.343   6.523  15.468  0.00  0.00    +0.000 OA
ATOM     24  HXT GLU A   1       4.639   6.050  14.971  0.00  0.00    +0.000 HD
ENDBRANCH  21  23
ENDBRANCH  20  21
BRANCH  20  25
ATOM     25  CB  GLU A   1       5.764   3.449  14.960  0.00  0.00    +0.000 C 
BRANCH  25  26
ATOM     26  CG  GLU A   1       6.385   4.033  13.683  0.00  0.00    +0.000 C 
BRANCH  26  28
ATOM     27  OE1 GLU A   1       4.876   3.420  11.925  0.00  0.00    +0.000 OA
ATOM     28  CD  GLU A   1       6.003   3.335  12.399  0.00  0.00    +0.000 C 
BRANCH  28  29
ATOM     29  OE2 GLU A   1       6.956   2.556  11.845  0.00  0.00    +0.000 OA
ATOM     30  HE2 GLU A   1       7.661   3.000  11.338  0.00  0.00    +0.000 HD
ENDBRANCH  28  29
ENDBRANCH  26  28
ENDBRANCH  25  26
ENDBRANCH  20  25
ENDBRANCH   1  20
TORSDOF 9
ENDMDL
