MODEL 1
REMARK VINA RESULT:      -6.5      0.000      0.000
REMARK  Name = 
REMARK  11 active torsions:
REMARK  status: ('A' for Active; 'I' for Inactive)
REMARK    1  A    between atoms: C_1  and  O_2
REMARK    2  A    between atoms: O_2  and  C_3
REMARK    3  A    between atoms: C_4  and  C_5
REMARK    4  A    between atoms: C_5  and  O_6
REMARK    5  A    between atoms: C_5  and  C_7
REMARK    6  A    between atoms: C_7  and  C_8
REMARK    7  A    between atoms: C_8  and  C_9
REMARK    8  A    between atoms: C_8  and  C_10
REMARK    9  A    between atoms: C_21  and  C_22
REMARK   10  A    between atoms: C_22  and  O_23
REMARK   11  A    between atoms: C_25  and  O_26
REMARK                            x       y       z     vdW  Elec       q    Type
REMARK                         _______ _______ _______ _____ _____    ______ ____
ROOT
ATOM      1  C   UNL     1       1.192   8.942  20.560  0.00  0.00    +0.000 A 
ATOM      2  C   UNL     1       1.844   8.180  19.555  0.00  0.00    +0.000 A 
ATOM      3  C   UNL     1       1.824   8.635  18.221  0.00  0.00    +0.000 A 
ATOM      4  C   UNL     1       1.155   9.806  17.868  0.00  0.00    +0.000 A 
ATOM      5  C   UNL     1       0.464  10.533  18.833  0.00  0.00    +0.000 A 
ATOM      6  C   UNL     1       0.491  10.097  20.180  0.00  0.00    +0.000 A 
ATOM      7  C   UNL     1      -0.265  10.886  21.153  0.00  0.00    +0.000 C 
ATOM      8  O   UNL     1      -1.211  10.504  21.819  0.00  0.00    +0.000 OA
ATOM      9  O   UNL     1       0.260  12.134  21.107  0.00  0.00    +0.000 OA
ATOM     10  C   UNL     1      -0.715  13.147  20.839  0.00  0.00    +0.000 C 
ATOM     11  C   UNL     1      -1.770  12.671  19.860  0.00  0.00    +0.000 A 
ATOM     12  C   UNL     1      -3.122  12.837  20.192  0.00  0.00    +0.000 A 
ATOM     13  C   UNL     1      -4.135  12.291  19.392  0.00  0.00    +0.000 A 
ATOM     14  C   UNL     1      -3.779  11.587  18.230  0.00  0.00    +0.000 A 
ATOM     15  C   UNL     1      -2.437  11.424  17.886  0.00  0.00    +0.000 A 
ATOM     16  C   UNL     1      -1.432  11.934  18.709  0.00  0.00    +0.000 A 
ATOM     17  O   UNL     1      -0.105  11.720  18.393  0.00  0.00    +0.000 OA
ENDROOT
BRANCH   1  19
ATOM     18  C   UNL     1       1.871   9.166  22.882  0.00  0.00    +0.000 C 
ATOM     19  O   UNL     1       1.262   8.423  21.827  0.00  0.00    +0.000 OA
ENDBRANCH   1  19
BRANCH  15  20
ATOM     20  O   UNL     1      -2.093  10.736  16.756  0.00  0.00    +0.000 OA
ATOM     21  H   UNL     1      -1.543   9.977  17.010  0.00  0.00    +0.000 HD
ENDBRANCH  15  20
BRANCH   2  22
ATOM     22  C   UNL     1       2.592   6.888  19.847  0.00  0.00    +0.000 C 
BRANCH  22  23
ATOM     23  O   UNL     1       1.774   6.045  20.663  0.00  0.00    +0.000 OA
ATOM     24  H   UNL     1       2.219   5.179  20.675  0.00  0.00    +0.000 HD
ENDBRANCH  22  23
BRANCH  22  25
ATOM     25  C   UNL     1       3.043   6.089  18.612  0.00  0.00    +0.000 C 
BRANCH  25  26
ATOM     26  C   UNL     1       2.657   4.598  18.600  0.00  0.00    +0.000 C 
ATOM     27  C   UNL     1       1.505   4.299  17.640  0.00  0.00    +0.000 C 
ATOM     28  C   UNL     1       3.879   3.758  18.216  0.00  0.00    +0.000 C 
ENDBRANCH  25  26
ENDBRANCH  22  25
ENDBRANCH   2  22
BRANCH  13  29
ATOM     29  C   UNL     1      -5.565  12.369  19.862  0.00  0.00    +0.000 C 
BRANCH  29  30
ATOM     30  O   UNL     1      -5.678  12.008  21.231  0.00  0.00    +0.000 OA
ATOM     31  H   UNL     1      -4.823  11.625  21.488  0.00  0.00    +0.000 HD
ENDBRANCH  29  30
ENDBRANCH  13  29
TORSDOF 8
ENDMDL
MODEL 2
REMARK VINA RESULT:      -6.3      0.706      1.028
REMARK  Name = 
REMARK  11 active torsions:
REMARK  status: ('A' for Active; 'I' for Inactive)
REMARK    1  A    between atoms: C_1  and  O_2
REMARK    2  A    between atoms: O_2  and  C_3
REMARK    3  A    between atoms: C_4  and  C_5
REMARK    4  A    between atoms: C_5  and  O_6
REMARK    5  A    between atoms: C_5  and  C_7
REMARK    6  A    between atoms: C_7  and  C_8
REMARK    7  A    between atoms: C_8  and  C_9
REMARK    8  A    between atoms: C_8  and  C_10
REMARK    9  A    between atoms: C_21  and  C_22
REMARK   10  A    between atoms: C_22  and  O_23
REMARK   11  A    between atoms: C_25  and  O_26
REMARK                            x       y       z     vdW  Elec       q    Type
REMARK                         _______ _______ _______ _____ _____    ______ ____
ROOT
ATOM      1  C   UNL     1       1.272   8.803  20.425  0.00  0.00    +0.000 A 
ATOM      2  C   UNL     1       1.884   8.058  19.384  0.00  0.00    +0.000 A 
ATOM      3  C   UNL     1       1.852   8.557  18.066  0.00  0.00    +0.000 A 
ATOM      4  C   UNL     1       1.210   9.757  17.764  0.00  0.00    +0.000 A 
ATOM      5  C   UNL     1       0.558  10.470  18.766  0.00  0.00    +0.000 A 
ATOM      6  C   UNL     1       0.597   9.989  20.097  0.00  0.00    +0.000 A 
ATOM      7  C   UNL     1      -0.119  10.765  21.109  0.00  0.00    +0.000 C 
ATOM      8  O   UNL     1      -1.063  10.388  21.781  0.00  0.00    +0.000 OA
ATOM      9  O   UNL     1       0.441  12.000  21.094  0.00  0.00    +0.000 OA
ATOM     10  C   UNL     1      -0.511  13.047  20.879  0.00  0.00    +0.000 C 
ATOM     11  C   UNL     1      -1.596  12.634  19.905  0.00  0.00    +0.000 A 
ATOM     12  C   UNL     1      -2.937  12.826  20.267  0.00  0.00    +0.000 A 
ATOM     13  C   UNL     1      -3.979  12.335  19.470  0.00  0.00    +0.000 A 
ATOM     14  C   UNL     1      -3.665  11.660  18.279  0.00  0.00    +0.000 A 
ATOM     15  C   UNL     1      -2.333  11.472  17.904  0.00  0.00    +0.000 A 
ATOM     16  C   UNL     1      -1.300  11.927  18.724  0.00  0.00    +0.000 A 
ATOM     17  O   UNL     1       0.014  11.687  18.376  0.00  0.00    +0.000 OA
ENDROOT
BRANCH   1  19
ATOM     18  C   UNL     1       1.897   8.976  22.767  0.00  0.00    +0.000 C 
ATOM     19  O   UNL     1       1.350   8.240  21.674  0.00  0.00    +0.000 OA
ENDBRANCH   1  19
BRANCH  15  20
ATOM     20  O   UNL     1      -2.030  10.813  16.745  0.00  0.00    +0.000 OA
ATOM     21  H   UNL     1      -1.973  11.461  16.025  0.00  0.00    +0.000 HD
ENDBRANCH  15  20
BRANCH   2  22
ATOM     22  C   UNL     1       2.600   6.736  19.619  0.00  0.00    +0.000 C 
BRANCH  22  23
ATOM     23  O   UNL     1       1.772   5.887  20.419  0.00  0.00    +0.000 OA
ATOM     24  H   UNL     1       1.468   6.440  21.161  0.00  0.00    +0.000 HD
ENDBRANCH  22  23
BRANCH  22  25
ATOM     25  C   UNL     1       3.010   5.969  18.350  0.00  0.00    +0.000 C 
BRANCH  25  26
ATOM     26  C   UNL     1       4.519   5.943  18.042  0.00  0.00    +0.000 C 
ATOM     27  C   UNL     1       5.335   5.301  19.164  0.00  0.00    +0.000 C 
ATOM     28  C   UNL     1       4.760   5.184  16.733  0.00  0.00    +0.000 C 
ENDBRANCH  25  26
ENDBRANCH  22  25
ENDBRANCH   2  22
BRANCH  13  29
ATOM     29  C   UNL     1      -5.397  12.437  19.970  0.00  0.00    +0.000 C 
BRANCH  29  30
ATOM     30  O   UNL     1      -5.478  12.144  21.357  0.00  0.00    +0.000 OA
ATOM     31  H   UNL     1      -6.000  11.328  21.437  0.00  0.00    +0.000 HD
ENDBRANCH  29  30
ENDBRANCH  13  29
TORSDOF 8
ENDMDL
MODEL 3
REMARK VINA RESULT:      -6.1      1.407      1.683
REMARK  Name = 
REMARK  11 active torsions:
REMARK  status: ('A' for Active; 'I' for Inactive)
REMARK    1  A    between atoms: C_1  and  O_2
REMARK    2  A    between atoms: O_2  and  C_3
REMARK    3  A    between atoms: C_4  and  C_5
REMARK    4  A    between atoms: C_5  and  O_6
REMARK    5  A    between atoms: C_5  and  C_7
REMARK    6  A    between atoms: C_7  and  C_8
REMARK    7  A    between atoms: C_8  and  C_9
REMARK    8  A    between atoms: C_8  and  C_10
REMARK    9  A    between atoms: C_21  and  C_22
REMARK   10  A    between atoms: C_22  and  O_23
REMARK   11  A    between atoms: C_25  and  O_26
REMARK                            x       y       z     vdW  Elec       q    Type
REMARK                         _______ _______ _______ _____ _____    ______ ____
ROOT
ATOM      1  C   UNL     1       1.697   8.273  20.002  0.00  0.00    +0.000 A 
ATOM      2  C   UNL     1       2.252   7.764  18.799  0.00  0.00    +0.000 A 
ATOM      3  C   UNL     1       2.257   8.571  17.644  0.00  0.00    +0.000 A 
ATOM      4  C   UNL     1       1.704   9.851  17.655  0.00  0.00    +0.000 A 
ATOM      5  C   UNL     1       1.106  10.342  18.812  0.00  0.00    +0.000 A 
ATOM      6  C   UNL     1       1.110   9.548  19.985  0.00  0.00    +0.000 A 
ATOM      7  C   UNL     1       0.453  10.102  21.169  0.00  0.00    +0.000 C 
ATOM      8  O   UNL     1      -0.515   9.640  21.745  0.00  0.00    +0.000 OA
ATOM      9  O   UNL     1       1.102  11.260  21.445  0.00  0.00    +0.000 OA
ATOM     10  C   UNL     1       0.230  12.393  21.509  0.00  0.00    +0.000 C 
ATOM     11  C   UNL     1      -0.883  12.308  20.484  0.00  0.00    +0.000 A 
ATOM     12  C   UNL     1      -2.206  12.500  20.906  0.00  0.00    +0.000 A 
ATOM     13  C   UNL     1      -3.281  12.295  20.032  0.00  0.00    +0.000 A 
ATOM     14  C   UNL     1      -3.018  11.911  18.707  0.00  0.00    +0.000 A 
ATOM     15  C   UNL     1      -1.704  11.726  18.273  0.00  0.00    +0.000 A 
ATOM     16  C   UNL     1      -0.640  11.893  19.160  0.00  0.00    +0.000 A 
ATOM     17  O   UNL     1       0.653  11.652  18.741  0.00  0.00    +0.000 OA
ENDROOT
BRANCH   1  19
ATOM     18  C   UNL     1       1.094   6.145  21.007  0.00  0.00    +0.000 C 
ATOM     19  O   UNL     1       1.734   7.418  21.074  0.00  0.00    +0.000 OA
ENDBRANCH   1  19
BRANCH  15  20
ATOM     20  O   UNL     1      -1.449  11.351  16.983  0.00  0.00    +0.000 OA
ATOM     21  H   UNL     1      -2.137  10.727  16.701  0.00  0.00    +0.000 HD
ENDBRANCH  15  20
BRANCH   2  22
ATOM     22  C   UNL     1       2.870   6.377  18.692  0.00  0.00    +0.000 C 
BRANCH  22  23
ATOM     23  O   UNL     1       2.037   5.553  17.871  0.00  0.00    +0.000 OA
ATOM     24  H   UNL     1       1.148   5.601  18.267  0.00  0.00    +0.000 HD
ENDBRANCH  22  23
BRANCH  22  25
ATOM     25  C   UNL     1       4.305   6.331  18.139  0.00  0.00    +0.000 C 
BRANCH  25  26
ATOM     26  C   UNL     1       4.501   5.507  16.853  0.00  0.00    +0.000 C 
ATOM     27  C   UNL     1       5.239   6.288  15.764  0.00  0.00    +0.000 C 
ATOM     28  C   UNL     1       5.275   4.226  17.180  0.00  0.00    +0.000 C 
ENDBRANCH  25  26
ENDBRANCH  22  25
ENDBRANCH   2  22
BRANCH  13  29
ATOM     29  C   UNL     1      -4.688  12.372  20.567  0.00  0.00    +0.000 C 
BRANCH  29  30
ATOM     30  O   UNL     1      -4.703  12.348  21.986  0.00  0.00    +0.000 OA
ATOM     31  H   UNL     1      -4.307  11.502  22.253  0.00  0.00    +0.000 HD
ENDBRANCH  29  30
ENDBRANCH  13  29
TORSDOF 8
ENDMDL
MODEL 4
REMARK VINA RESULT:      -6.1      1.807      2.450
REMARK  Name = 
REMARK  11 active torsions:
REMARK  status: ('A' for Active; 'I' for Inactive)
REMARK    1  A    between atoms: C_1  and  O_2
REMARK    2  A    between atoms: O_2  and  C_3
REMARK    3  A    between atoms: C_4  and  C_5
REMARK    4  A    between atoms: C_5  and  O_6
REMARK    5  A    between atoms: C_5  and  C_7
REMARK    6  A    between atoms: C_7  and  C_8
REMARK    7  A    between atoms: C_8  and  C_9
REMARK    8  A    between atoms: C_8  and  C_10
REMARK    9  A    between atoms: C_21  and  C_22
REMARK   10  A    between atoms: C_22  and  O_23
REMARK   11  A    between atoms: C_25  and  O_26
REMARK                            x       y       z     vdW  Elec       q    Type
REMARK                         _______ _______ _______ _____ _____    ______ ____
ROOT
ATOM      1  C   UNL     1       0.582  10.490  21.139  0.00  0.00    +0.000 A 
ATOM      2  C   UNL     1       0.830   9.747  19.955  0.00  0.00    +0.000 A 
ATOM      3  C   UNL     1       0.225  10.151  18.747  0.00  0.00    +0.000 A 
ATOM      4  C   UNL     1      -0.630  11.250  18.700  0.00  0.00    +0.000 A 
ATOM      5  C   UNL     1      -0.927  11.954  19.864  0.00  0.00    +0.000 A 
ATOM      6  C   UNL     1      -0.312  11.570  21.081  0.00  0.00    +0.000 A 
ATOM      7  C   UNL     1      -0.670  12.330  22.279  0.00  0.00    +0.000 C 
ATOM      8  O   UNL     1      -1.222  11.899  23.275  0.00  0.00    +0.000 OA
ATOM      9  O   UNL     1      -0.322  13.615  22.021  0.00  0.00    +0.000 OA
ATOM     10  C   UNL     1      -1.406  14.535  22.178  0.00  0.00    +0.000 C 
ATOM     11  C   UNL     1      -2.723  13.941  21.719  0.00  0.00    +0.000 A 
ATOM     12  C   UNL     1      -3.830  14.010  22.577  0.00  0.00    +0.000 A 
ATOM     13  C   UNL     1      -5.028  13.355  22.264  0.00  0.00    +0.000 A 
ATOM     14  C   UNL     1      -5.119  12.640  21.059  0.00  0.00    +0.000 A 
ATOM     15  C   UNL     1      -4.027  12.573  20.193  0.00  0.00    +0.000 A 
ATOM     16  C   UNL     1      -2.822  13.193  20.530  0.00  0.00    +0.000 A 
ATOM     17  O   UNL     1      -1.728  13.074  19.697  0.00  0.00    +0.000 OA
ENDROOT
BRANCH   1  19
ATOM     18  C   UNL     1       0.476   9.324  23.268  0.00  0.00    +0.000 C 
ATOM     19  O   UNL     1       1.211  10.024  22.266  0.00  0.00    +0.000 OA
ENDBRANCH   1  19
BRANCH  15  20
ATOM     20  O   UNL     1      -4.117  11.875  19.021  0.00  0.00    +0.000 OA
ATOM     21  H   UNL     1      -3.510  12.273  18.376  0.00  0.00    +0.000 HD
ENDBRANCH  15  20
BRANCH   2  22
ATOM     22  C   UNL     1       1.742   8.531  19.914  0.00  0.00    +0.000 C 
BRANCH  22  23
ATOM     23  O   UNL     1       1.172   7.487  20.709  0.00  0.00    +0.000 OA
ATOM     24  H   UNL     1       1.895   6.855  20.870  0.00  0.00    +0.000 HD
ENDBRANCH  22  23
BRANCH  22  25
ATOM     25  C   UNL     1       2.042   7.974  18.512  0.00  0.00    +0.000 C 
BRANCH  25  26
ATOM     26  C   UNL     1       2.989   6.760  18.461  0.00  0.00    +0.000 C 
ATOM     27  C   UNL     1       2.263   5.466  18.092  0.00  0.00    +0.000 C 
ATOM     28  C   UNL     1       4.108   7.028  17.449  0.00  0.00    +0.000 C 
ENDBRANCH  25  26
ENDBRANCH  22  25
ENDBRANCH   2  22
BRANCH  13  29
ATOM     29  C   UNL     1      -6.141  13.335  23.280  0.00  0.00    +0.000 C 
BRANCH  29  30
ATOM     30  O   UNL     1      -5.639  13.120  24.591  0.00  0.00    +0.000 OA
ATOM     31  H   UNL     1      -4.892  13.730  24.704  0.00  0.00    +0.000 HD
ENDBRANCH  29  30
ENDBRANCH  13  29
TORSDOF 8
ENDMDL
MODEL 5
REMARK VINA RESULT:      -6.1      2.041      7.467
REMARK  Name = 
REMARK  11 active torsions:
REMARK  status: ('A' for Active; 'I' for Inactive)
REMARK    1  A    between atoms: C_1  and  O_2
REMARK    2  A    between atoms: O_2  and  C_3
REMARK    3  A    between atoms: C_4  and  C_5
REMARK    4  A    between atoms: C_5  and  O_6
REMARK    5  A    between atoms: C_5  and  C_7
REMARK    6  A    between atoms: C_7  and  C_8
REMARK    7  A    between atoms: C_8  and  C_9
REMARK    8  A    between atoms: C_8  and  C_10
REMARK    9  A    between atoms: C_21  and  C_22
REMARK   10  A    between atoms: C_22  and  O_23
REMARK   11  A    between atoms: C_25  and  O_26
REMARK                            x       y       z     vdW  Elec       q    Type
REMARK                         _______ _______ _______ _____ _____    ______ ____
ROOT
ATOM      1  C   UNL     1      -3.590  11.660  18.474  0.00  0.00    +0.000 A 
ATOM      2  C   UNL     1      -4.572  12.329  19.250  0.00  0.00    +0.000 A 
ATOM      3  C   UNL     1      -4.217  12.861  20.506  0.00  0.00    +0.000 A 
ATOM      4  C   UNL     1      -2.925  12.721  21.010  0.00  0.00    +0.000 A 
ATOM      5  C   UNL     1      -1.966  12.019  20.286  0.00  0.00    +0.000 A 
ATOM      6  C   UNL     1      -2.304  11.495  19.014  0.00  0.00    +0.000 A 
ATOM      7  C   UNL     1      -1.266  10.750  18.301  0.00  0.00    +0.000 C 
ATOM      8  O   UNL     1      -1.306   9.576  17.979  0.00  0.00    +0.000 OA
ATOM      9  O   UNL     1      -0.236  11.616  18.136  0.00  0.00    +0.000 OA
ATOM     10  C   UNL     1       1.001  11.125  18.661  0.00  0.00    +0.000 C 
ATOM     11  C   UNL     1       0.801  10.333  19.937  0.00  0.00    +0.000 A 
ATOM     12  C   UNL     1       1.382   9.061  20.042  0.00  0.00    +0.000 A 
ATOM     13  C   UNL     1       1.112   8.231  21.137  0.00  0.00    +0.000 A 
ATOM     14  C   UNL     1       0.262   8.698  22.153  0.00  0.00    +0.000 A 
ATOM     15  C   UNL     1      -0.314   9.966  22.064  0.00  0.00    +0.000 A 
ATOM     16  C   UNL     1      -0.075  10.772  20.950  0.00  0.00    +0.000 A 
ATOM     17  O   UNL     1      -0.694  12.001  20.840  0.00  0.00    +0.000 OA
ENDROOT
BRANCH   1  19
ATOM     18  C   UNL     1      -3.343  11.514  16.062  0.00  0.00    +0.000 C 
ATOM     19  O   UNL     1      -4.025  11.174  17.268  0.00  0.00    +0.000 OA
ENDBRANCH   1  19
BRANCH  15  20
ATOM     20  O   UNL     1      -1.144  10.418  23.052  0.00  0.00    +0.000 OA
ATOM     21  H   UNL     1      -2.054  10.424  22.715  0.00  0.00    +0.000 HD
ENDBRANCH  15  20
BRANCH   2  22
ATOM     22  C   UNL     1      -6.008  12.522  18.783  0.00  0.00    +0.000 C 
BRANCH  22  23
ATOM     23  O   UNL     1      -6.004  13.135  17.491  0.00  0.00    +0.000 OA
ATOM     24  H   UNL     1      -5.733  12.436  16.869  0.00  0.00    +0.000 HD
ENDBRANCH  22  23
BRANCH  22  25
ATOM     25  C   UNL     1      -6.863  11.245  18.721  0.00  0.00    +0.000 C 
BRANCH  25  26
ATOM     26  C   UNL     1      -6.898  10.398  20.007  0.00  0.00    +0.000 C 
ATOM     27  C   UNL     1      -7.916  10.917  21.022  0.00  0.00    +0.000 C 
ATOM     28  C   UNL     1      -7.221   8.944  19.652  0.00  0.00    +0.000 C 
ENDBRANCH  25  26
ENDBRANCH  22  25
ENDBRANCH   2  22
BRANCH  13  29
ATOM     29  C   UNL     1       1.642   6.820  21.138  0.00  0.00    +0.000 C 
BRANCH  29  30
ATOM     30  O   UNL     1       2.511   6.595  20.037  0.00  0.00    +0.000 OA
ATOM     31  H   UNL     1       2.167   5.816  19.568  0.00  0.00    +0.000 HD
ENDBRANCH  29  30
ENDBRANCH  13  29
TORSDOF 8
ENDMDL
MODEL 6
REMARK VINA RESULT:      -6.1      2.807      8.650
REMARK  Name = 
REMARK  11 active torsions:
REMARK  status: ('A' for Active; 'I' for Inactive)
REMARK    1  A    between atoms: C_1  and  O_2
REMARK    2  A    between atoms: O_2  and  C_3
REMARK    3  A    between atoms: C_4  and  C_5
REMARK    4  A    between atoms: C_5  and  O_6
REMARK    5  A    between atoms: C_5  and  C_7
REMARK    6  A    between atoms: C_7  and  C_8
REMARK    7  A    between atoms: C_8  and  C_9
REMARK    8  A    between atoms: C_8  and  C_10
REMARK    9  A    between atoms: C_21  and  C_22
REMARK   10  A    between atoms: C_22  and  O_23
REMARK   11  A    between atoms: C_25  and  O_26
REMARK                            x       y       z     vdW  Elec       q    Type
REMARK                         _______ _______ _______ _____ _____    ______ ____
ROOT
ATOM      1  C   UNL     1      -4.675  12.824  21.615  0.00  0.00    +0.000 A 
ATOM      2  C   UNL     1      -5.319  12.759  22.878  0.00  0.00    +0.000 A 
ATOM      3  C   UNL     1      -4.539  12.652  24.047  0.00  0.00    +0.000 A 
ATOM      4  C   UNL     1      -3.149  12.586  23.984  0.00  0.00    +0.000 A 
ATOM      5  C   UNL     1      -2.505  12.593  22.750  0.00  0.00    +0.000 A 
ATOM      6  C   UNL     1      -3.275  12.717  21.568  0.00  0.00    +0.000 A 
ATOM      7  C   UNL     1      -2.554  12.701  20.295  0.00  0.00    +0.000 C 
ATOM      8  O   UNL     1      -2.669  11.877  19.405  0.00  0.00    +0.000 OA
ATOM      9  O   UNL     1      -1.692  13.746  20.345  0.00  0.00    +0.000 OA
ATOM     10  C   UNL     1      -0.331  13.365  20.119  0.00  0.00    +0.000 C 
ATOM     11  C   UNL     1      -0.011  12.017  20.733  0.00  0.00    +0.000 A 
ATOM     12  C   UNL     1       0.612  11.044  19.939  0.00  0.00    +0.000 A 
ATOM     13  C   UNL     1       0.802   9.739  20.412  0.00  0.00    +0.000 A 
ATOM     14  C   UNL     1       0.377   9.416  21.711  0.00  0.00    +0.000 A 
ATOM     15  C   UNL     1      -0.236  10.380  22.513  0.00  0.00    +0.000 A 
ATOM     16  C   UNL     1      -0.460  11.666  22.022  0.00  0.00    +0.000 A 
ATOM     17  O   UNL     1      -1.118  12.598  22.799  0.00  0.00    +0.000 OA
ENDROOT
BRANCH   1  19
ATOM     18  C   UNL     1      -5.731  14.185  19.902  0.00  0.00    +0.000 C 
ATOM     19  O   UNL     1      -5.511  12.925  20.533  0.00  0.00    +0.000 OA
ENDBRANCH   1  19
BRANCH  15  20
ATOM     20  O   UNL     1      -0.651  10.063  23.776  0.00  0.00    +0.000 OA
ATOM     21  H   UNL     1      -0.018  10.433  24.413  0.00  0.00    +0.000 HD
ENDBRANCH  15  20
BRANCH   2  22
ATOM     22  C   UNL     1      -6.831  12.817  23.042  0.00  0.00    +0.000 C 
BRANCH  22  23
ATOM     23  O   UNL     1      -7.261  11.705  23.834  0.00  0.00    +0.000 OA
ATOM     24  H   UNL     1      -8.203  11.580  23.621  0.00  0.00    +0.000 HD
ENDBRANCH  22  23
BRANCH  22  25
ATOM     25  C   UNL     1      -7.381  14.109  23.668  0.00  0.00    +0.000 C 
BRANCH  25  26
ATOM     26  C   UNL     1      -6.814  15.423  23.099  0.00  0.00    +0.000 C 
ATOM     27  C   UNL     1      -7.910  16.371  22.611  0.00  0.00    +0.000 C 
ATOM     28  C   UNL     1      -5.970  16.122  24.170  0.00  0.00    +0.000 C 
ENDBRANCH  25  26
ENDBRANCH  22  25
ENDBRANCH   2  22
BRANCH  13  29
ATOM     29  C   UNL     1       1.343   8.690  19.474  0.00  0.00    +0.000 C 
BRANCH  29  30
ATOM     30  O   UNL     1       2.052   7.682  20.181  0.00  0.00    +0.000 OA
ATOM     31  H   UNL     1       2.002   7.918  21.122  0.00  0.00    +0.000 HD
ENDBRANCH  29  30
ENDBRANCH  13  29
TORSDOF 8
ENDMDL
MODEL 7
REMARK VINA RESULT:      -6.0      1.290      1.553
REMARK  Name = 
REMARK  11 active torsions:
REMARK  status: ('A' for Active; 'I' for Inactive)
REMARK    1  A    between atoms: C_1  and  O_2
REMARK    2  A    between atoms: O_2  and  C_3
REMARK    3  A    between atoms: C_4  and  C_5
REMARK    4  A    between atoms: C_5  and  O_6
REMARK    5  A    between atoms: C_5  and  C_7
REMARK    6  A    between atoms: C_7  and  C_8
REMARK    7  A    between atoms: C_8  and  C_9
REMARK    8  A    between atoms: C_8  and  C_10
REMARK    9  A    between atoms: C_21  and  C_22
REMARK   10  A    between atoms: C_22  and  O_23
REMARK   11  A    between atoms: C_25  and  O_26
REMARK                            x       y       z     vdW  Elec       q    Type
REMARK                         _______ _______ _______ _____ _____    ______ ____
ROOT
ATOM      1  C   UNL     1       0.815   9.580  21.041  0.00  0.00    +0.000 A 
ATOM      2  C   UNL     1       1.298   9.031  19.825  0.00  0.00    +0.000 A 
ATOM      3  C   UNL     1       1.051   9.709  18.614  0.00  0.00    +0.000 A 
ATOM      4  C   UNL     1       0.321  10.895  18.587  0.00  0.00    +0.000 A 
ATOM      5  C   UNL     1      -0.207  11.416  19.764  0.00  0.00    +0.000 A 
ATOM      6  C   UNL     1       0.048  10.755  20.990  0.00  0.00    +0.000 A 
ATOM      7  C   UNL     1      -0.544  11.333  22.197  0.00  0.00    +0.000 C 
ATOM      8  O   UNL     1      -1.362  10.805  22.929  0.00  0.00    +0.000 OA
ATOM      9  O   UNL     1      -0.046  12.591  22.289  0.00  0.00    +0.000 OA
ATOM     10  C   UNL     1      -1.063  13.595  22.366  0.00  0.00    +0.000 C 
ATOM     11  C   UNL     1      -2.261  13.255  21.503  0.00  0.00    +0.000 A 
ATOM     12  C   UNL     1      -3.541  13.307  22.072  0.00  0.00    +0.000 A 
ATOM     13  C   UNL     1      -4.667  12.868  21.363  0.00  0.00    +0.000 A 
ATOM     14  C   UNL     1      -4.502  12.390  20.053  0.00  0.00    +0.000 A 
ATOM     15  C   UNL     1      -3.234  12.342  19.472  0.00  0.00    +0.000 A 
ATOM     16  C   UNL     1      -2.111  12.742  20.199  0.00  0.00    +0.000 A 
ATOM     17  O   UNL     1      -0.854  12.638  19.640  0.00  0.00    +0.000 OA
ENDROOT
BRANCH   1  19
ATOM     18  C   UNL     1       2.044   9.336  23.122  0.00  0.00    +0.000 C 
ATOM     19  O   UNL     1       1.100   8.853  22.168  0.00  0.00    +0.000 OA
ENDBRANCH   1  19
BRANCH  15  20
ATOM     20  O   UNL     1      -3.076  11.875  18.198  0.00  0.00    +0.000 OA
ATOM     21  H   UNL     1      -3.846  11.329  17.970  0.00  0.00    +0.000 HD
ENDBRANCH  15  20
BRANCH   2  22
ATOM     22  C   UNL     1       2.097   7.738  19.758  0.00  0.00    +0.000 C 
BRANCH  22  23
ATOM     23  O   UNL     1       1.534   6.788  20.668  0.00  0.00    +0.000 OA
ATOM     24  H   UNL     1       1.828   5.915  20.352  0.00  0.00    +0.000 HD
ENDBRANCH  22  23
BRANCH  22  25
ATOM     25  C   UNL     1       2.194   7.089  18.367  0.00  0.00    +0.000 C 
BRANCH  25  26
ATOM     26  C   UNL     1       2.841   5.692  18.323  0.00  0.00    +0.000 C 
ATOM     27  C   UNL     1       1.881   4.618  17.809  0.00  0.00    +0.000 C 
ATOM     28  C   UNL     1       4.088   5.735  17.434  0.00  0.00    +0.000 C 
ENDBRANCH  25  26
ENDBRANCH  22  25
ENDBRANCH   2  22
BRANCH  13  29
ATOM     29  C   UNL     1      -5.999  12.807  22.065  0.00  0.00    +0.000 C 
BRANCH  29  30
ATOM     30  O   UNL     1      -5.858  12.352  23.403  0.00  0.00    +0.000 OA
ATOM     31  H   UNL     1      -5.653  11.404  23.352  0.00  0.00    +0.000 HD
ENDBRANCH  29  30
ENDBRANCH  13  29
TORSDOF 8
ENDMDL
MODEL 8
REMARK VINA RESULT:      -6.0      1.767      7.642
REMARK  Name = 
REMARK  11 active torsions:
REMARK  status: ('A' for Active; 'I' for Inactive)
REMARK    1  A    between atoms: C_1  and  O_2
REMARK    2  A    between atoms: O_2  and  C_3
REMARK    3  A    between atoms: C_4  and  C_5
REMARK    4  A    between atoms: C_5  and  O_6
REMARK    5  A    between atoms: C_5  and  C_7
REMARK    6  A    between atoms: C_7  and  C_8
REMARK    7  A    between atoms: C_8  and  C_9
REMARK    8  A    between atoms: C_8  and  C_10
REMARK    9  A    between atoms: C_21  and  C_22
REMARK   10  A    between atoms: C_22  and  O_23
REMARK   11  A    between atoms: C_25  and  O_26
REMARK                            x       y       z     vdW  Elec       q    Type
REMARK                         _______ _______ _______ _____ _____    ______ ____
ROOT
ATOM      1  C   UNL     1      -3.408  12.111  19.036  0.00  0.00    +0.000 A 
ATOM      2  C   UNL     1      -4.369  12.510  20.001  0.00  0.00    +0.000 A 
ATOM      3  C   UNL     1      -3.973  12.673  21.344  0.00  0.00    +0.000 A 
ATOM      4  C   UNL     1      -2.662  12.425  21.745  0.00  0.00    +0.000 A 
ATOM      5  C   UNL     1      -1.722  11.978  20.821  0.00  0.00    +0.000 A 
ATOM      6  C   UNL     1      -2.101  11.828  19.465  0.00  0.00    +0.000 A 
ATOM      7  C   UNL     1      -1.082  11.339  18.536  0.00  0.00    +0.000 C 
ATOM      8  O   UNL     1      -1.119  10.303  17.896  0.00  0.00    +0.000 OA
ATOM      9  O   UNL     1      -0.069  12.239  18.590  0.00  0.00    +0.000 OA
ATOM     10  C   UNL     1       1.193  11.647  18.913  0.00  0.00    +0.000 C 
ATOM     11  C   UNL     1       1.050  10.522  19.918  0.00  0.00    +0.000 A 
ATOM     12  C   UNL     1       1.650   9.286  19.639  0.00  0.00    +0.000 A 
ATOM     13  C   UNL     1       1.432   8.174  20.462  0.00  0.00    +0.000 A 
ATOM     14  C   UNL     1       0.615   8.316  21.596  0.00  0.00    +0.000 A 
ATOM     15  C   UNL     1       0.020   9.544  21.889  0.00  0.00    +0.000 A 
ATOM     16  C   UNL     1       0.208  10.637  21.042  0.00  0.00    +0.000 A 
ATOM     17  O   UNL     1      -0.429  11.832  21.306  0.00  0.00    +0.000 OA
ENDROOT
BRANCH   1  19
ATOM     18  C   UNL     1      -4.207  10.689  17.235  0.00  0.00    +0.000 C 
ATOM     19  O   UNL     1      -3.882  11.977  17.756  0.00  0.00    +0.000 OA
ENDBRANCH   1  19
BRANCH  15  20
ATOM     20  O   UNL     1      -0.776   9.679  22.991  0.00  0.00    +0.000 OA
ATOM     21  H   UNL     1      -0.800   8.830  23.463  0.00  0.00    +0.000 HD
ENDBRANCH  15  20
BRANCH   2  22
ATOM     22  C   UNL     1      -5.823  12.796  19.656  0.00  0.00    +0.000 C 
BRANCH  22  23
ATOM     23  O   UNL     1      -5.876  13.633  18.497  0.00  0.00    +0.000 OA
ATOM     24  H   UNL     1      -6.332  14.446  18.781  0.00  0.00    +0.000 HD
ENDBRANCH  22  23
BRANCH  22  25
ATOM     25  C   UNL     1      -6.701  11.558  19.409  0.00  0.00    +0.000 C 
BRANCH  25  26
ATOM     26  C   UNL     1      -7.796  11.293  20.460  0.00  0.00    +0.000 C 
ATOM     27  C   UNL     1      -7.810   9.840  20.937  0.00  0.00    +0.000 C 
ATOM     28  C   UNL     1      -7.591  12.225  21.658  0.00  0.00    +0.000 C 
ENDBRANCH  25  26
ENDBRANCH  22  25
ENDBRANCH   2  22
BRANCH  13  29
ATOM     29  C   UNL     1       1.979   6.833  20.045  0.00  0.00    +0.000 C 
BRANCH  29  30
ATOM     30  O   UNL     1       2.002   5.923  21.135  0.00  0.00    +0.000 OA
ATOM     31  H   UNL     1       2.867   6.029  21.565  0.00  0.00    +0.000 HD
ENDBRANCH  29  30
ENDBRANCH  13  29
TORSDOF 8
ENDMDL
MODEL 9
REMARK VINA RESULT:      -6.0      1.318      1.728
REMARK  Name = 
REMARK  11 active torsions:
REMARK  status: ('A' for Active; 'I' for Inactive)
REMARK    1  A    between atoms: C_1  and  O_2
REMARK    2  A    between atoms: O_2  and  C_3
REMARK    3  A    between atoms: C_4  and  C_5
REMARK    4  A    between atoms: C_5  and  O_6
REMARK    5  A    between atoms: C_5  and  C_7
REMARK    6  A    between atoms: C_7  and  C_8
REMARK    7  A    between atoms: C_8  and  C_9
REMARK    8  A    between atoms: C_8  and  C_10
REMARK    9  A    between atoms: C_21  and  C_22
REMARK   10  A    between atoms: C_22  and  O_23
REMARK   11  A    between atoms: C_25  and  O_26
REMARK                            x       y       z     vdW  Elec       q    Type
REMARK                         _______ _______ _______ _____ _____    ______ ____
ROOT
ATOM      1  C   UNL     1       0.560  10.241  21.012  0.00  0.00    +0.000 A 
ATOM      2  C   UNL     1       0.978   9.353  19.987  0.00  0.00    +0.000 A 
ATOM      3  C   UNL     1       0.528   9.559  18.667  0.00  0.00    +0.000 A 
ATOM      4  C   UNL     1      -0.339  10.605  18.355  0.00  0.00    +0.000 A 
ATOM      5  C   UNL     1      -0.801  11.451  19.359  0.00  0.00    +0.000 A 
ATOM      6  C   UNL     1      -0.343  11.266  20.686  0.00  0.00    +0.000 A 
ATOM      7  C   UNL     1      -0.873  12.169  21.708  0.00  0.00    +0.000 C 
ATOM      8  O   UNL     1      -1.541  11.857  22.678  0.00  0.00    +0.000 OA
ATOM      9  O   UNL     1      -0.523  13.418  21.316  0.00  0.00    +0.000 OA
ATOM     10  C   UNL     1      -1.640  14.306  21.201  0.00  0.00    +0.000 C 
ATOM     11  C   UNL     1      -2.871  13.600  20.669  0.00  0.00    +0.000 A 
ATOM     12  C   UNL     1      -4.082  13.741  21.360  0.00  0.00    +0.000 A 
ATOM     13  C   UNL     1      -5.214  13.001  20.995  0.00  0.00    +0.000 A 
ATOM     14  C   UNL     1      -5.130  12.122  19.903  0.00  0.00    +0.000 A 
ATOM     15  C   UNL     1      -3.931  11.981  19.201  0.00  0.00    +0.000 A 
ATOM     16  C   UNL     1      -2.796  12.690  19.596  0.00  0.00    +0.000 A 
ATOM     17  O   UNL     1      -1.600  12.503  18.934  0.00  0.00    +0.000 OA
ENDROOT
BRANCH   1  19
ATOM     18  C   UNL     1       0.203   9.379  23.254  0.00  0.00    +0.000 C 
ATOM     19  O   UNL     1       1.046   9.963  22.263  0.00  0.00    +0.000 OA
ENDBRANCH   1  19
BRANCH  15  20
ATOM     20  O   UNL     1      -3.851  11.124  18.139  0.00  0.00    +0.000 OA
ATOM     21  H   UNL     1      -4.699  10.660  18.050  0.00  0.00    +0.000 HD
ENDBRANCH  15  20
BRANCH   2  22
ATOM     22  C   UNL     1       1.916   8.181  20.235  0.00  0.00    +0.000 C 
BRANCH  22  23
ATOM     23  O   UNL     1       1.289   7.258  21.130  0.00  0.00    +0.000 OA
ATOM     24  H   UNL     1       1.075   7.771  21.930  0.00  0.00    +0.000 HD
ENDBRANCH  22  23
BRANCH  22  25
ATOM     25  C   UNL     1       2.371   7.418  18.980  0.00  0.00    +0.000 C 
BRANCH  25  26
ATOM     26  C   UNL     1       2.599   5.905  19.162  0.00  0.00    +0.000 C 
ATOM     27  C   UNL     1       2.049   5.086  17.993  0.00  0.00    +0.000 C 
ATOM     28  C   UNL     1       4.098   5.630  19.322  0.00  0.00    +0.000 C 
ENDBRANCH  25  26
ENDBRANCH  22  25
ENDBRANCH   2  22
BRANCH  13  29
ATOM     29  C   UNL     1      -6.450  13.076  21.855  0.00  0.00    +0.000 C 
BRANCH  29  30
ATOM     30  O   UNL     1      -6.982  11.784  22.108  0.00  0.00    +0.000 OA
ATOM     31  H   UNL     1      -6.506  11.170  21.525  0.00  0.00    +0.000 HD
ENDBRANCH  29  30
ENDBRANCH  13  29
TORSDOF 8
ENDMDL
