MODEL 1
REMARK VINA RESULT:      -6.6      0.000      0.000
REMARK  Name = 
REMARK  10 active torsions:
REMARK  status: ('A' for Active; 'I' for Inactive)
REMARK    1  A    between atoms: C_1  and  O_2
REMARK    2  A    between atoms: O_2  and  P_3
REMARK    3  A    between atoms: P_3  and  N_4
REMARK    4  A    between atoms: P_3  and  O_6
REMARK    5  A    between atoms: O_6  and  C_7
REMARK    6  A    between atoms: C_12  and  C_13
REMARK    7  A    between atoms: C_13  and  O_15
REMARK    8  A    between atoms: O_15  and  C_16
REMARK    9  A    between atoms: C_16  and  C_17
REMARK   10  A    between atoms: C_16  and  C_18
REMARK                            x       y       z     vdW  Elec       q    Type
REMARK                         _______ _______ _______ _____ _____    ______ ____
ROOT
ATOM      1  C   UNL     1       4.414   4.495  17.605  0.00  0.00    +0.000 A 
ATOM      2  C   UNL     1       3.344   5.301  18.001  0.00  0.00    +0.000 A 
ATOM      3  C   UNL     1       3.367   6.682  17.795  0.00  0.00    +0.000 A 
ATOM      4  C   UNL     1       4.468   7.271  17.177  0.00  0.00    +0.000 A 
ATOM      5  C   UNL     1       5.538   6.481  16.752  0.00  0.00    +0.000 A 
ATOM      6  C   UNL     1       5.535   5.085  16.947  0.00  0.00    +0.000 A 
ENDROOT
BRANCH   6   7
ATOM      7  C   UNL     1       6.696   4.339  16.351  0.00  0.00    +0.000 C 
ATOM      8  O   UNL     1       7.824   4.410  16.810  0.00  0.00    +0.000 OA
BRANCH   7   9
ATOM      9  O   UNL     1       6.360   3.658  15.220  0.00  0.00    +0.000 OA
BRANCH   9  10
ATOM     10  C   UNL     1       6.202   4.421  13.990  0.00  0.00    +0.000 C 
ATOM     11  C   UNL     1       7.513   5.098  13.599  0.00  0.00    +0.000 C 
ATOM     12  C   UNL     1       5.779   3.467  12.870  0.00  0.00    +0.000 C 
ENDBRANCH   9  10
ENDBRANCH   7   9
ENDBRANCH   6   7
BRANCH   1  13
ATOM     13  O   UNL     1       4.214   3.162  17.971  0.00  0.00    +0.000 OA
BRANCH  13  14
ATOM     14  P   UNL     1       3.658   2.923  19.592  0.00  0.00    +0.000 P 
ATOM     15  S   UNL     1       2.059   1.931  18.851  0.00  0.00    +0.000 S 
BRANCH  14  16
ATOM     16  N   UNL     1       4.914   1.834  19.899  0.00  0.00    +0.000 NA
ATOM     17  H   UNL     1       4.971   1.720  20.905  0.00  0.00    +0.000 HD
ATOM     18  H   UNL     1       5.788   2.260  19.612  0.00  0.00    +0.000 HD
ENDBRANCH  14  16
BRANCH  14  20
ATOM     19  C   UNL     1       1.700   2.815  21.401  0.00  0.00    +0.000 C 
ATOM     20  O   UNL     1       3.104   2.684  21.214  0.00  0.00    +0.000 OA
ENDBRANCH  14  20
ENDBRANCH  13  14
ENDBRANCH   1  13
TORSDOF 7
ENDMDL
MODEL 2
REMARK VINA RESULT:      -6.5      0.960      1.208
REMARK  Name = 
REMARK  10 active torsions:
REMARK  status: ('A' for Active; 'I' for Inactive)
REMARK    1  A    between atoms: C_1  and  O_2
REMARK    2  A    between atoms: O_2  and  P_3
REMARK    3  A    between atoms: P_3  and  N_4
REMARK    4  A    between atoms: P_3  and  O_6
REMARK    5  A    between atoms: O_6  and  C_7
REMARK    6  A    between atoms: C_12  and  C_13
REMARK    7  A    between atoms: C_13  and  O_15
REMARK    8  A    between atoms: O_15  and  C_16
REMARK    9  A    between atoms: C_16  and  C_17
REMARK   10  A    between atoms: C_16  and  C_18
REMARK                            x       y       z     vdW  Elec       q    Type
REMARK                         _______ _______ _______ _____ _____    ______ ____
ROOT
ATOM      1  C   UNL     1       5.065   4.789  18.147  0.00  0.00    +0.000 A 
ATOM      2  C   UNL     1       3.847   5.310  18.589  0.00  0.00    +0.000 A 
ATOM      3  C   UNL     1       3.400   6.562  18.159  0.00  0.00    +0.000 A 
ATOM      4  C   UNL     1       4.172   7.304  17.269  0.00  0.00    +0.000 A 
ATOM      5  C   UNL     1       5.382   6.792  16.796  0.00  0.00    +0.000 A 
ATOM      6  C   UNL     1       5.852   5.530  17.214  0.00  0.00    +0.000 A 
ENDROOT
BRANCH   6   7
ATOM      7  C   UNL     1       7.113   5.050  16.552  0.00  0.00    +0.000 C 
ATOM      8  O   UNL     1       7.941   4.372  17.137  0.00  0.00    +0.000 OA
BRANCH   7   9
ATOM      9  O   UNL     1       7.250   5.517  15.280  0.00  0.00    +0.000 OA
BRANCH   9  10
ATOM     10  C   UNL     1       7.186   4.553  14.191  0.00  0.00    +0.000 C 
ATOM     11  C   UNL     1       5.746   4.109  13.945  0.00  0.00    +0.000 C 
ATOM     12  C   UNL     1       7.732   5.207  12.919  0.00  0.00    +0.000 C 
ENDBRANCH   9  10
ENDBRANCH   7   9
ENDBRANCH   6   7
BRANCH   1  13
ATOM     13  O   UNL     1       5.349   3.564  18.755  0.00  0.00    +0.000 OA
BRANCH  13  14
ATOM     14  P   UNL     1       4.054   2.889  19.683  0.00  0.00    +0.000 P 
ATOM     15  S   UNL     1       3.373   1.995  18.000  0.00  0.00    +0.000 S 
BRANCH  14  16
ATOM     16  N   UNL     1       5.123   1.854  20.486  0.00  0.00    +0.000 NA
ATOM     17  H   UNL     1       4.564   1.128  20.921  0.00  0.00    +0.000 HD
ATOM     18  H   UNL     1       5.560   2.367  21.244  0.00  0.00    +0.000 HD
ENDBRANCH  14  16
BRANCH  14  20
ATOM     19  C   UNL     1       1.473   2.758  20.346  0.00  0.00    +0.000 C 
ATOM     20  O   UNL     1       2.760   2.213  20.612  0.00  0.00    +0.000 OA
ENDBRANCH  14  20
ENDBRANCH  13  14
ENDBRANCH   1  13
TORSDOF 7
ENDMDL
MODEL 3
REMARK VINA RESULT:      -6.4      0.631      1.040
REMARK  Name = 
REMARK  10 active torsions:
REMARK  status: ('A' for Active; 'I' for Inactive)
REMARK    1  A    between atoms: C_1  and  O_2
REMARK    2  A    between atoms: O_2  and  P_3
REMARK    3  A    between atoms: P_3  and  N_4
REMARK    4  A    between atoms: P_3  and  O_6
REMARK    5  A    between atoms: O_6  and  C_7
REMARK    6  A    between atoms: C_12  and  C_13
REMARK    7  A    between atoms: C_13  and  O_15
REMARK    8  A    between atoms: O_15  and  C_16
REMARK    9  A    between atoms: C_16  and  C_17
REMARK   10  A    between atoms: C_16  and  C_18
REMARK                            x       y       z     vdW  Elec       q    Type
REMARK                         _______ _______ _______ _____ _____    ______ ____
ROOT
ATOM      1  C   UNL     1       4.371   4.665  17.652  0.00  0.00    +0.000 A 
ATOM      2  C   UNL     1       3.369   5.330  18.362  0.00  0.00    +0.000 A 
ATOM      3  C   UNL     1       3.143   6.697  18.181  0.00  0.00    +0.000 A 
ATOM      4  C   UNL     1       3.923   7.412  17.275  0.00  0.00    +0.000 A 
ATOM      5  C   UNL     1       4.915   6.763  16.539  0.00  0.00    +0.000 A 
ATOM      6  C   UNL     1       5.158   5.384  16.703  0.00  0.00    +0.000 A 
ENDROOT
BRANCH   6   7
ATOM      7  C   UNL     1       6.180   4.786  15.777  0.00  0.00    +0.000 C 
ATOM      8  O   UNL     1       7.319   4.534  16.135  0.00  0.00    +0.000 OA
BRANCH   7   9
ATOM      9  O   UNL     1       5.717   4.639  14.505  0.00  0.00    +0.000 OA
BRANCH   9  10
ATOM     10  C   UNL     1       6.591   3.999  13.533  0.00  0.00    +0.000 C 
ATOM     11  C   UNL     1       5.777   3.328  12.430  0.00  0.00    +0.000 C 
ATOM     12  C   UNL     1       7.496   5.064  12.907  0.00  0.00    +0.000 C 
ENDBRANCH   9  10
ENDBRANCH   7   9
ENDBRANCH   6   7
BRANCH   1  13
ATOM     13  O   UNL     1       4.470   3.327  18.039  0.00  0.00    +0.000 OA
BRANCH  13  14
ATOM     14  P   UNL     1       3.748   2.949  19.565  0.00  0.00    +0.000 P 
ATOM     15  S   UNL     1       2.299   1.938  18.581  0.00  0.00    +0.000 S 
BRANCH  14  16
ATOM     16  N   UNL     1       5.018   1.900  19.945  0.00  0.00    +0.000 NA
ATOM     17  H   UNL     1       5.345   2.150  20.872  0.00  0.00    +0.000 HD
ATOM     18  H   UNL     1       5.790   2.085  19.314  0.00  0.00    +0.000 HD
ENDBRANCH  14  16
BRANCH  14  20
ATOM     19  C   UNL     1       2.117   3.544  21.591  0.00  0.00    +0.000 C 
ATOM     20  O   UNL     1       3.028   2.572  21.093  0.00  0.00    +0.000 OA
ENDBRANCH  14  20
ENDBRANCH  13  14
ENDBRANCH   1  13
TORSDOF 7
ENDMDL
MODEL 4
REMARK VINA RESULT:      -6.3      1.650      2.674
REMARK  Name = 
REMARK  10 active torsions:
REMARK  status: ('A' for Active; 'I' for Inactive)
REMARK    1  A    between atoms: C_1  and  O_2
REMARK    2  A    between atoms: O_2  and  P_3
REMARK    3  A    between atoms: P_3  and  N_4
REMARK    4  A    between atoms: P_3  and  O_6
REMARK    5  A    between atoms: O_6  and  C_7
REMARK    6  A    between atoms: C_12  and  C_13
REMARK    7  A    between atoms: C_13  and  O_15
REMARK    8  A    between atoms: O_15  and  C_16
REMARK    9  A    between atoms: C_16  and  C_17
REMARK   10  A    between atoms: C_16  and  C_18
REMARK                            x       y       z     vdW  Elec       q    Type
REMARK                         _______ _______ _______ _____ _____    ______ ____
ROOT
ATOM      1  C   UNL     1       3.990   5.192  17.961  0.00  0.00    +0.000 A 
ATOM      2  C   UNL     1       2.926   5.601  18.767  0.00  0.00    +0.000 A 
ATOM      3  C   UNL     1       2.449   6.914  18.720  0.00  0.00    +0.000 A 
ATOM      4  C   UNL     1       3.037   7.832  17.853  0.00  0.00    +0.000 A 
ATOM      5  C   UNL     1       4.087   7.437  17.022  0.00  0.00    +0.000 A 
ATOM      6  C   UNL     1       4.582   6.117  17.050  0.00  0.00    +0.000 A 
ENDROOT
BRANCH   6   7
ATOM      7  C   UNL     1       5.641   5.795  16.034  0.00  0.00    +0.000 C 
ATOM      8  O   UNL     1       5.387   5.241  14.977  0.00  0.00    +0.000 OA
BRANCH   7   9
ATOM      9  O   UNL     1       6.895   6.116  16.459  0.00  0.00    +0.000 OA
BRANCH   9  10
ATOM     10  C   UNL     1       7.026   6.772  17.752  0.00  0.00    +0.000 C 
ATOM     11  C   UNL     1       7.755   5.871  18.746  0.00  0.00    +0.000 C 
ATOM     12  C   UNL     1       7.825   8.065  17.570  0.00  0.00    +0.000 C 
ENDBRANCH   9  10
ENDBRANCH   7   9
ENDBRANCH   6   7
BRANCH   1  13
ATOM     13  O   UNL     1       4.348   3.867  18.220  0.00  0.00    +0.000 OA
BRANCH  13  14
ATOM     14  P   UNL     1       3.662   3.189  19.657  0.00  0.00    +0.000 P 
ATOM     15  S   UNL     1       2.412   2.103  18.495  0.00  0.00    +0.000 S 
BRANCH  14  16
ATOM     16  N   UNL     1       5.073   2.308  19.957  0.00  0.00    +0.000 NA
ATOM     17  H   UNL     1       5.769   2.965  20.294  0.00  0.00    +0.000 HD
ATOM     18  H   UNL     1       5.425   1.952  19.075  0.00  0.00    +0.000 HD
ENDBRANCH  14  16
BRANCH  14  20
ATOM     19  C   UNL     1       1.577   2.709  21.250  0.00  0.00    +0.000 C 
ATOM     20  O   UNL     1       2.977   2.512  21.094  0.00  0.00    +0.000 OA
ENDBRANCH  14  20
ENDBRANCH  13  14
ENDBRANCH   1  13
TORSDOF 7
ENDMDL
MODEL 5
REMARK VINA RESULT:      -6.3      3.719      5.454
REMARK  Name = 
REMARK  10 active torsions:
REMARK  status: ('A' for Active; 'I' for Inactive)
REMARK    1  A    between atoms: C_1  and  O_2
REMARK    2  A    between atoms: O_2  and  P_3
REMARK    3  A    between atoms: P_3  and  N_4
REMARK    4  A    between atoms: P_3  and  O_6
REMARK    5  A    between atoms: O_6  and  C_7
REMARK    6  A    between atoms: C_12  and  C_13
REMARK    7  A    between atoms: C_13  and  O_15
REMARK    8  A    between atoms: O_15  and  C_16
REMARK    9  A    between atoms: C_16  and  C_17
REMARK   10  A    between atoms: C_16  and  C_18
REMARK                            x       y       z     vdW  Elec       q    Type
REMARK                         _______ _______ _______ _____ _____    ______ ____
ROOT
ATOM      1  C   UNL     1       3.688   5.733  18.171  0.00  0.00    +0.000 A 
ATOM      2  C   UNL     1       3.196   7.032  18.026  0.00  0.00    +0.000 A 
ATOM      3  C   UNL     1       2.337   7.588  18.977  0.00  0.00    +0.000 A 
ATOM      4  C   UNL     1       1.967   6.842  20.094  0.00  0.00    +0.000 A 
ATOM      5  C   UNL     1       2.465   5.551  20.270  0.00  0.00    +0.000 A 
ATOM      6  C   UNL     1       3.336   4.970  19.325  0.00  0.00    +0.000 A 
ENDROOT
BRANCH   6   7
ATOM      7  C   UNL     1       3.883   3.617  19.684  0.00  0.00    +0.000 C 
ATOM      8  O   UNL     1       5.061   3.331  19.548  0.00  0.00    +0.000 OA
BRANCH   7   9
ATOM      9  O   UNL     1       2.916   2.750  20.093  0.00  0.00    +0.000 OA
BRANCH   9  10
ATOM     10  C   UNL     1       2.219   1.980  19.073  0.00  0.00    +0.000 C 
ATOM     11  C   UNL     1       0.827   2.552  18.819  0.00  0.00    +0.000 C 
ATOM     12  C   UNL     1       3.027   2.036  17.774  0.00  0.00    +0.000 C 
ENDBRANCH   9  10
ENDBRANCH   7   9
ENDBRANCH   6   7
BRANCH   1  13
ATOM     13  O   UNL     1       4.467   5.355  17.075  0.00  0.00    +0.000 OA
BRANCH  13  14
ATOM     14  P   UNL     1       5.909   6.284  16.845  0.00  0.00    +0.000 P 
ATOM     15  S   UNL     1       6.961   4.557  16.800  0.00  0.00    +0.000 S 
BRANCH  14  16
ATOM     16  N   UNL     1       5.431   6.702  15.279  0.00  0.00    +0.000 NA
ATOM     17  H   UNL     1       5.691   5.932  14.672  0.00  0.00    +0.000 HD
ATOM     18  H   UNL     1       5.981   7.499  14.975  0.00  0.00    +0.000 HD
ENDBRANCH  14  16
BRANCH  14  20
ATOM     19  C   UNL     1       7.760   7.985  17.737  0.00  0.00    +0.000 C 
ATOM     20  O   UNL     1       7.350   7.213  16.615  0.00  0.00    +0.000 OA
ENDBRANCH  14  20
ENDBRANCH  13  14
ENDBRANCH   1  13
TORSDOF 7
ENDMDL
MODEL 6
REMARK VINA RESULT:      -6.2      3.670      5.981
REMARK  Name = 
REMARK  10 active torsions:
REMARK  status: ('A' for Active; 'I' for Inactive)
REMARK    1  A    between atoms: C_1  and  O_2
REMARK    2  A    between atoms: O_2  and  P_3
REMARK    3  A    between atoms: P_3  and  N_4
REMARK    4  A    between atoms: P_3  and  O_6
REMARK    5  A    between atoms: O_6  and  C_7
REMARK    6  A    between atoms: C_12  and  C_13
REMARK    7  A    between atoms: C_13  and  O_15
REMARK    8  A    between atoms: O_15  and  C_16
REMARK    9  A    between atoms: C_16  and  C_17
REMARK   10  A    between atoms: C_16  and  C_18
REMARK                            x       y       z     vdW  Elec       q    Type
REMARK                         _______ _______ _______ _____ _____    ______ ____
ROOT
ATOM      1  C   UNL     1       4.240   6.124  17.906  0.00  0.00    +0.000 A 
ATOM      2  C   UNL     1       3.941   7.392  17.405  0.00  0.00    +0.000 A 
ATOM      3  C   UNL     1       2.839   8.111  17.873  0.00  0.00    +0.000 A 
ATOM      4  C   UNL     1       2.025   7.562  18.861  0.00  0.00    +0.000 A 
ATOM      5  C   UNL     1       2.319   6.306  19.392  0.00  0.00    +0.000 A 
ATOM      6  C   UNL     1       3.428   5.563  18.937  0.00  0.00    +0.000 A 
ENDROOT
BRANCH   6   7
ATOM      7  C   UNL     1       3.694   4.274  19.663  0.00  0.00    +0.000 C 
ATOM      8  O   UNL     1       4.600   3.521  19.347  0.00  0.00    +0.000 OA
BRANCH   7   9
ATOM      9  O   UNL     1       2.778   4.020  20.638  0.00  0.00    +0.000 OA
BRANCH   9  10
ATOM     10  C   UNL     1       2.042   2.766  20.567  0.00  0.00    +0.000 C 
ATOM     11  C   UNL     1       1.394   2.441  21.910  0.00  0.00    +0.000 C 
ATOM     12  C   UNL     1       0.948   2.895  19.504  0.00  0.00    +0.000 C 
ENDBRANCH   9  10
ENDBRANCH   7   9
ENDBRANCH   6   7
BRANCH   1  13
ATOM     13  O   UNL     1       5.336   5.559  17.249  0.00  0.00    +0.000 OA
BRANCH  13  14
ATOM     14  P   UNL     1       6.721   6.587  17.116  0.00  0.00    +0.000 P 
ATOM     15  S   UNL     1       7.447   5.756  18.812  0.00  0.00    +0.000 S 
BRANCH  14  16
ATOM     16  N   UNL     1       7.277   5.724  15.774  0.00  0.00    +0.000 NA
ATOM     17  H   UNL     1       8.231   6.022  15.601  0.00  0.00    +0.000 HD
ATOM     18  H   UNL     1       6.740   6.009  14.961  0.00  0.00    +0.000 HD
ENDBRANCH  14  16
BRANCH  14  20
ATOM     19  C   UNL     1       8.084   8.775  17.807  0.00  0.00    +0.000 C 
ATOM     20  O   UNL     1       8.106   7.616  16.982  0.00  0.00    +0.000 OA
ENDBRANCH  14  20
ENDBRANCH  13  14
ENDBRANCH   1  13
TORSDOF 7
ENDMDL
MODEL 7
REMARK VINA RESULT:      -6.2      1.673      2.202
REMARK  Name = 
REMARK  10 active torsions:
REMARK  status: ('A' for Active; 'I' for Inactive)
REMARK    1  A    between atoms: C_1  and  O_2
REMARK    2  A    between atoms: O_2  and  P_3
REMARK    3  A    between atoms: P_3  and  N_4
REMARK    4  A    between atoms: P_3  and  O_6
REMARK    5  A    between atoms: O_6  and  C_7
REMARK    6  A    between atoms: C_12  and  C_13
REMARK    7  A    between atoms: C_13  and  O_15
REMARK    8  A    between atoms: O_15  and  C_16
REMARK    9  A    between atoms: C_16  and  C_17
REMARK   10  A    between atoms: C_16  and  C_18
REMARK                            x       y       z     vdW  Elec       q    Type
REMARK                         _______ _______ _______ _____ _____    ______ ____
ROOT
ATOM      1  C   UNL     1       5.320   4.899  17.889  0.00  0.00    +0.000 A 
ATOM      2  C   UNL     1       5.873   4.897  19.171  0.00  0.00    +0.000 A 
ATOM      3  C   UNL     1       7.065   5.572  19.444  0.00  0.00    +0.000 A 
ATOM      4  C   UNL     1       7.714   6.267  18.426  0.00  0.00    +0.000 A 
ATOM      5  C   UNL     1       7.167   6.301  17.142  0.00  0.00    +0.000 A 
ATOM      6  C   UNL     1       5.963   5.630  16.845  0.00  0.00    +0.000 A 
ENDROOT
BRANCH   6   7
ATOM      7  C   UNL     1       5.428   5.832  15.455  0.00  0.00    +0.000 C 
ATOM      8  O   UNL     1       5.134   6.934  15.022  0.00  0.00    +0.000 OA
BRANCH   7   9
ATOM      9  O   UNL     1       5.240   4.661  14.786  0.00  0.00    +0.000 OA
BRANCH   9  10
ATOM     10  C   UNL     1       6.388   4.075  14.109  0.00  0.00    +0.000 C 
ATOM     11  C   UNL     1       5.964   3.410  12.802  0.00  0.00    +0.000 C 
ATOM     12  C   UNL     1       7.397   5.183  13.800  0.00  0.00    +0.000 C 
ENDBRANCH   9  10
ENDBRANCH   7   9
ENDBRANCH   6   7
BRANCH   1  13
ATOM     13  O   UNL     1       4.172   4.106  17.825  0.00  0.00    +0.000 OA
BRANCH  13  14
ATOM     14  P   UNL     1       3.734   3.328  19.307  0.00  0.00    +0.000 P 
ATOM     15  S   UNL     1       1.808   3.835  18.954  0.00  0.00    +0.000 S 
BRANCH  14  16
ATOM     16  N   UNL     1       4.055   1.807  18.644  0.00  0.00    +0.000 NA
ATOM     17  H   UNL     1       4.259   1.947  17.660  0.00  0.00    +0.000 HD
ATOM     18  H   UNL     1       3.205   1.254  18.680  0.00  0.00    +0.000 HD
ENDBRANCH  14  16
BRANCH  14  20
ATOM     19  C   UNL     1       2.225   3.155  21.500  0.00  0.00    +0.000 C 
ATOM     20  O   UNL     1       3.298   2.550  20.789  0.00  0.00    +0.000 OA
ENDBRANCH  14  20
ENDBRANCH  13  14
ENDBRANCH   1  13
TORSDOF 7
ENDMDL
MODEL 8
REMARK VINA RESULT:      -6.1      2.809      5.765
REMARK  Name = 
REMARK  10 active torsions:
REMARK  status: ('A' for Active; 'I' for Inactive)
REMARK    1  A    between atoms: C_1  and  O_2
REMARK    2  A    between atoms: O_2  and  P_3
REMARK    3  A    between atoms: P_3  and  N_4
REMARK    4  A    between atoms: P_3  and  O_6
REMARK    5  A    between atoms: O_6  and  C_7
REMARK    6  A    between atoms: C_12  and  C_13
REMARK    7  A    between atoms: C_13  and  O_15
REMARK    8  A    between atoms: O_15  and  C_16
REMARK    9  A    between atoms: C_16  and  C_17
REMARK   10  A    between atoms: C_16  and  C_18
REMARK                            x       y       z     vdW  Elec       q    Type
REMARK                         _______ _______ _______ _____ _____    ______ ____
ROOT
ATOM      1  C   UNL     1       4.013   5.047  17.207  0.00  0.00    +0.000 A 
ATOM      2  C   UNL     1       4.487   6.358  17.107  0.00  0.00    +0.000 A 
ATOM      3  C   UNL     1       3.734   7.434  17.583  0.00  0.00    +0.000 A 
ATOM      4  C   UNL     1       2.494   7.203  18.173  0.00  0.00    +0.000 A 
ATOM      5  C   UNL     1       2.012   5.900  18.303  0.00  0.00    +0.000 A 
ATOM      6  C   UNL     1       2.755   4.798  17.833  0.00  0.00    +0.000 A 
ENDROOT
BRANCH   6   7
ATOM      7  C   UNL     1       2.174   3.443  18.128  0.00  0.00    +0.000 C 
ATOM      8  O   UNL     1       1.010   3.166  17.892  0.00  0.00    +0.000 OA
BRANCH   7   9
ATOM      9  O   UNL     1       3.059   2.613  18.746  0.00  0.00    +0.000 OA
BRANCH   9  10
ATOM     10  C   UNL     1       3.474   2.950  20.100  0.00  0.00    +0.000 C 
ATOM     11  C   UNL     1       2.313   2.790  21.079  0.00  0.00    +0.000 C 
ATOM     12  C   UNL     1       4.610   2.011  20.516  0.00  0.00    +0.000 C 
ENDBRANCH   9  10
ENDBRANCH   7   9
ENDBRANCH   6   7
BRANCH   1  13
ATOM     13  O   UNL     1       4.889   4.140  16.606  0.00  0.00    +0.000 OA
BRANCH  13  14
ATOM     14  P   UNL     1       6.182   4.855  15.707  0.00  0.00    +0.000 P 
ATOM     15  S   UNL     1       7.396   4.552  17.296  0.00  0.00    +0.000 S 
BRANCH  14  16
ATOM     16  N   UNL     1       6.250   3.518  14.675  0.00  0.00    +0.000 NA
ATOM     17  H   UNL     1       5.491   3.617  14.008  0.00  0.00    +0.000 HD
ATOM     18  H   UNL     1       6.046   2.683  15.214  0.00  0.00    +0.000 HD
ENDBRANCH  14  16
BRANCH  14  20
ATOM     19  C   UNL     1       7.622   5.095  13.473  0.00  0.00    +0.000 C 
ATOM     20  O   UNL     1       7.476   5.569  14.806  0.00  0.00    +0.000 OA
ENDBRANCH  14  20
ENDBRANCH  13  14
ENDBRANCH   1  13
TORSDOF 7
ENDMDL
MODEL 9
REMARK VINA RESULT:      -6.1      1.898      2.790
REMARK  Name = 
REMARK  10 active torsions:
REMARK  status: ('A' for Active; 'I' for Inactive)
REMARK    1  A    between atoms: C_1  and  O_2
REMARK    2  A    between atoms: O_2  and  P_3
REMARK    3  A    between atoms: P_3  and  N_4
REMARK    4  A    between atoms: P_3  and  O_6
REMARK    5  A    between atoms: O_6  and  C_7
REMARK    6  A    between atoms: C_12  and  C_13
REMARK    7  A    between atoms: C_13  and  O_15
REMARK    8  A    between atoms: O_15  and  C_16
REMARK    9  A    between atoms: C_16  and  C_17
REMARK   10  A    between atoms: C_16  and  C_18
REMARK                            x       y       z     vdW  Elec       q    Type
REMARK                         _______ _______ _______ _____ _____    ______ ____
ROOT
ATOM      1  C   UNL     1       3.627   5.271  17.974  0.00  0.00    +0.000 A 
ATOM      2  C   UNL     1       2.394   5.513  18.585  0.00  0.00    +0.000 A 
ATOM      3  C   UNL     1       1.848   6.798  18.622  0.00  0.00    +0.000 A 
ATOM      4  C   UNL     1       2.536   7.859  18.036  0.00  0.00    +0.000 A 
ATOM      5  C   UNL     1       3.758   7.635  17.400  0.00  0.00    +0.000 A 
ATOM      6  C   UNL     1       4.327   6.346  17.348  0.00  0.00    +0.000 A 
ENDROOT
BRANCH   6   7
ATOM      7  C   UNL     1       5.591   6.222  16.545  0.00  0.00    +0.000 C 
ATOM      8  O   UNL     1       5.861   5.221  15.901  0.00  0.00    +0.000 OA
BRANCH   7   9
ATOM      9  O   UNL     1       6.413   7.299  16.685  0.00  0.00    +0.000 OA
BRANCH   9  10
ATOM     10  C   UNL     1       7.660   7.113  17.411  0.00  0.00    +0.000 C 
ATOM     11  C   UNL     1       8.186   8.446  17.938  0.00  0.00    +0.000 C 
ATOM     12  C   UNL     1       7.407   6.174  18.593  0.00  0.00    +0.000 C 
ENDBRANCH   9  10
ENDBRANCH   7   9
ENDBRANCH   6   7
BRANCH   1  13
ATOM     13  O   UNL     1       4.015   3.937  18.116  0.00  0.00    +0.000 OA
BRANCH  13  14
ATOM     14  P   UNL     1       3.577   3.202  19.619  0.00  0.00    +0.000 P 
ATOM     15  S   UNL     1       2.406   1.908  18.595  0.00  0.00    +0.000 S 
BRANCH  14  16
ATOM     16  N   UNL     1       5.128   2.552  19.793  0.00  0.00    +0.000 NA
ATOM     17  H   UNL     1       5.750   3.106  19.214  0.00  0.00    +0.000 HD
ATOM     18  H   UNL     1       5.133   1.618  19.399  0.00  0.00    +0.000 HD
ENDBRANCH  14  16
BRANCH  14  20
ATOM     19  C   UNL     1       1.910   2.911  21.682  0.00  0.00    +0.000 C 
ATOM     20  O   UNL     1       3.140   2.467  21.123  0.00  0.00    +0.000 OA
ENDBRANCH  14  20
ENDBRANCH  13  14
ENDBRANCH   1  13
TORSDOF 7
ENDMDL
