MODEL 1
REMARK VINA RESULT:      -9.6      0.000      0.000
REMARK  Name = 
REMARK  5 active torsions:
REMARK  status: ('A' for Active; 'I' for Inactive)
REMARK    1  A    between atoms: C_1  and  C_2
REMARK    2  A    between atoms: C_6  and  N_7
REMARK    3  A    between atoms: C_8  and  C_10
REMARK    4  A    between atoms: C_12  and  S_13
REMARK    5  A    between atoms: S_13  and  C_16
REMARK                            x       y       z     vdW  Elec       q    Type
REMARK                         _______ _______ _______ _____ _____    ______ ____
ROOT
ATOM      1  C   UNL     1       3.447   6.010  17.837  0.00  0.00    +0.000 A 
ATOM      2  C   UNL     1       4.793   6.131  17.409  0.00  0.00    +0.000 A 
ATOM      3  C   UNL     1       5.562   5.004  17.094  0.00  0.00    +0.000 A 
ATOM      4  C   UNL     1       5.015   3.729  17.217  0.00  0.00    +0.000 A 
ATOM      5  C   UNL     1       3.682   3.594  17.601  0.00  0.00    +0.000 A 
ATOM      6  C   UNL     1       2.889   4.722  17.881  0.00  0.00    +0.000 A 
ATOM      7 CL   UNL     1       1.221   4.389  18.202  0.00  0.00    +0.000 Cl
ENDROOT
BRANCH   1   9
ATOM      8  N   UNL     1       2.227   7.450  19.464  0.00  0.00    +0.000 N 
ATOM      9  C   UNL     1       2.763   7.300  18.195  0.00  0.00    +0.000 C 
ATOM     10  O   UNL     1       2.730   8.169  17.326  0.00  0.00    +0.000 OA
ATOM     11  H   UNL     1       2.286   6.655  20.089  0.00  0.00    +0.000 HD
BRANCH   8  17
ATOM     12  C   UNL     1      -0.117   9.496  23.289  0.00  0.00    +0.000 C 
ATOM     13  C   UNL     1       0.332   9.567  21.859  0.00  0.00    +0.000 A 
ATOM     14  C   UNL     1      -0.119  10.597  21.029  0.00  0.00    +0.000 A 
ATOM     15  C   UNL     1       0.248  10.625  19.688  0.00  0.00    +0.000 A 
ATOM     16  C   UNL     1       1.046   9.606  19.157  0.00  0.00    +0.000 A 
ATOM     17  C   UNL     1       1.491   8.555  19.957  0.00  0.00    +0.000 A 
ATOM     18  C   UNL     1       1.157   8.562  21.319  0.00  0.00    +0.000 A 
ENDBRANCH   8  17
ENDBRANCH   1   9
BRANCH   3  19
ATOM     19  S   UNL     1       7.179   5.193  16.364  0.00  0.00    +0.000 S 
ATOM     20  O   UNL     1       7.497   6.608  16.425  0.00  0.00    +0.000 OA
ATOM     21  O   UNL     1       8.053   4.226  16.999  0.00  0.00    +0.000 OA
BRANCH  19  22
ATOM     22  C   UNL     1       7.048   4.755  14.648  0.00  0.00    +0.000 A 
ATOM     23  C   UNL     1       6.086   3.823  14.245  0.00  0.00    +0.000 A 
ATOM     24  C   UNL     1       5.958   3.510  12.891  0.00  0.00    +0.000 A 
ATOM     25  C   UNL     1       6.774   4.139  11.950  0.00  0.00    +0.000 A 
ATOM     26  C   UNL     1       7.714   5.089  12.354  0.00  0.00    +0.000 A 
ATOM     27  C   UNL     1       7.852   5.404  13.707  0.00  0.00    +0.000 A 
ENDBRANCH  19  22
ENDBRANCH   3  19
TORSDOF 4
ENDMDL
MODEL 2
REMARK VINA RESULT:      -9.2      1.694      2.215
REMARK  Name = 
REMARK  5 active torsions:
REMARK  status: ('A' for Active; 'I' for Inactive)
REMARK    1  A    between atoms: C_1  and  C_2
REMARK    2  A    between atoms: C_6  and  N_7
REMARK    3  A    between atoms: C_8  and  C_10
REMARK    4  A    between atoms: C_12  and  S_13
REMARK    5  A    between atoms: S_13  and  C_16
REMARK                            x       y       z     vdW  Elec       q    Type
REMARK                         _______ _______ _______ _____ _____    ______ ____
ROOT
ATOM      1  C   UNL     1       3.266   5.930  17.946  0.00  0.00    +0.000 A 
ATOM      2  C   UNL     1       4.604   6.120  17.517  0.00  0.00    +0.000 A 
ATOM      3  C   UNL     1       5.378   5.050  17.051  0.00  0.00    +0.000 A 
ATOM      4  C   UNL     1       4.846   3.765  17.019  0.00  0.00    +0.000 A 
ATOM      5  C   UNL     1       3.520   3.566  17.401  0.00  0.00    +0.000 A 
ATOM      6  C   UNL     1       2.721   4.641  17.834  0.00  0.00    +0.000 A 
ATOM      7 CL   UNL     1       1.062   4.251  18.134  0.00  0.00    +0.000 Cl
ENDROOT
BRANCH   1   9
ATOM      8  N   UNL     1       2.078   8.090  17.581  0.00  0.00    +0.000 N 
ATOM      9  C   UNL     1       2.576   7.156  18.475  0.00  0.00    +0.000 C 
ATOM     10  O   UNL     1       2.481   7.254  19.698  0.00  0.00    +0.000 OA
ATOM     11  H   UNL     1       2.241   7.920  16.595  0.00  0.00    +0.000 HD
BRANCH   8  17
ATOM     12  C   UNL     1       2.683  12.886  18.548  0.00  0.00    +0.000 C 
ATOM     13  C   UNL     1       1.771  11.709  18.365  0.00  0.00    +0.000 A 
ATOM     14  C   UNL     1       0.410  11.818  18.666  0.00  0.00    +0.000 A 
ATOM     15  C   UNL     1      -0.421  10.708  18.557  0.00  0.00    +0.000 A 
ATOM     16  C   UNL     1       0.108   9.470  18.173  0.00  0.00    +0.000 A 
ATOM     17  C   UNL     1       1.465   9.329  17.890  0.00  0.00    +0.000 A 
ATOM     18  C   UNL     1       2.286  10.464  17.954  0.00  0.00    +0.000 A 
ENDBRANCH   8  17
ENDBRANCH   1   9
BRANCH   3  19
ATOM     19  S   UNL     1       6.982   5.349  16.328  0.00  0.00    +0.000 S 
ATOM     20  O   UNL     1       7.198   6.783  16.378  0.00  0.00    +0.000 OA
ATOM     21  O   UNL     1       7.920   4.452  16.976  0.00  0.00    +0.000 OA
BRANCH  19  22
ATOM     22  C   UNL     1       6.893   4.889  14.615  0.00  0.00    +0.000 A 
ATOM     23  C   UNL     1       7.767   5.478  13.695  0.00  0.00    +0.000 A 
ATOM     24  C   UNL     1       7.722   5.084  12.358  0.00  0.00    +0.000 A 
ATOM     25  C   UNL     1       6.824   4.097  11.950  0.00  0.00    +0.000 A 
ATOM     26  C   UNL     1       5.974   3.492  12.877  0.00  0.00    +0.000 A 
ATOM     27  C   UNL     1       6.008   3.883  14.216  0.00  0.00    +0.000 A 
ENDBRANCH  19  22
ENDBRANCH   3  19
TORSDOF 4
ENDMDL
MODEL 3
REMARK VINA RESULT:      -9.2      0.351      1.650
REMARK  Name = 
REMARK  5 active torsions:
REMARK  status: ('A' for Active; 'I' for Inactive)
REMARK    1  A    between atoms: C_1  and  C_2
REMARK    2  A    between atoms: C_6  and  N_7
REMARK    3  A    between atoms: C_8  and  C_10
REMARK    4  A    between atoms: C_12  and  S_13
REMARK    5  A    between atoms: S_13  and  C_16
REMARK                            x       y       z     vdW  Elec       q    Type
REMARK                         _______ _______ _______ _____ _____    ______ ____
ROOT
ATOM      1  C   UNL     1       3.459   5.982  17.894  0.00  0.00    +0.000 A 
ATOM      2  C   UNL     1       4.802   6.109  17.458  0.00  0.00    +0.000 A 
ATOM      3  C   UNL     1       5.539   4.995  17.037  0.00  0.00    +0.000 A 
ATOM      4  C   UNL     1       4.965   3.728  17.060  0.00  0.00    +0.000 A 
ATOM      5  C   UNL     1       3.633   3.590  17.450  0.00  0.00    +0.000 A 
ATOM      6  C   UNL     1       2.871   4.708  17.836  0.00  0.00    +0.000 A 
ATOM      7 CL   UNL     1       1.200   4.387  18.152  0.00  0.00    +0.000 Cl
ENDROOT
BRANCH   1   9
ATOM      8  N   UNL     1       2.205   7.275  19.617  0.00  0.00    +0.000 N 
ATOM      9  C   UNL     1       2.810   7.251  18.370  0.00  0.00    +0.000 C 
ATOM     10  O   UNL     1       2.867   8.220  17.614  0.00  0.00    +0.000 OA
ATOM     11  H   UNL     1       2.193   6.408  20.141  0.00  0.00    +0.000 HD
BRANCH   8  17
ATOM     12  C   UNL     1      -0.181  11.532  18.919  0.00  0.00    +0.000 C 
ATOM     13  C   UNL     1       0.302  10.458  19.848  0.00  0.00    +0.000 A 
ATOM     14  C   UNL     1       0.194  10.622  21.232  0.00  0.00    +0.000 A 
ATOM     15  C   UNL     1       0.701   9.652  22.092  0.00  0.00    +0.000 A 
ATOM     16  C   UNL     1       1.347   8.524  21.576  0.00  0.00    +0.000 A 
ATOM     17  C   UNL     1       1.489   8.347  20.201  0.00  0.00    +0.000 A 
ATOM     18  C   UNL     1       0.931   9.304  19.341  0.00  0.00    +0.000 A 
ENDBRANCH   8  17
ENDBRANCH   1   9
BRANCH   3  19
ATOM     19  S   UNL     1       7.151   5.210  16.302  0.00  0.00    +0.000 S 
ATOM     20  O   UNL     1       7.465   6.623  16.399  0.00  0.00    +0.000 OA
ATOM     21  O   UNL     1       8.033   4.228  16.906  0.00  0.00    +0.000 OA
BRANCH  19  22
ATOM     22  C   UNL     1       7.011   4.817  14.576  0.00  0.00    +0.000 A 
ATOM     23  C   UNL     1       7.849   5.451  13.653  0.00  0.00    +0.000 A 
ATOM     24  C   UNL     1       7.765   5.110  12.303  0.00  0.00    +0.000 A 
ATOM     25  C   UNL     1       6.863   4.131  11.885  0.00  0.00    +0.000 A 
ATOM     26  C   UNL     1       6.048   3.481  12.814  0.00  0.00    +0.000 A 
ATOM     27  C   UNL     1       6.122   3.819  14.166  0.00  0.00    +0.000 A 
ENDBRANCH  19  22
ENDBRANCH   3  19
TORSDOF 4
ENDMDL
MODEL 4
REMARK VINA RESULT:      -9.1      1.719      2.054
REMARK  Name = 
REMARK  5 active torsions:
REMARK  status: ('A' for Active; 'I' for Inactive)
REMARK    1  A    between atoms: C_1  and  C_2
REMARK    2  A    between atoms: C_6  and  N_7
REMARK    3  A    between atoms: C_8  and  C_10
REMARK    4  A    between atoms: C_12  and  S_13
REMARK    5  A    between atoms: S_13  and  C_16
REMARK                            x       y       z     vdW  Elec       q    Type
REMARK                         _______ _______ _______ _____ _____    ______ ____
ROOT
ATOM      1  C   UNL     1       3.285   5.882  18.179  0.00  0.00    +0.000 A 
ATOM      2  C   UNL     1       4.607   6.089  17.713  0.00  0.00    +0.000 A 
ATOM      3  C   UNL     1       5.394   5.025  17.257  0.00  0.00    +0.000 A 
ATOM      4  C   UNL     1       4.891   3.728  17.273  0.00  0.00    +0.000 A 
ATOM      5  C   UNL     1       3.579   3.510  17.693  0.00  0.00    +0.000 A 
ATOM      6  C   UNL     1       2.766   4.578  18.115  0.00  0.00    +0.000 A 
ATOM      7 CL   UNL     1       1.125   4.159  18.467  0.00  0.00    +0.000 Cl
ENDROOT
BRANCH   1   9
ATOM      8  N   UNL     1       2.237   8.111  17.802  0.00  0.00    +0.000 N 
ATOM      9  C   UNL     1       2.579   7.106  18.692  0.00  0.00    +0.000 C 
ATOM     10  O   UNL     1       2.330   7.138  19.896  0.00  0.00    +0.000 OA
ATOM     11  H   UNL     1       2.520   7.990  16.836  0.00  0.00    +0.000 HD
BRANCH   8  17
ATOM     12  C   UNL     1      -1.936  10.668  18.396  0.00  0.00    +0.000 C 
ATOM     13  C   UNL     1      -0.437  10.621  18.404  0.00  0.00    +0.000 A 
ATOM     14  C   UNL     1       0.306  11.798  18.532  0.00  0.00    +0.000 A 
ATOM     15  C   UNL     1       1.695  11.758  18.476  0.00  0.00    +0.000 A 
ATOM     16  C   UNL     1       2.354  10.543  18.261  0.00  0.00    +0.000 A 
ATOM     17  C   UNL     1       1.638   9.357  18.107  0.00  0.00    +0.000 A 
ATOM     18  C   UNL     1       0.240   9.400  18.215  0.00  0.00    +0.000 A 
ENDBRANCH   8  17
ENDBRANCH   1   9
BRANCH   3  19
ATOM     19  S   UNL     1       6.973   5.340  16.487  0.00  0.00    +0.000 S 
ATOM     20  O   UNL     1       7.172   6.777  16.523  0.00  0.00    +0.000 OA
ATOM     21  O   UNL     1       7.940   4.458  17.113  0.00  0.00    +0.000 OA
BRANCH  19  22
ATOM     22  C   UNL     1       6.841   4.868  14.780  0.00  0.00    +0.000 A 
ATOM     23  C   UNL     1       7.738   5.397  13.846  0.00  0.00    +0.000 A 
ATOM     24  C   UNL     1       7.658   4.993  12.513  0.00  0.00    +0.000 A 
ATOM     25  C   UNL     1       6.701   4.056  12.124  0.00  0.00    +0.000 A 
ATOM     26  C   UNL     1       5.826   3.509  13.065  0.00  0.00    +0.000 A 
ATOM     27  C   UNL     1       5.896   3.911  14.399  0.00  0.00    +0.000 A 
ENDBRANCH  19  22
ENDBRANCH   3  19
TORSDOF 4
ENDMDL
MODEL 5
REMARK VINA RESULT:      -8.8      0.572      1.428
REMARK  Name = 
REMARK  5 active torsions:
REMARK  status: ('A' for Active; 'I' for Inactive)
REMARK    1  A    between atoms: C_1  and  C_2
REMARK    2  A    between atoms: C_6  and  N_7
REMARK    3  A    between atoms: C_8  and  C_10
REMARK    4  A    between atoms: C_12  and  S_13
REMARK    5  A    between atoms: S_13  and  C_16
REMARK                            x       y       z     vdW  Elec       q    Type
REMARK                         _______ _______ _______ _____ _____    ______ ____
ROOT
ATOM      1  C   UNL     1       3.346   5.891  18.290  0.00  0.00    +0.000 A 
ATOM      2  C   UNL     1       4.617   6.096  17.695  0.00  0.00    +0.000 A 
ATOM      3  C   UNL     1       5.452   5.021  17.371  0.00  0.00    +0.000 A 
ATOM      4  C   UNL     1       5.051   3.717  17.648  0.00  0.00    +0.000 A 
ATOM      5  C   UNL     1       3.790   3.494  18.199  0.00  0.00    +0.000 A 
ATOM      6  C   UNL     1       2.926   4.566  18.491  0.00  0.00    +0.000 A 
ATOM      7 CL   UNL     1       1.347   4.112  19.034  0.00  0.00    +0.000 Cl
ENDROOT
BRANCH   1   9
ATOM      8  N   UNL     1       2.211   7.360  19.953  0.00  0.00    +0.000 N 
ATOM      9  C   UNL     1       2.583   7.139  18.636  0.00  0.00    +0.000 C 
ATOM     10  O   UNL     1       2.339   7.913  17.712  0.00  0.00    +0.000 OA
ATOM     11  H   UNL     1       2.440   6.638  20.626  0.00  0.00    +0.000 HD
BRANCH   8  17
ATOM     12  C   UNL     1       0.018  11.677  19.025  0.00  0.00    +0.000 C 
ATOM     13  C   UNL     1       0.345  10.573  19.987  0.00  0.00    +0.000 A 
ATOM     14  C   UNL     1       0.042  10.708  21.345  0.00  0.00    +0.000 A 
ATOM     15  C   UNL     1       0.404   9.711  22.245  0.00  0.00    +0.000 A 
ATOM     16  C   UNL     1       1.100   8.582  21.798  0.00  0.00    +0.000 A 
ATOM     17  C   UNL     1       1.435   8.433  20.454  0.00  0.00    +0.000 A 
ATOM     18  C   UNL     1       1.022   9.419  19.547  0.00  0.00    +0.000 A 
ENDBRANCH   8  17
ENDBRANCH   1   9
BRANCH   3  19
ATOM     19  S   UNL     1       6.949   5.294  16.439  0.00  0.00    +0.000 S 
ATOM     20  O   UNL     1       7.132   6.732  16.364  0.00  0.00    +0.000 OA
ATOM     21  O   UNL     1       7.980   4.462  17.030  0.00  0.00    +0.000 OA
BRANCH  19  22
ATOM     22  C   UNL     1       6.668   4.710  14.786  0.00  0.00    +0.000 A 
ATOM     23  C   UNL     1       5.460   4.076  14.474  0.00  0.00    +0.000 A 
ATOM     24  C   UNL     1       5.225   3.655  13.165  0.00  0.00    +0.000 A 
ATOM     25  C   UNL     1       6.183   3.883  12.176  0.00  0.00    +0.000 A 
ATOM     26  C   UNL     1       7.374   4.541  12.486  0.00  0.00    +0.000 A 
ATOM     27  C   UNL     1       7.620   4.961  13.794  0.00  0.00    +0.000 A 
ENDBRANCH  19  22
ENDBRANCH   3  19
TORSDOF 4
ENDMDL
MODEL 6
REMARK VINA RESULT:      -8.7      1.727      2.118
REMARK  Name = 
REMARK  5 active torsions:
REMARK  status: ('A' for Active; 'I' for Inactive)
REMARK    1  A    between atoms: C_1  and  C_2
REMARK    2  A    between atoms: C_6  and  N_7
REMARK    3  A    between atoms: C_8  and  C_10
REMARK    4  A    between atoms: C_12  and  S_13
REMARK    5  A    between atoms: S_13  and  C_16
REMARK                            x       y       z     vdW  Elec       q    Type
REMARK                         _______ _______ _______ _____ _____    ______ ____
ROOT
ATOM      1  C   UNL     1       3.013   4.976  19.860  0.00  0.00    +0.000 A 
ATOM      2  C   UNL     1       4.206   5.454  19.260  0.00  0.00    +0.000 A 
ATOM      3  C   UNL     1       5.251   4.586  18.924  0.00  0.00    +0.000 A 
ATOM      4  C   UNL     1       5.144   3.225  19.195  0.00  0.00    +0.000 A 
ATOM      5  C   UNL     1       3.963   2.732  19.750  0.00  0.00    +0.000 A 
ATOM      6  C   UNL     1       2.891   3.591  20.055  0.00  0.00    +0.000 A 
ATOM      7 CL   UNL     1       1.450   2.803  20.602  0.00  0.00    +0.000 Cl
ENDROOT
BRANCH   1   9
ATOM      8  N   UNL     1       2.263   7.352  19.905  0.00  0.00    +0.000 N 
ATOM      9  C   UNL     1       2.001   6.028  20.218  0.00  0.00    +0.000 C 
ATOM     10  O   UNL     1       0.971   5.641  20.768  0.00  0.00    +0.000 OA
ATOM     11  H   UNL     1       3.159   7.559  19.478  0.00  0.00    +0.000 HD
BRANCH   8  17
ATOM     12  C   UNL     1      -0.333   9.758  23.337  0.00  0.00    +0.000 C 
ATOM     13  C   UNL     1       0.185   9.672  21.932  0.00  0.00    +0.000 A 
ATOM     14  C   UNL     1      -0.257  10.576  20.961  0.00  0.00    +0.000 A 
ATOM     15  C   UNL     1       0.176  10.454  19.644  0.00  0.00    +0.000 A 
ATOM     16  C   UNL     1       1.032   9.409  19.280  0.00  0.00    +0.000 A 
ATOM     17  C   UNL     1       1.469   8.480  20.223  0.00  0.00    +0.000 A 
ATOM     18  C   UNL     1       1.068   8.640  21.558  0.00  0.00    +0.000 A 
ENDBRANCH   8  17
ENDBRANCH   1   9
BRANCH   3  19
ATOM     19  S   UNL     1       6.648   5.182  17.987  0.00  0.00    +0.000 S 
ATOM     20  O   UNL     1       6.645   6.627  18.112  0.00  0.00    +0.000 OA
ATOM     21  O   UNL     1       7.807   4.420  18.413  0.00  0.00    +0.000 OA
BRANCH  19  22
ATOM     22  C   UNL     1       6.352   4.799  16.279  0.00  0.00    +0.000 A 
ATOM     23  C   UNL     1       7.355   5.036  15.333  0.00  0.00    +0.000 A 
ATOM     24  C   UNL     1       7.134   4.697  13.998  0.00  0.00    +0.000 A 
ATOM     25  C   UNL     1       5.927   4.108  13.618  0.00  0.00    +0.000 A 
ATOM     26  C   UNL     1       4.940   3.847  14.570  0.00  0.00    +0.000 A 
ATOM     27  C   UNL     1       5.150   4.188  15.907  0.00  0.00    +0.000 A 
ENDBRANCH  19  22
ENDBRANCH   3  19
TORSDOF 4
ENDMDL
MODEL 7
REMARK VINA RESULT:      -8.6      1.431      2.084
REMARK  Name = 
REMARK  5 active torsions:
REMARK  status: ('A' for Active; 'I' for Inactive)
REMARK    1  A    between atoms: C_1  and  C_2
REMARK    2  A    between atoms: C_6  and  N_7
REMARK    3  A    between atoms: C_8  and  C_10
REMARK    4  A    between atoms: C_12  and  S_13
REMARK    5  A    between atoms: S_13  and  C_16
REMARK                            x       y       z     vdW  Elec       q    Type
REMARK                         _______ _______ _______ _____ _____    ______ ____
ROOT
ATOM      1  C   UNL     1       3.041   5.997  19.530  0.00  0.00    +0.000 A 
ATOM      2  C   UNL     1       4.329   6.172  18.965  0.00  0.00    +0.000 A 
ATOM      3  C   UNL     1       5.213   5.096  18.820  0.00  0.00    +0.000 A 
ATOM      4  C   UNL     1       4.844   3.825  19.250  0.00  0.00    +0.000 A 
ATOM      5  C   UNL     1       3.566   3.627  19.773  0.00  0.00    +0.000 A 
ATOM      6  C   UNL     1       2.655   4.694  19.886  0.00  0.00    +0.000 A 
ATOM      7 CL   UNL     1       1.069   4.254  20.419  0.00  0.00    +0.000 Cl
ENDROOT
BRANCH   1   9
ATOM      8  N   UNL     1       1.728   7.590  20.926  0.00  0.00    +0.000 N 
ATOM      9  C   UNL     1       2.222   7.249  19.677  0.00  0.00    +0.000 C 
ATOM     10  O   UNL     1       2.046   7.918  18.661  0.00  0.00    +0.000 OA
ATOM     11  H   UNL     1       1.911   6.947  21.688  0.00  0.00    +0.000 HD
BRANCH   8  17
ATOM     12  C   UNL     1      -0.545  11.668  19.344  0.00  0.00    +0.000 C 
ATOM     13  C   UNL     1      -0.243  10.704  20.453  0.00  0.00    +0.000 A 
ATOM     14  C   UNL     1      -0.636  10.991  21.763  0.00  0.00    +0.000 A 
ATOM     15  C   UNL     1      -0.298  10.126  22.799  0.00  0.00    +0.000 A 
ATOM     16  C   UNL     1       0.462   8.981  22.538  0.00  0.00    +0.000 A 
ATOM     17  C   UNL     1       0.886   8.683  21.245  0.00  0.00    +0.000 A 
ATOM     18  C   UNL     1       0.499   9.534  20.199  0.00  0.00    +0.000 A 
ENDBRANCH   8  17
ENDBRANCH   1   9
BRANCH   3  19
ATOM     19  S   UNL     1       6.742   5.304  17.923  0.00  0.00    +0.000 S 
ATOM     20  O   UNL     1       7.020   6.728  17.903  0.00  0.00    +0.000 OA
ATOM     21  O   UNL     1       7.706   4.385  18.498  0.00  0.00    +0.000 OA
BRANCH  19  22
ATOM     22  C   UNL     1       6.453   4.798  16.245  0.00  0.00    +0.000 A 
ATOM     23  C   UNL     1       5.233   4.204  15.903  0.00  0.00    +0.000 A 
ATOM     24  C   UNL     1       4.993   3.846  14.576  0.00  0.00    +0.000 A 
ATOM     25  C   UNL     1       5.958   4.096  13.600  0.00  0.00    +0.000 A 
ATOM     26  C   UNL     1       7.162   4.715  13.941  0.00  0.00    +0.000 A 
ATOM     27  C   UNL     1       7.413   5.073  15.266  0.00  0.00    +0.000 A 
ENDBRANCH  19  22
ENDBRANCH   3  19
TORSDOF 4
ENDMDL
MODEL 8
REMARK VINA RESULT:      -8.6      1.020      1.022
REMARK  Name = 
REMARK  5 active torsions:
REMARK  status: ('A' for Active; 'I' for Inactive)
REMARK    1  A    between atoms: C_1  and  C_2
REMARK    2  A    between atoms: C_6  and  N_7
REMARK    3  A    between atoms: C_8  and  C_10
REMARK    4  A    between atoms: C_12  and  S_13
REMARK    5  A    between atoms: S_13  and  C_16
REMARK                            x       y       z     vdW  Elec       q    Type
REMARK                         _______ _______ _______ _____ _____    ______ ____
ROOT
ATOM      1  C   UNL     1       3.112   5.281  18.454  0.00  0.00    +0.000 A 
ATOM      2  C   UNL     1       4.347   5.728  17.919  0.00  0.00    +0.000 A 
ATOM      3  C   UNL     1       5.177   4.870  17.187  0.00  0.00    +0.000 A 
ATOM      4  C   UNL     1       4.807   3.543  16.987  0.00  0.00    +0.000 A 
ATOM      5  C   UNL     1       3.579   3.096  17.475  0.00  0.00    +0.000 A 
ATOM      6  C   UNL     1       2.719   3.961  18.177  0.00  0.00    +0.000 A 
ATOM      7 CL   UNL     1       1.177   3.293  18.587  0.00  0.00    +0.000 Cl
ENDROOT
BRANCH   1   9
ATOM      8  N   UNL     1       2.249   7.594  18.797  0.00  0.00    +0.000 N 
ATOM      9  C   UNL     1       2.354   6.294  19.265  0.00  0.00    +0.000 C 
ATOM     10  O   UNL     1       1.848   5.897  20.314  0.00  0.00    +0.000 OA
ATOM     11  H   UNL     1       2.732   7.815  17.934  0.00  0.00    +0.000 HD
BRANCH   8  17
ATOM     12  C   UNL     1       0.276   9.372  22.950  0.00  0.00    +0.000 C 
ATOM     13  C   UNL     1       0.666   9.571  21.515  0.00  0.00    +0.000 A 
ATOM     14  C   UNL     1       0.274  10.726  20.832  0.00  0.00    +0.000 A 
ATOM     15  C   UNL     1       0.582  10.879  19.484  0.00  0.00    +0.000 A 
ATOM     16  C   UNL     1       1.259   9.864  18.799  0.00  0.00    +0.000 A 
ATOM     17  C   UNL     1       1.640   8.693  19.450  0.00  0.00    +0.000 A 
ATOM     18  C   UNL     1       1.370   8.569  20.821  0.00  0.00    +0.000 A 
ENDBRANCH   8  17
ENDBRANCH   1   9
BRANCH   3  19
ATOM     19  S   UNL     1       6.619   5.509  16.353  0.00  0.00    +0.000 S 
ATOM     20  O   UNL     1       6.432   6.944  16.245  0.00  0.00    +0.000 OA
ATOM     21  O   UNL     1       7.782   4.979  17.040  0.00  0.00    +0.000 OA
BRANCH  19  22
ATOM     22  C   UNL     1       6.622   4.851  14.704  0.00  0.00    +0.000 A 
ATOM     23  C   UNL     1       5.547   4.068  14.271  0.00  0.00    +0.000 A 
ATOM     24  C   UNL     1       5.533   3.586  12.962  0.00  0.00    +0.000 A 
ATOM     25  C   UNL     1       6.576   3.901  12.091  0.00  0.00    +0.000 A 
ATOM     26  C   UNL     1       7.633   4.706  12.519  0.00  0.00    +0.000 A 
ATOM     27  C   UNL     1       7.658   5.188  13.828  0.00  0.00    +0.000 A 
ENDBRANCH  19  22
ENDBRANCH   3  19
TORSDOF 4
ENDMDL
MODEL 9
REMARK VINA RESULT:      -8.5      2.475      3.231
REMARK  Name = 
REMARK  5 active torsions:
REMARK  status: ('A' for Active; 'I' for Inactive)
REMARK    1  A    between atoms: C_1  and  C_2
REMARK    2  A    between atoms: C_6  and  N_7
REMARK    3  A    between atoms: C_8  and  C_10
REMARK    4  A    between atoms: C_12  and  S_13
REMARK    5  A    between atoms: S_13  and  C_16
REMARK                            x       y       z     vdW  Elec       q    Type
REMARK                         _______ _______ _______ _____ _____    ______ ____
ROOT
ATOM      1  C   UNL     1       2.563   5.110  18.860  0.00  0.00    +0.000 A 
ATOM      2  C   UNL     1       3.728   5.447  18.125  0.00  0.00    +0.000 A 
ATOM      3  C   UNL     1       4.382   4.503  17.325  0.00  0.00    +0.000 A 
ATOM      4  C   UNL     1       3.904   3.197  17.252  0.00  0.00    +0.000 A 
ATOM      5  C   UNL     1       2.739   2.859  17.939  0.00  0.00    +0.000 A 
ATOM      6  C   UNL     1       2.051   3.811  18.714  0.00  0.00    +0.000 A 
ATOM      7 CL   UNL     1       0.550   3.270  19.383  0.00  0.00    +0.000 Cl
ENDROOT
BRANCH   1   9
ATOM      8  N   UNL     1       1.867   7.481  19.190  0.00  0.00    +0.000 N 
ATOM      9  C   UNL     1       2.001   6.207  19.720  0.00  0.00    +0.000 C 
ATOM     10  O   UNL     1       1.673   5.900  20.865  0.00  0.00    +0.000 OA
ATOM     11  H   UNL     1       2.198   7.625  18.243  0.00  0.00    +0.000 HD
BRANCH   8  17
ATOM     12  C   UNL     1       0.051   9.437  23.335  0.00  0.00    +0.000 C 
ATOM     13  C   UNL     1       0.530   9.613  21.924  0.00  0.00    +0.000 A 
ATOM     14  C   UNL     1       0.372  10.839  21.273  0.00  0.00    +0.000 A 
ATOM     15  C   UNL     1       0.759  10.981  19.944  0.00  0.00    +0.000 A 
ATOM     16  C   UNL     1       1.281   9.887  19.245  0.00  0.00    +0.000 A 
ATOM     17  C   UNL     1       1.428   8.646  19.863  0.00  0.00    +0.000 A 
ATOM     18  C   UNL     1       1.082   8.527  21.217  0.00  0.00    +0.000 A 
ENDBRANCH   8  17
ENDBRANCH   1   9
BRANCH   3  19
ATOM     19  S   UNL     1       5.718   5.003  16.254  0.00  0.00    +0.000 S 
ATOM     20  O   UNL     1       6.454   3.798  15.919  0.00  0.00    +0.000 OA
ATOM     21  O   UNL     1       5.143   5.817  15.200  0.00  0.00    +0.000 OA
BRANCH  19  22
ATOM     22  C   UNL     1       6.805   6.041  17.200  0.00  0.00    +0.000 A 
ATOM     23  C   UNL     1       6.965   7.383  16.842  0.00  0.00    +0.000 A 
ATOM     24  C   UNL     1       7.787   8.206  17.612  0.00  0.00    +0.000 A 
ATOM     25  C   UNL     1       8.429   7.693  18.739  0.00  0.00    +0.000 A 
ATOM     26  C   UNL     1       8.244   6.359  19.109  0.00  0.00    +0.000 A 
ATOM     27  C   UNL     1       7.427   5.528  18.342  0.00  0.00    +0.000 A 
ENDBRANCH  19  22
ENDBRANCH   3  19
TORSDOF 4
ENDMDL
