MODEL 1
REMARK VINA RESULT:      -8.0      0.000      0.000
REMARK  Name = 
REMARK  4 active torsions:
REMARK  status: ('A' for Active; 'I' for Inactive)
REMARK    1  A    between atoms: C_2  and  C_14
REMARK    2  A    between atoms: N_3  and  C_4
REMARK    3  A    between atoms: C_4  and  C_5
REMARK    4  A    between atoms: C_4  and  C_10
REMARK                            x       y       z     vdW  Elec       q    Type
REMARK                         _______ _______ _______ _____ _____    ______ ____
ROOT
ATOM      1  O   UNL     1       3.888   6.874  17.189  0.00  0.00    +0.000 OA
ATOM      2  C   UNL     1       4.072   5.677  17.383  0.00  0.00    +0.000 C 
ATOM      3  N   UNL     1       5.168   5.001  16.886  0.00  0.00    +0.000 N 
ATOM      4  H   UNL     1       5.089   3.996  16.789  0.00  0.00    +0.000 HD
ENDROOT
BRANCH   2   5
ATOM      5  C   UNL     1       3.077   4.882  18.157  0.00  0.00    +0.000 A 
ATOM      6  C   UNL     1       1.910   4.351  17.551  0.00  0.00    +0.000 A 
ATOM      7  C   UNL     1       1.004   3.574  18.289  0.00  0.00    +0.000 A 
ATOM      8  C   UNL     1       1.296   3.349  19.618  0.00  0.00    +0.000 A 
ATOM      9  O   UNL     1       0.534   2.605  20.505  0.00  0.00    +0.000 OA
ATOM     10  C   UNL     1       1.287   2.691  21.686  0.00  0.00    +0.000 A 
ATOM     11  O   UNL     1       0.962   2.159  22.739  0.00  0.00    +0.000 OA
ATOM     12  N   UNL     1       2.424   3.438  21.499  0.00  0.00    +0.000 N 
ATOM     13  C   UNL     1       2.438   3.859  20.199  0.00  0.00    +0.000 A 
ATOM     14  C   UNL     1       3.353   4.622  19.510  0.00  0.00    +0.000 A 
ATOM     15  H   UNL     1       3.108   3.615  22.216  0.00  0.00    +0.000 HD
ENDBRANCH   2   5
BRANCH   3  16
ATOM     16  C   UNL     1       6.134   5.694  15.991  0.00  0.00    +0.000 C 
BRANCH  16  17
ATOM     17  C   UNL     1       7.302   6.242  16.840  0.00  0.00    +0.000 C 
ATOM     18  C   UNL     1       7.193   7.710  17.259  0.00  0.00    +0.000 C 
ATOM     19  C   UNL     1       8.237   7.846  18.360  0.00  0.00    +0.000 C 
ATOM     20  C   UNL     1       8.265   6.493  19.065  0.00  0.00    +0.000 C 
ATOM     21  C   UNL     1       7.431   5.545  18.205  0.00  0.00    +0.000 C 
ENDBRANCH  16  17
BRANCH  16  22
ATOM     22  C   UNL     1       6.597   4.818  14.791  0.00  0.00    +0.000 C 
ATOM     23  F   UNL     1       7.636   5.383  14.128  0.00  0.00    +0.000 F 
ATOM     24  F   UNL     1       6.991   3.589  15.196  0.00  0.00    +0.000 F 
ATOM     25  F   UNL     1       5.619   4.643  13.871  0.00  0.00    +0.000 F 
ENDBRANCH  16  22
ENDBRANCH   3  16
TORSDOF 4
ENDMDL
MODEL 2
REMARK VINA RESULT:      -7.6      3.986      5.732
REMARK  Name = 
REMARK  4 active torsions:
REMARK  status: ('A' for Active; 'I' for Inactive)
REMARK    1  A    between atoms: C_2  and  C_14
REMARK    2  A    between atoms: N_3  and  C_4
REMARK    3  A    between atoms: C_4  and  C_5
REMARK    4  A    between atoms: C_4  and  C_10
REMARK                            x       y       z     vdW  Elec       q    Type
REMARK                         _______ _______ _______ _____ _____    ______ ____
ROOT
ATOM      1  O   UNL     1       3.800   5.844  19.885  0.00  0.00    +0.000 OA
ATOM      2  C   UNL     1       3.239   6.457  18.983  0.00  0.00    +0.000 C 
ATOM      3  N   UNL     1       3.478   6.200  17.648  0.00  0.00    +0.000 N 
ATOM      4  H   UNL     1       3.259   6.936  16.987  0.00  0.00    +0.000 HD
ENDROOT
BRANCH   2   5
ATOM      5  C   UNL     1       2.276   7.549  19.304  0.00  0.00    +0.000 A 
ATOM      6  C   UNL     1       1.713   7.692  20.598  0.00  0.00    +0.000 A 
ATOM      7  C   UNL     1       0.837   8.749  20.890  0.00  0.00    +0.000 A 
ATOM      8  C   UNL     1       0.551   9.636  19.873  0.00  0.00    +0.000 A 
ATOM      9  O   UNL     1      -0.279  10.741  19.967  0.00  0.00    +0.000 OA
ATOM     10  C   UNL     1      -0.198  11.282  18.674  0.00  0.00    +0.000 A 
ATOM     11  O   UNL     1      -0.794  12.291  18.321  0.00  0.00    +0.000 OA
ATOM     12  N   UNL     1       0.634  10.538  17.874  0.00  0.00    +0.000 N 
ATOM     13  C   UNL     1       1.111   9.497  18.620  0.00  0.00    +0.000 A 
ATOM     14  C   UNL     1       1.976   8.478  18.295  0.00  0.00    +0.000 A 
ATOM     15  H   UNL     1       0.840  10.759  16.914  0.00  0.00    +0.000 HD
ENDBRANCH   2   5
BRANCH   3  16
ATOM     16  C   UNL     1       4.523   5.221  17.247  0.00  0.00    +0.000 C 
BRANCH  16  17
ATOM     17  C   UNL     1       3.899   3.808  17.207  0.00  0.00    +0.000 C 
ATOM     18  C   UNL     1       4.340   2.852  18.318  0.00  0.00    +0.000 C 
ATOM     19  C   UNL     1       3.311   1.729  18.250  0.00  0.00    +0.000 C 
ATOM     20  C   UNL     1       2.009   2.394  17.813  0.00  0.00    +0.000 C 
ATOM     21  C   UNL     1       2.375   3.819  17.401  0.00  0.00    +0.000 C 
ENDBRANCH  16  17
BRANCH  16  22
ATOM     22  C   UNL     1       5.260   5.611  15.933  0.00  0.00    +0.000 C 
ATOM     23  F   UNL     1       5.085   4.679  14.964  0.00  0.00    +0.000 F 
ATOM     24  F   UNL     1       4.817   6.793  15.447  0.00  0.00    +0.000 F 
ATOM     25  F   UNL     1       6.598   5.724  16.105  0.00  0.00    +0.000 F 
ENDBRANCH  16  22
ENDBRANCH   3  16
TORSDOF 4
ENDMDL
MODEL 3
REMARK VINA RESULT:      -7.6      4.451      5.319
REMARK  Name = 
REMARK  4 active torsions:
REMARK  status: ('A' for Active; 'I' for Inactive)
REMARK    1  A    between atoms: C_2  and  C_14
REMARK    2  A    between atoms: N_3  and  C_4
REMARK    3  A    between atoms: C_4  and  C_5
REMARK    4  A    between atoms: C_4  and  C_10
REMARK                            x       y       z     vdW  Elec       q    Type
REMARK                         _______ _______ _______ _____ _____    ______ ____
ROOT
ATOM      1  O   UNL     1       2.054   5.527  17.599  0.00  0.00    +0.000 OA
ATOM      2  C   UNL     1       2.550   6.035  18.599  0.00  0.00    +0.000 C 
ATOM      3  N   UNL     1       3.571   5.438  19.310  0.00  0.00    +0.000 N 
ATOM      4  H   UNL     1       3.694   5.722  20.274  0.00  0.00    +0.000 HD
ENDROOT
BRANCH   2   5
ATOM      5  C   UNL     1       2.035   7.336  19.113  0.00  0.00    +0.000 A 
ATOM      6  C   UNL     1       1.882   8.465  18.268  0.00  0.00    +0.000 A 
ATOM      7  C   UNL     1       1.360   9.670  18.763  0.00  0.00    +0.000 A 
ATOM      8  C   UNL     1       1.003   9.708  20.095  0.00  0.00    +0.000 A 
ATOM      9  O   UNL     1       0.465  10.797  20.764  0.00  0.00    +0.000 OA
ATOM     10  C   UNL     1       0.283  10.287  22.059  0.00  0.00    +0.000 A 
ATOM     11  O   UNL     1      -0.182  10.937  22.985  0.00  0.00    +0.000 OA
ATOM     12  N   UNL     1       0.687   8.977  22.141  0.00  0.00    +0.000 N 
ATOM     13  C   UNL     1       1.144   8.603  20.908  0.00  0.00    +0.000 A 
ATOM     14  C   UNL     1       1.648   7.403  20.461  0.00  0.00    +0.000 A 
ATOM     15  H   UNL     1       0.631   8.420  22.977  0.00  0.00    +0.000 HD
ENDBRANCH   2   5
BRANCH   3  16
ATOM     16  C   UNL     1       4.047   4.078  18.940  0.00  0.00    +0.000 C 
BRANCH  16  17
ATOM     17  C   UNL     1       5.566   4.134  18.665  0.00  0.00    +0.000 C 
ATOM     18  C   UNL     1       5.974   4.322  17.202  0.00  0.00    +0.000 C 
ATOM     19  C   UNL     1       7.443   4.718  17.289  0.00  0.00    +0.000 C 
ATOM     20  C   UNL     1       7.576   5.510  18.585  0.00  0.00    +0.000 C 
ATOM     21  C   UNL     1       6.252   5.338  19.329  0.00  0.00    +0.000 C 
ENDBRANCH  16  17
BRANCH  16  22
ATOM     22  C   UNL     1       3.643   2.984  19.971  0.00  0.00    +0.000 C 
ATOM     23  F   UNL     1       2.956   3.508  21.016  0.00  0.00    +0.000 F 
ATOM     24  F   UNL     1       2.867   2.032  19.407  0.00  0.00    +0.000 F 
ATOM     25  F   UNL     1       4.718   2.360  20.508  0.00  0.00    +0.000 F 
ENDBRANCH  16  22
ENDBRANCH   3  16
TORSDOF 4
ENDMDL
MODEL 4
REMARK VINA RESULT:      -7.6      3.906      5.352
REMARK  Name = 
REMARK  4 active torsions:
REMARK  status: ('A' for Active; 'I' for Inactive)
REMARK    1  A    between atoms: C_2  and  C_14
REMARK    2  A    between atoms: N_3  and  C_4
REMARK    3  A    between atoms: C_4  and  C_5
REMARK    4  A    between atoms: C_4  and  C_10
REMARK                            x       y       z     vdW  Elec       q    Type
REMARK                         _______ _______ _______ _____ _____    ______ ____
ROOT
ATOM      1  O   UNL     1       3.791   5.887  19.768  0.00  0.00    +0.000 OA
ATOM      2  C   UNL     1       3.295   6.435  18.789  0.00  0.00    +0.000 C 
ATOM      3  N   UNL     1       3.552   6.026  17.496  0.00  0.00    +0.000 N 
ATOM      4  H   UNL     1       3.398   6.700  16.757  0.00  0.00    +0.000 HD
ENDROOT
BRANCH   2   5
ATOM      5  C   UNL     1       2.395   7.611  18.964  0.00  0.00    +0.000 A 
ATOM      6  C   UNL     1       2.020   8.434  17.871  0.00  0.00    +0.000 A 
ATOM      7  C   UNL     1       1.143   9.514  18.050  0.00  0.00    +0.000 A 
ATOM      8  C   UNL     1       0.664   9.739  19.324  0.00  0.00    +0.000 A 
ATOM      9  O   UNL     1      -0.212  10.746  19.699  0.00  0.00    +0.000 OA
ATOM     10  C   UNL     1      -0.370  10.503  21.072  0.00  0.00    +0.000 A 
ATOM     11  O   UNL     1      -1.081  11.179  21.804  0.00  0.00    +0.000 OA
ATOM     12  N   UNL     1       0.368   9.417  21.475  0.00  0.00    +0.000 N 
ATOM     13  C   UNL     1       1.025   8.929  20.380  0.00  0.00    +0.000 A 
ATOM     14  C   UNL     1       1.879   7.859  20.246  0.00  0.00    +0.000 A 
ATOM     15  H   UNL     1       0.388   9.066  22.417  0.00  0.00    +0.000 HD
ENDBRANCH   2   5
BRANCH   3  16
ATOM     16  C   UNL     1       4.543   4.948  17.234  0.00  0.00    +0.000 C 
BRANCH  16  17
ATOM     17  C   UNL     1       3.836   3.579  17.340  0.00  0.00    +0.000 C 
ATOM     18  C   UNL     1       4.179   2.743  18.575  0.00  0.00    +0.000 C 
ATOM     19  C   UNL     1       3.087   1.680  18.602  0.00  0.00    +0.000 C 
ATOM     20  C   UNL     1       1.844   2.358  18.035  0.00  0.00    +0.000 C 
ATOM     21  C   UNL     1       2.309   3.699  17.469  0.00  0.00    +0.000 C 
ENDBRANCH  16  17
BRANCH  16  22
ATOM     22  C   UNL     1       5.323   5.142  15.902  0.00  0.00    +0.000 C 
ATOM     23  F   UNL     1       4.983   4.207  14.980  0.00  0.00    +0.000 F 
ATOM     24  F   UNL     1       5.085   6.357  15.358  0.00  0.00    +0.000 F 
ATOM     25  F   UNL     1       6.663   5.031  16.067  0.00  0.00    +0.000 F 
ENDBRANCH  16  22
ENDBRANCH   3  16
TORSDOF 4
ENDMDL
MODEL 5
REMARK VINA RESULT:      -7.6      3.752      5.260
REMARK  Name = 
REMARK  4 active torsions:
REMARK  status: ('A' for Active; 'I' for Inactive)
REMARK    1  A    between atoms: C_2  and  C_14
REMARK    2  A    between atoms: N_3  and  C_4
REMARK    3  A    between atoms: C_4  and  C_5
REMARK    4  A    between atoms: C_4  and  C_10
REMARK                            x       y       z     vdW  Elec       q    Type
REMARK                         _______ _______ _______ _____ _____    ______ ____
ROOT
ATOM      1  O   UNL     1       3.256   4.874  18.481  0.00  0.00    +0.000 OA
ATOM      2  C   UNL     1       3.591   6.050  18.386  0.00  0.00    +0.000 C 
ATOM      3  N   UNL     1       4.811   6.438  17.869  0.00  0.00    +0.000 N 
ATOM      4  H   UNL     1       5.154   7.355  18.126  0.00  0.00    +0.000 HD
ENDROOT
BRANCH   2   5
ATOM      5  C   UNL     1       2.682   7.130  18.864  0.00  0.00    +0.000 A 
ATOM      6  C   UNL     1       2.154   7.134  20.180  0.00  0.00    +0.000 A 
ATOM      7  C   UNL     1       1.328   8.180  20.622  0.00  0.00    +0.000 A 
ATOM      8  C   UNL     1       1.057   9.196  19.730  0.00  0.00    +0.000 A 
ATOM      9  O   UNL     1       0.274  10.312  19.980  0.00  0.00    +0.000 OA
ATOM     10  C   UNL     1       0.350  11.004  18.761  0.00  0.00    +0.000 A 
ATOM     11  O   UNL     1      -0.212  12.071  18.550  0.00  0.00    +0.000 OA
ATOM     12  N   UNL     1       1.133  10.333  17.854  0.00  0.00    +0.000 N 
ATOM     13  C   UNL     1       1.582   9.190  18.454  0.00  0.00    +0.000 A 
ATOM     14  C   UNL     1       2.398   8.188  17.984  0.00  0.00    +0.000 A 
ATOM     15  H   UNL     1       1.327  10.662  16.923  0.00  0.00    +0.000 HD
ENDBRANCH   2   5
BRANCH   3  16
ATOM     16  C   UNL     1       5.826   5.416  17.497  0.00  0.00    +0.000 C 
BRANCH  16  17
ATOM     17  C   UNL     1       5.958   5.375  15.959  0.00  0.00    +0.000 C 
ATOM     18  C   UNL     1       7.317   4.924  15.416  0.00  0.00    +0.000 C 
ATOM     19  C   UNL     1       7.032   4.618  13.951  0.00  0.00    +0.000 C 
ATOM     20  C   UNL     1       5.597   4.102  13.912  0.00  0.00    +0.000 C 
ATOM     21  C   UNL     1       5.014   4.356  15.301  0.00  0.00    +0.000 C 
ENDBRANCH  16  17
BRANCH  16  22
ATOM     22  C   UNL     1       7.186   5.605  18.231  0.00  0.00    +0.000 C 
ATOM     23  F   UNL     1       7.867   6.677  17.758  0.00  0.00    +0.000 F 
ATOM     24  F   UNL     1       7.012   5.785  19.560  0.00  0.00    +0.000 F 
ATOM     25  F   UNL     1       8.009   4.541  18.075  0.00  0.00    +0.000 F 
ENDBRANCH  16  22
ENDBRANCH   3  16
TORSDOF 4
ENDMDL
MODEL 6
REMARK VINA RESULT:      -7.5      3.648      4.870
REMARK  Name = 
REMARK  4 active torsions:
REMARK  status: ('A' for Active; 'I' for Inactive)
REMARK    1  A    between atoms: C_2  and  C_14
REMARK    2  A    between atoms: N_3  and  C_4
REMARK    3  A    between atoms: C_4  and  C_5
REMARK    4  A    between atoms: C_4  and  C_10
REMARK                            x       y       z     vdW  Elec       q    Type
REMARK                         _______ _______ _______ _____ _____    ______ ____
ROOT
ATOM      1  O   UNL     1       3.883   4.987  19.642  0.00  0.00    +0.000 OA
ATOM      2  C   UNL     1       4.020   5.898  18.832  0.00  0.00    +0.000 C 
ATOM      3  N   UNL     1       5.029   5.912  17.890  0.00  0.00    +0.000 N 
ATOM      4  H   UNL     1       5.286   6.810  17.500  0.00  0.00    +0.000 HD
ENDROOT
BRANCH   2   5
ATOM      5  C   UNL     1       3.094   7.066  18.855  0.00  0.00    +0.000 A 
ATOM      6  C   UNL     1       2.927   7.909  17.727  0.00  0.00    +0.000 A 
ATOM      7  C   UNL     1       2.023   8.982  17.757  0.00  0.00    +0.000 A 
ATOM      8  C   UNL     1       1.309   9.179  18.920  0.00  0.00    +0.000 A 
ATOM      9  O   UNL     1       0.369  10.174  19.141  0.00  0.00    +0.000 OA
ATOM     10  C   UNL     1      -0.045   9.903  20.455  0.00  0.00    +0.000 A 
ATOM     11  O   UNL     1      -0.887  10.560  21.051  0.00  0.00    +0.000 OA
ATOM     12  N   UNL     1       0.613   8.812  20.969  0.00  0.00    +0.000 N 
ATOM     13  C   UNL     1       1.470   8.349  20.010  0.00  0.00    +0.000 A 
ATOM     14  C   UNL     1       2.341   7.285  20.020  0.00  0.00    +0.000 A 
ATOM     15  H   UNL     1       0.456   8.443  21.892  0.00  0.00    +0.000 HD
ENDBRANCH   2   5
BRANCH   3  16
ATOM     16  C   UNL     1       6.071   4.851  17.892  0.00  0.00    +0.000 C 
BRANCH  16  17
ATOM     17  C   UNL     1       6.238   4.309  16.455  0.00  0.00    +0.000 C 
ATOM     18  C   UNL     1       4.977   4.314  15.588  0.00  0.00    +0.000 C 
ATOM     19  C   UNL     1       5.513   4.107  14.177  0.00  0.00    +0.000 C 
ATOM     20  C   UNL     1       6.876   4.791  14.153  0.00  0.00    +0.000 C 
ATOM     21  C   UNL     1       7.198   5.154  15.602  0.00  0.00    +0.000 C 
ENDBRANCH  16  17
BRANCH  16  22
ATOM     22  C   UNL     1       7.410   5.305  18.542  0.00  0.00    +0.000 C 
ATOM     23  F   UNL     1       8.403   4.408  18.325  0.00  0.00    +0.000 F 
ATOM     24  F   UNL     1       7.821   6.497  18.053  0.00  0.00    +0.000 F 
ATOM     25  F   UNL     1       7.312   5.435  19.887  0.00  0.00    +0.000 F 
ENDBRANCH  16  22
ENDBRANCH   3  16
TORSDOF 4
ENDMDL
MODEL 7
REMARK VINA RESULT:      -7.5      3.734      4.754
REMARK  Name = 
REMARK  4 active torsions:
REMARK  status: ('A' for Active; 'I' for Inactive)
REMARK    1  A    between atoms: C_2  and  C_14
REMARK    2  A    between atoms: N_3  and  C_4
REMARK    3  A    between atoms: C_4  and  C_5
REMARK    4  A    between atoms: C_4  and  C_10
REMARK                            x       y       z     vdW  Elec       q    Type
REMARK                         _______ _______ _______ _____ _____    ______ ____
ROOT
ATOM      1  O   UNL     1       2.938   5.177  17.778  0.00  0.00    +0.000 OA
ATOM      2  C   UNL     1       3.461   6.264  18.002  0.00  0.00    +0.000 C 
ATOM      3  N   UNL     1       4.812   6.489  17.832  0.00  0.00    +0.000 N 
ATOM      4  H   UNL     1       5.221   7.264  18.339  0.00  0.00    +0.000 HD
ENDROOT
BRANCH   2   5
ATOM      5  C   UNL     1       2.641   7.402  18.506  0.00  0.00    +0.000 A 
ATOM      6  C   UNL     1       2.258   8.477  17.664  0.00  0.00    +0.000 A 
ATOM      7  C   UNL     1       1.454   9.520  18.148  0.00  0.00    +0.000 A 
ATOM      8  C   UNL     1       1.054   9.455  19.466  0.00  0.00    +0.000 A 
ATOM      9  O   UNL     1       0.256  10.379  20.123  0.00  0.00    +0.000 OA
ATOM     10  C   UNL     1       0.154   9.821  21.407  0.00  0.00    +0.000 A 
ATOM     11  O   UNL     1      -0.479  10.332  22.321  0.00  0.00    +0.000 OA
ATOM     12  N   UNL     1       0.849   8.640  21.494  0.00  0.00    +0.000 N 
ATOM     13  C   UNL     1       1.421   8.400  20.276  0.00  0.00    +0.000 A 
ATOM     14  C   UNL     1       2.204   7.357  19.840  0.00  0.00    +0.000 A 
ATOM     15  H   UNL     1       0.896   8.073  22.324  0.00  0.00    +0.000 HD
ENDBRANCH   2   5
BRANCH   3  16
ATOM     16  C   UNL     1       5.718   5.368  17.463  0.00  0.00    +0.000 C 
BRANCH  16  17
ATOM     17  C   UNL     1       5.886   5.342  15.927  0.00  0.00    +0.000 C 
ATOM     18  C   UNL     1       7.317   5.169  15.414  0.00  0.00    +0.000 C 
ATOM     19  C   UNL     1       7.129   4.800  13.948  0.00  0.00    +0.000 C 
ATOM     20  C   UNL     1       5.829   4.004  13.891  0.00  0.00    +0.000 C 
ATOM     21  C   UNL     1       5.179   4.148  15.266  0.00  0.00    +0.000 C 
ENDBRANCH  16  17
BRANCH  16  22
ATOM     22  C   UNL     1       7.070   5.392  18.233  0.00  0.00    +0.000 C 
ATOM     23  F   UNL     1       7.809   6.485  17.919  0.00  0.00    +0.000 F 
ATOM     24  F   UNL     1       6.880   5.399  19.572  0.00  0.00    +0.000 F 
ATOM     25  F   UNL     1       7.848   4.322  17.945  0.00  0.00    +0.000 F 
ENDBRANCH  16  22
ENDBRANCH   3  16
TORSDOF 4
ENDMDL
MODEL 8
REMARK VINA RESULT:      -7.5      4.206      4.904
REMARK  Name = 
REMARK  4 active torsions:
REMARK  status: ('A' for Active; 'I' for Inactive)
REMARK    1  A    between atoms: C_2  and  C_14
REMARK    2  A    between atoms: N_3  and  C_4
REMARK    3  A    between atoms: C_4  and  C_5
REMARK    4  A    between atoms: C_4  and  C_10
REMARK                            x       y       z     vdW  Elec       q    Type
REMARK                         _______ _______ _______ _____ _____    ______ ____
ROOT
ATOM      1  O   UNL     1       3.613   6.951  16.912  0.00  0.00    +0.000 OA
ATOM      2  C   UNL     1       3.114   6.710  18.007  0.00  0.00    +0.000 C 
ATOM      3  N   UNL     1       3.203   5.472  18.610  0.00  0.00    +0.000 N 
ATOM      4  H   UNL     1       2.510   5.247  19.313  0.00  0.00    +0.000 HD
ENDROOT
BRANCH   2   5
ATOM      5  C   UNL     1       2.350   7.766  18.731  0.00  0.00    +0.000 A 
ATOM      6  C   UNL     1       1.790   8.879  18.055  0.00  0.00    +0.000 A 
ATOM      7  C   UNL     1       1.042   9.843  18.749  0.00  0.00    +0.000 A 
ATOM      8  C   UNL     1       0.875   9.660  20.106  0.00  0.00    +0.000 A 
ATOM      9  O   UNL     1       0.167  10.492  20.958  0.00  0.00    +0.000 OA
ATOM     10  C   UNL     1       0.306   9.838  22.193  0.00  0.00    +0.000 A 
ATOM     11  O   UNL     1      -0.182  10.248  23.237  0.00  0.00    +0.000 OA
ATOM     12  N   UNL     1       1.048   8.690  22.067  0.00  0.00    +0.000 N 
ATOM     13  C   UNL     1       1.413   8.569  20.755  0.00  0.00    +0.000 A 
ATOM     14  C   UNL     1       2.149   7.601  20.111  0.00  0.00    +0.000 A 
ATOM     15  H   UNL     1       1.258   8.067  22.829  0.00  0.00    +0.000 HD
ENDBRANCH   2   5
BRANCH   3  16
ATOM     16  C   UNL     1       3.832   4.332  17.891  0.00  0.00    +0.000 C 
BRANCH  16  17
ATOM     17  C   UNL     1       5.334   4.279  18.247  0.00  0.00    +0.000 C 
ATOM     18  C   UNL     1       6.302   4.618  17.111  0.00  0.00    +0.000 C 
ATOM     19  C   UNL     1       7.625   4.858  17.829  0.00  0.00    +0.000 C 
ATOM     20  C   UNL     1       7.252   5.458  19.181  0.00  0.00    +0.000 C 
ATOM     21  C   UNL     1       5.736   5.316  19.309  0.00  0.00    +0.000 C 
ENDBRANCH  16  17
BRANCH  16  22
ATOM     22  C   UNL     1       3.094   2.980  18.117  0.00  0.00    +0.000 C 
ATOM     23  F   UNL     1       2.845   2.758  19.432  0.00  0.00    +0.000 F 
ATOM     24  F   UNL     1       1.909   2.945  17.465  0.00  0.00    +0.000 F 
ATOM     25  F   UNL     1       3.818   1.918  17.691  0.00  0.00    +0.000 F 
ENDBRANCH  16  22
ENDBRANCH   3  16
TORSDOF 4
ENDMDL
MODEL 9
REMARK VINA RESULT:      -7.4      5.120      5.865
REMARK  Name = 
REMARK  4 active torsions:
REMARK  status: ('A' for Active; 'I' for Inactive)
REMARK    1  A    between atoms: C_2  and  C_14
REMARK    2  A    between atoms: N_3  and  C_4
REMARK    3  A    between atoms: C_4  and  C_5
REMARK    4  A    between atoms: C_4  and  C_10
REMARK                            x       y       z     vdW  Elec       q    Type
REMARK                         _______ _______ _______ _____ _____    ______ ____
ROOT
ATOM      1  O   UNL     1       2.231   8.284  17.377  0.00  0.00    +0.000 OA
ATOM      2  C   UNL     1       2.192   7.808  18.507  0.00  0.00    +0.000 C 
ATOM      3  N   UNL     1       2.642   6.535  18.794  0.00  0.00    +0.000 N 
ATOM      4  H   UNL     1       2.281   6.093  19.631  0.00  0.00    +0.000 HD
ENDROOT
BRANCH   2   5
ATOM      5  C   UNL     1       1.616   8.596  19.634  0.00  0.00    +0.000 A 
ATOM      6  C   UNL     1       1.564   8.082  20.955  0.00  0.00    +0.000 A 
ATOM      7  C   UNL     1       1.051   8.855  22.009  0.00  0.00    +0.000 A 
ATOM      8  C   UNL     1       0.606  10.125  21.707  0.00  0.00    +0.000 A 
ATOM      9  O   UNL     1       0.077  11.038  22.606  0.00  0.00    +0.000 OA
ATOM     10  C   UNL     1      -0.187  12.144  21.783  0.00  0.00    +0.000 A 
ATOM     11  O   UNL     1      -0.670  13.192  22.189  0.00  0.00    +0.000 OA
ATOM     12  N   UNL     1       0.170  11.893  20.481  0.00  0.00    +0.000 N 
ATOM     13  C   UNL     1       0.670  10.622  20.422  0.00  0.00    +0.000 A 
ATOM     14  C   UNL     1       1.168   9.899  19.363  0.00  0.00    +0.000 A 
ATOM     15  H   UNL     1       0.075  12.557  19.731  0.00  0.00    +0.000 HD
ENDBRANCH   2   5
BRANCH   3  16
ATOM     16  C   UNL     1       3.104   5.639  17.701  0.00  0.00    +0.000 C 
BRANCH  16  17
ATOM     17  C   UNL     1       4.628   5.424  17.838  0.00  0.00    +0.000 C 
ATOM     18  C   UNL     1       5.511   6.581  17.365  0.00  0.00    +0.000 C 
ATOM     19  C   UNL     1       6.875   6.255  17.962  0.00  0.00    +0.000 C 
ATOM     20  C   UNL     1       6.585   5.552  19.284  0.00  0.00    +0.000 C 
ATOM     21  C   UNL     1       5.084   5.269  19.298  0.00  0.00    +0.000 C 
ENDBRANCH  16  17
BRANCH  16  22
ATOM     22  C   UNL     1       2.297   4.311  17.612  0.00  0.00    +0.000 C 
ATOM     23  F   UNL     1       1.013   4.530  17.233  0.00  0.00    +0.000 F 
ATOM     24  F   UNL     1       2.845   3.454  16.722  0.00  0.00    +0.000 F 
ATOM     25  F   UNL     1       2.230   3.667  18.801  0.00  0.00    +0.000 F 
ENDBRANCH  16  22
ENDBRANCH   3  16
TORSDOF 4
ENDMDL
