MODEL 1
REMARK VINA RESULT:      -7.9      0.000      0.000
REMARK  Name = 
REMARK  15 active torsions:
REMARK  status: ('A' for Active; 'I' for Inactive)
REMARK    1  A    between atoms: C_1  and  C_2
REMARK    2  A    between atoms: C_2  and  O_3
REMARK    3  A    between atoms: O_3  and  C_4
REMARK    4  A    between atoms: C_4  and  C_6
REMARK    5  A    between atoms: C_6  and  C_7
REMARK    6  A    between atoms: C_6  and  N_24
REMARK    7  A    between atoms: C_6  and  C_28
REMARK    8  A    between atoms: C_7  and  C_8
REMARK    9  A    between atoms: C_11  and  O_12
REMARK   10  A    between atoms: O_12  and  C_13
REMARK   11  A    between atoms: C_13  and  C_14
REMARK   12  A    between atoms: C_25  and  C_26
REMARK   13  A    between atoms: C_28  and  O_30
REMARK   14  A    between atoms: O_30  and  C_31
REMARK   15  A    between atoms: C_31  and  C_32
REMARK                            x       y       z     vdW  Elec       q    Type
REMARK                         _______ _______ _______ _____ _____    ______ ____
ROOT
ATOM      1  C   UNL     1       4.277   5.512  16.995  0.00  0.00    +0.000 C 
ENDROOT
BRANCH   1   2
ATOM      2  C   UNL     1       3.489   6.383  17.958  0.00  0.00    +0.000 A 
ATOM      3  C   UNL     1       3.072   5.920  19.206  0.00  0.00    +0.000 A 
ATOM      4  C   UNL     1       2.263   6.687  20.028  0.00  0.00    +0.000 A 
ATOM      5  C   UNL     1       1.954   7.993  19.685  0.00  0.00    +0.000 A 
ATOM      6  C   UNL     1       2.392   8.504  18.464  0.00  0.00    +0.000 A 
ATOM      7  C   UNL     1       3.152   7.697  17.602  0.00  0.00    +0.000 A 
BRANCH   5   8
ATOM      8  O   UNL     1       1.241   8.831  20.501  0.00  0.00    +0.000 OA
BRANCH   8   9
ATOM      9  C   UNL     1       0.344   9.690  19.783  0.00  0.00    +0.000 C 
BRANCH   9  10
ATOM     10  C   UNL     1      -0.058  10.844  20.643  0.00  0.00    +0.000 A 
ATOM     11  C   UNL     1      -0.042  12.133  20.108  0.00  0.00    +0.000 A 
ATOM     12  F   UNL     1       0.321  12.324  18.830  0.00  0.00    +0.000 F 
ATOM     13  C   UNL     1      -0.421  13.242  20.861  0.00  0.00    +0.000 A 
ATOM     14  C   UNL     1      -0.831  13.066  22.175  0.00  0.00    +0.000 A 
ATOM     15  C   UNL     1      -0.885  11.786  22.723  0.00  0.00    +0.000 A 
ATOM     16  C   UNL     1      -0.512  10.676  21.960  0.00  0.00    +0.000 A 
ATOM     17 CL   UNL     1      -0.691   9.118  22.683  0.00  0.00    +0.000 Cl
ENDBRANCH   9  10
ENDBRANCH   8   9
ENDBRANCH   5   8
ENDBRANCH   1   2
BRANCH   1  18
ATOM     18  C   UNL     1       5.512   4.723  17.512  0.00  0.00    +0.000 C 
BRANCH  18  19
ATOM     19  N   UNL     1       5.094   3.509  18.283  0.00  0.00    +0.000 N 
ATOM     20  C   UNL     1       3.983   2.770  17.970  0.00  0.00    +0.000 C 
ATOM     21  C   UNL     1       3.760   1.565  18.841  0.00  0.00    +0.000 C 
ATOM     22  O   UNL     1       3.224   3.045  17.049  0.00  0.00    +0.000 OA
ATOM     23  H   UNL     1       5.647   3.267  19.096  0.00  0.00    +0.000 HD
ENDBRANCH  18  19
BRANCH  18  24
ATOM     24  C   UNL     1       6.499   4.227  16.436  0.00  0.00    +0.000 C 
ATOM     25  O   UNL     1       7.708   4.103  16.633  0.00  0.00    +0.000 OA
BRANCH  24  26
ATOM     26  O   UNL     1       5.880   3.845  15.289  0.00  0.00    +0.000 OA
BRANCH  26  28
ATOM     27  C   UNL     1       6.156   3.534  12.872  0.00  0.00    +0.000 C 
ATOM     28  C   UNL     1       6.364   4.439  14.076  0.00  0.00    +0.000 C 
ENDBRANCH  26  28
ENDBRANCH  24  26
ENDBRANCH  18  24
BRANCH  18  29
ATOM     29  C   UNL     1       6.304   5.610  18.509  0.00  0.00    +0.000 C 
ATOM     30  O   UNL     1       6.570   5.323  19.668  0.00  0.00    +0.000 OA
BRANCH  29  31
ATOM     31  O   UNL     1       6.712   6.780  17.920  0.00  0.00    +0.000 OA
BRANCH  31  32
ATOM     32  C   UNL     1       8.017   7.215  18.338  0.00  0.00    +0.000 C 
ATOM     33  C   UNL     1       8.158   8.677  17.963  0.00  0.00    +0.000 C 
ENDBRANCH  31  32
ENDBRANCH  29  31
ENDBRANCH  18  29
ENDBRANCH   1  18
TORSDOF 12
ENDMDL
MODEL 2
REMARK VINA RESULT:      -7.8      1.886      3.859
REMARK  Name = 
REMARK  15 active torsions:
REMARK  status: ('A' for Active; 'I' for Inactive)
REMARK    1  A    between atoms: C_1  and  C_2
REMARK    2  A    between atoms: C_2  and  O_3
REMARK    3  A    between atoms: O_3  and  C_4
REMARK    4  A    between atoms: C_4  and  C_6
REMARK    5  A    between atoms: C_6  and  C_7
REMARK    6  A    between atoms: C_6  and  N_24
REMARK    7  A    between atoms: C_6  and  C_28
REMARK    8  A    between atoms: C_7  and  C_8
REMARK    9  A    between atoms: C_11  and  O_12
REMARK   10  A    between atoms: O_12  and  C_13
REMARK   11  A    between atoms: C_13  and  C_14
REMARK   12  A    between atoms: C_25  and  C_26
REMARK   13  A    between atoms: C_28  and  O_30
REMARK   14  A    between atoms: O_30  and  C_31
REMARK   15  A    between atoms: C_31  and  C_32
REMARK                            x       y       z     vdW  Elec       q    Type
REMARK                         _______ _______ _______ _____ _____    ______ ____
ROOT
ATOM      1  C   UNL     1       3.045   4.657  17.514  0.00  0.00    +0.000 C 
ENDROOT
BRANCH   1   2
ATOM      2  C   UNL     1       2.597   5.869  18.312  0.00  0.00    +0.000 A 
ATOM      3  C   UNL     1       2.748   7.170  17.834  0.00  0.00    +0.000 A 
ATOM      4  C   UNL     1       2.434   8.268  18.617  0.00  0.00    +0.000 A 
ATOM      5  C   UNL     1       1.837   8.099  19.855  0.00  0.00    +0.000 A 
ATOM      6  C   UNL     1       1.630   6.811  20.345  0.00  0.00    +0.000 A 
ATOM      7  C   UNL     1       2.015   5.701  19.577  0.00  0.00    +0.000 A 
BRANCH   5   8
ATOM      8  O   UNL     1       1.416   9.146  20.632  0.00  0.00    +0.000 OA
BRANCH   8   9
ATOM      9  C   UNL     1       0.137   8.919  21.239  0.00  0.00    +0.000 C 
BRANCH   9  10
ATOM     10  C   UNL     1      -0.561  10.220  21.466  0.00  0.00    +0.000 A 
ATOM     11  C   UNL     1      -0.804  10.647  22.773  0.00  0.00    +0.000 A 
ATOM     12  F   UNL     1      -0.402   9.895  23.809  0.00  0.00    +0.000 F 
ATOM     13  C   UNL     1      -1.439  11.858  23.040  0.00  0.00    +0.000 A 
ATOM     14  C   UNL     1      -1.835  12.667  21.985  0.00  0.00    +0.000 A 
ATOM     15  C   UNL     1      -1.578  12.279  20.672  0.00  0.00    +0.000 A 
ATOM     16  C   UNL     1      -0.933  11.067  20.410  0.00  0.00    +0.000 A 
ATOM     17 CL   UNL     1      -0.570  10.700  18.762  0.00  0.00    +0.000 Cl
ENDBRANCH   9  10
ENDBRANCH   8   9
ENDBRANCH   5   8
ENDBRANCH   1   2
BRANCH   1  18
ATOM     18  C   UNL     1       4.340   3.903  17.928  0.00  0.00    +0.000 C 
BRANCH  18  19
ATOM     19  N   UNL     1       5.160   3.538  16.729  0.00  0.00    +0.000 N 
ATOM     20  C   UNL     1       5.440   4.418  15.718  0.00  0.00    +0.000 C 
ATOM     21  C   UNL     1       6.313   3.867  14.625  0.00  0.00    +0.000 C 
ATOM     22  O   UNL     1       5.031   5.572  15.692  0.00  0.00    +0.000 OA
ATOM     23  H   UNL     1       5.473   2.576  16.662  0.00  0.00    +0.000 HD
ENDBRANCH  18  19
BRANCH  18  24
ATOM     24  C   UNL     1       5.289   4.660  18.880  0.00  0.00    +0.000 C 
ATOM     25  O   UNL     1       4.896   5.321  19.841  0.00  0.00    +0.000 OA
BRANCH  24  26
ATOM     26  O   UNL     1       6.601   4.434  18.606  0.00  0.00    +0.000 OA
BRANCH  26  28
ATOM     27  C   UNL     1       7.452   6.634  17.937  0.00  0.00    +0.000 C 
ATOM     28  C   UNL     1       7.511   5.491  18.939  0.00  0.00    +0.000 C 
ENDBRANCH  26  28
ENDBRANCH  24  26
ENDBRANCH  18  24
BRANCH  18  29
ATOM     29  C   UNL     1       3.956   2.563  18.609  0.00  0.00    +0.000 C 
ATOM     30  O   UNL     1       3.865   1.477  18.052  0.00  0.00    +0.000 OA
BRANCH  29  31
ATOM     31  O   UNL     1       3.748   2.728  19.955  0.00  0.00    +0.000 OA
BRANCH  31  32
ATOM     32  C   UNL     1       2.431   2.349  20.389  0.00  0.00    +0.000 C 
ATOM     33  C   UNL     1       2.226   2.910  21.783  0.00  0.00    +0.000 C 
ENDBRANCH  31  32
ENDBRANCH  29  31
ENDBRANCH  18  29
ENDBRANCH   1  18
TORSDOF 12
ENDMDL
MODEL 3
REMARK VINA RESULT:      -7.7      1.742      3.685
REMARK  Name = 
REMARK  15 active torsions:
REMARK  status: ('A' for Active; 'I' for Inactive)
REMARK    1  A    between atoms: C_1  and  C_2
REMARK    2  A    between atoms: C_2  and  O_3
REMARK    3  A    between atoms: O_3  and  C_4
REMARK    4  A    between atoms: C_4  and  C_6
REMARK    5  A    between atoms: C_6  and  C_7
REMARK    6  A    between atoms: C_6  and  N_24
REMARK    7  A    between atoms: C_6  and  C_28
REMARK    8  A    between atoms: C_7  and  C_8
REMARK    9  A    between atoms: C_11  and  O_12
REMARK   10  A    between atoms: O_12  and  C_13
REMARK   11  A    between atoms: C_13  and  C_14
REMARK   12  A    between atoms: C_25  and  C_26
REMARK   13  A    between atoms: C_28  and  O_30
REMARK   14  A    between atoms: O_30  and  C_31
REMARK   15  A    between atoms: C_31  and  C_32
REMARK                            x       y       z     vdW  Elec       q    Type
REMARK                         _______ _______ _______ _____ _____    ______ ____
ROOT
ATOM      1  C   UNL     1       3.527   5.099  17.342  0.00  0.00    +0.000 C 
ENDROOT
BRANCH   1   2
ATOM      2  C   UNL     1       2.953   6.251  18.147  0.00  0.00    +0.000 A 
ATOM      3  C   UNL     1       2.431   6.074  19.428  0.00  0.00    +0.000 A 
ATOM      4  C   UNL     1       1.815   7.112  20.107  0.00  0.00    +0.000 A 
ATOM      5  C   UNL     1       1.817   8.393  19.580  0.00  0.00    +0.000 A 
ATOM      6  C   UNL     1       2.372   8.615  18.321  0.00  0.00    +0.000 A 
ATOM      7  C   UNL     1       2.932   7.545  17.606  0.00  0.00    +0.000 A 
BRANCH   5   8
ATOM      8  O   UNL     1       1.311   9.477  20.248  0.00  0.00    +0.000 OA
BRANCH   8   9
ATOM      9  C   UNL     1       0.197   9.151  21.090  0.00  0.00    +0.000 C 
BRANCH   9  10
ATOM     10  C   UNL     1      -0.584  10.384  21.408  0.00  0.00    +0.000 A 
ATOM     11  C   UNL     1      -0.848  10.701  22.742  0.00  0.00    +0.000 A 
ATOM     12  F   UNL     1      -0.392   9.907  23.722  0.00  0.00    +0.000 F 
ATOM     13  C   UNL     1      -1.559  11.846  23.094  0.00  0.00    +0.000 A 
ATOM     14  C   UNL     1      -2.013  12.699  22.098  0.00  0.00    +0.000 A 
ATOM     15  C   UNL     1      -1.737  12.422  20.761  0.00  0.00    +0.000 A 
ATOM     16  C   UNL     1      -1.015  11.276  20.415  0.00  0.00    +0.000 A 
ATOM     17 CL   UNL     1      -0.638  11.050  18.745  0.00  0.00    +0.000 Cl
ENDBRANCH   9  10
ENDBRANCH   8   9
ENDBRANCH   5   8
ENDBRANCH   1   2
BRANCH   1  18
ATOM     18  C   UNL     1       4.865   4.444  17.788  0.00  0.00    +0.000 C 
BRANCH  18  19
ATOM     19  N   UNL     1       5.621   3.903  16.615  0.00  0.00    +0.000 N 
ATOM     20  C   UNL     1       5.619   4.502  15.382  0.00  0.00    +0.000 C 
ATOM     21  C   UNL     1       6.474   3.823  14.349  0.00  0.00    +0.000 C 
ATOM     22  O   UNL     1       4.986   5.518  15.125  0.00  0.00    +0.000 OA
ATOM     23  H   UNL     1       6.113   3.027  16.748  0.00  0.00    +0.000 HD
ENDBRANCH  18  19
BRANCH  18  24
ATOM     24  C   UNL     1       5.848   5.360  18.544  0.00  0.00    +0.000 C 
ATOM     25  O   UNL     1       5.817   5.526  19.763  0.00  0.00    +0.000 OA
BRANCH  24  26
ATOM     26  O   UNL     1       6.811   5.880  17.738  0.00  0.00    +0.000 OA
BRANCH  26  28
ATOM     27  C   UNL     1       8.014   8.013  17.844  0.00  0.00    +0.000 C 
ATOM     28  C   UNL     1       6.730   7.288  17.475  0.00  0.00    +0.000 C 
ENDBRANCH  26  28
ENDBRANCH  24  26
ENDBRANCH  18  24
BRANCH  18  29
ATOM     29  C   UNL     1       4.558   3.225  18.699  0.00  0.00    +0.000 C 
ATOM     30  O   UNL     1       5.231   2.857  19.652  0.00  0.00    +0.000 OA
BRANCH  29  31
ATOM     31  O   UNL     1       3.397   2.600  18.322  0.00  0.00    +0.000 OA
BRANCH  31  32
ATOM     32  C   UNL     1       2.494   2.347  19.411  0.00  0.00    +0.000 C 
ATOM     33  C   UNL     1       1.081   2.526  18.891  0.00  0.00    +0.000 C 
ENDBRANCH  31  32
ENDBRANCH  29  31
ENDBRANCH  18  29
ENDBRANCH   1  18
TORSDOF 12
ENDMDL
MODEL 4
REMARK VINA RESULT:      -7.6      1.133      3.456
REMARK  Name = 
REMARK  15 active torsions:
REMARK  status: ('A' for Active; 'I' for Inactive)
REMARK    1  A    between atoms: C_1  and  C_2
REMARK    2  A    between atoms: C_2  and  O_3
REMARK    3  A    between atoms: O_3  and  C_4
REMARK    4  A    between atoms: C_4  and  C_6
REMARK    5  A    between atoms: C_6  and  C_7
REMARK    6  A    between atoms: C_6  and  N_24
REMARK    7  A    between atoms: C_6  and  C_28
REMARK    8  A    between atoms: C_7  and  C_8
REMARK    9  A    between atoms: C_11  and  O_12
REMARK   10  A    between atoms: O_12  and  C_13
REMARK   11  A    between atoms: C_13  and  C_14
REMARK   12  A    between atoms: C_25  and  C_26
REMARK   13  A    between atoms: C_28  and  O_30
REMARK   14  A    between atoms: O_30  and  C_31
REMARK   15  A    between atoms: C_31  and  C_32
REMARK                            x       y       z     vdW  Elec       q    Type
REMARK                         _______ _______ _______ _____ _____    ______ ____
ROOT
ATOM      1  C   UNL     1       4.684   6.173  17.040  0.00  0.00    +0.000 C 
ENDROOT
BRANCH   1   2
ATOM      2  C   UNL     1       3.665   6.859  17.934  0.00  0.00    +0.000 A 
ATOM      3  C   UNL     1       3.250   6.307  19.146  0.00  0.00    +0.000 A 
ATOM      4  C   UNL     1       2.243   6.889  19.897  0.00  0.00    +0.000 A 
ATOM      5  C   UNL     1       1.709   8.111  19.526  0.00  0.00    +0.000 A 
ATOM      6  C   UNL     1       2.133   8.714  18.343  0.00  0.00    +0.000 A 
ATOM      7  C   UNL     1       3.104   8.085  17.548  0.00  0.00    +0.000 A 
BRANCH   5   8
ATOM      8  O   UNL     1       0.782   8.782  20.280  0.00  0.00    +0.000 OA
BRANCH   8   9
ATOM      9  C   UNL     1       1.125  10.156  20.505  0.00  0.00    +0.000 C 
BRANCH   9  10
ATOM     10  C   UNL     1      -0.025  10.876  21.130  0.00  0.00    +0.000 A 
ATOM     11  C   UNL     1      -0.752  11.795  20.372  0.00  0.00    +0.000 A 
ATOM     12  F   UNL     1      -0.420  12.016  19.090  0.00  0.00    +0.000 F 
ATOM     13  C   UNL     1      -1.841  12.483  20.902  0.00  0.00    +0.000 A 
ATOM     14  C   UNL     1      -2.221  12.247  22.215  0.00  0.00    +0.000 A 
ATOM     15  C   UNL     1      -1.532  11.313  22.985  0.00  0.00    +0.000 A 
ATOM     16  C   UNL     1      -0.445  10.620  22.445  0.00  0.00    +0.000 A 
ATOM     17 CL   UNL     1       0.299   9.414  23.433  0.00  0.00    +0.000 Cl
ENDBRANCH   9  10
ENDBRANCH   8   9
ENDBRANCH   5   8
ENDBRANCH   1   2
BRANCH   1  18
ATOM     18  C   UNL     1       5.914   5.471  17.681  0.00  0.00    +0.000 C 
BRANCH  18  19
ATOM     19  N   UNL     1       6.806   6.460  18.366  0.00  0.00    +0.000 N 
ATOM     20  C   UNL     1       7.530   7.407  17.691  0.00  0.00    +0.000 C 
ATOM     21  C   UNL     1       8.331   8.331  18.566  0.00  0.00    +0.000 C 
ATOM     22  O   UNL     1       7.530   7.518  16.472  0.00  0.00    +0.000 OA
ATOM     23  H   UNL     1       6.898   6.377  19.372  0.00  0.00    +0.000 HD
ENDBRANCH  18  19
BRANCH  18  24
ATOM     24  C   UNL     1       5.603   4.380  18.726  0.00  0.00    +0.000 C 
ATOM     25  O   UNL     1       6.017   4.417  19.885  0.00  0.00    +0.000 OA
BRANCH  24  26
ATOM     26  O   UNL     1       4.744   3.435  18.262  0.00  0.00    +0.000 OA
BRANCH  26  28
ATOM     27  C   UNL     1       2.919   1.845  18.652  0.00  0.00    +0.000 C 
ATOM     28  C   UNL     1       4.048   2.667  19.254  0.00  0.00    +0.000 C 
ENDBRANCH  26  28
ENDBRANCH  24  26
ENDBRANCH  18  24
BRANCH  18  29
ATOM     29  C   UNL     1       6.773   4.824  16.562  0.00  0.00    +0.000 C 
ATOM     30  O   UNL     1       7.862   4.288  16.715  0.00  0.00    +0.000 OA
BRANCH  29  31
ATOM     31  O   UNL     1       6.144   4.896  15.345  0.00  0.00    +0.000 OA
BRANCH  31  32
ATOM     32  C   UNL     1       6.105   3.646  14.637  0.00  0.00    +0.000 C 
ATOM     33  C   UNL     1       6.312   3.943  13.164  0.00  0.00    +0.000 C 
ENDBRANCH  31  32
ENDBRANCH  29  31
ENDBRANCH  18  29
ENDBRANCH   1  18
TORSDOF 12
ENDMDL
MODEL 5
REMARK VINA RESULT:      -7.5      1.586      3.676
REMARK  Name = 
REMARK  15 active torsions:
REMARK  status: ('A' for Active; 'I' for Inactive)
REMARK    1  A    between atoms: C_1  and  C_2
REMARK    2  A    between atoms: C_2  and  O_3
REMARK    3  A    between atoms: O_3  and  C_4
REMARK    4  A    between atoms: C_4  and  C_6
REMARK    5  A    between atoms: C_6  and  C_7
REMARK    6  A    between atoms: C_6  and  N_24
REMARK    7  A    between atoms: C_6  and  C_28
REMARK    8  A    between atoms: C_7  and  C_8
REMARK    9  A    between atoms: C_11  and  O_12
REMARK   10  A    between atoms: O_12  and  C_13
REMARK   11  A    between atoms: C_13  and  C_14
REMARK   12  A    between atoms: C_25  and  C_26
REMARK   13  A    between atoms: C_28  and  O_30
REMARK   14  A    between atoms: O_30  and  C_31
REMARK   15  A    between atoms: C_31  and  C_32
REMARK                            x       y       z     vdW  Elec       q    Type
REMARK                         _______ _______ _______ _____ _____    ______ ____
ROOT
ATOM      1  C   UNL     1       3.915   6.549  17.442  0.00  0.00    +0.000 C 
ENDROOT
BRANCH   1   2
ATOM      2  C   UNL     1       2.947   7.360  18.286  0.00  0.00    +0.000 A 
ATOM      3  C   UNL     1       2.718   7.076  19.632  0.00  0.00    +0.000 A 
ATOM      4  C   UNL     1       1.755   7.755  20.360  0.00  0.00    +0.000 A 
ATOM      5  C   UNL     1       1.080   8.827  19.801  0.00  0.00    +0.000 A 
ATOM      6  C   UNL     1       1.317   9.168  18.470  0.00  0.00    +0.000 A 
ATOM      7  C   UNL     1       2.244   8.431  17.715  0.00  0.00    +0.000 A 
BRANCH   5   8
ATOM      8  O   UNL     1       0.188   9.597  20.501  0.00  0.00    +0.000 OA
BRANCH   8   9
ATOM      9  C   UNL     1       0.784  10.768  21.076  0.00  0.00    +0.000 C 
BRANCH   9  10
ATOM     10  C   UNL     1      -0.149  11.928  20.958  0.00  0.00    +0.000 A 
ATOM     11  C   UNL     1      -0.039  12.786  19.862  0.00  0.00    +0.000 A 
ATOM     12  F   UNL     1       0.891  12.555  18.923  0.00  0.00    +0.000 F 
ATOM     13  C   UNL     1      -0.892  13.874  19.697  0.00  0.00    +0.000 A 
ATOM     14  C   UNL     1      -1.882  14.114  20.639  0.00  0.00    +0.000 A 
ATOM     15  C   UNL     1      -2.032  13.256  21.727  0.00  0.00    +0.000 A 
ATOM     16  C   UNL     1      -1.179  12.160  21.883  0.00  0.00    +0.000 A 
ATOM     17 CL   UNL     1      -1.487  11.095  23.207  0.00  0.00    +0.000 Cl
ENDBRANCH   9  10
ENDBRANCH   8   9
ENDBRANCH   5   8
ENDBRANCH   1   2
BRANCH   1  18
ATOM     18  C   UNL     1       4.068   5.025  17.705  0.00  0.00    +0.000 C 
BRANCH  18  19
ATOM     19  N   UNL     1       4.538   4.308  16.477  0.00  0.00    +0.000 N 
ATOM     20  C   UNL     1       5.412   4.860  15.578  0.00  0.00    +0.000 C 
ATOM     21  C   UNL     1       5.791   3.961  14.433  0.00  0.00    +0.000 C 
ATOM     22  O   UNL     1       5.871   5.990  15.685  0.00  0.00    +0.000 OA
ATOM     23  H   UNL     1       4.143   3.392  16.299  0.00  0.00    +0.000 HD
ENDBRANCH  18  19
BRANCH  18  24
ATOM     24  C   UNL     1       5.042   4.626  18.832  0.00  0.00    +0.000 C 
ATOM     25  O   UNL     1       5.227   3.461  19.185  0.00  0.00    +0.000 OA
BRANCH  24  26
ATOM     26  O   UNL     1       5.747   5.681  19.318  0.00  0.00    +0.000 OA
BRANCH  26  28
ATOM     27  C   UNL     1       7.760   6.710  18.370  0.00  0.00    +0.000 C 
ATOM     28  C   UNL     1       7.175   5.592  19.219  0.00  0.00    +0.000 C 
ENDBRANCH  26  28
ENDBRANCH  24  26
ENDBRANCH  18  24
BRANCH  18  29
ATOM     29  C   UNL     1       2.679   4.423  18.046  0.00  0.00    +0.000 C 
ATOM     30  O   UNL     1       1.771   4.221  17.250  0.00  0.00    +0.000 OA
BRANCH  29  31
ATOM     31  O   UNL     1       2.584   4.107  19.378  0.00  0.00    +0.000 OA
BRANCH  31  32
ATOM     32  C   UNL     1       1.262   3.722  19.789  0.00  0.00    +0.000 C 
ATOM     33  C   UNL     1       1.385   2.995  21.114  0.00  0.00    +0.000 C 
ENDBRANCH  31  32
ENDBRANCH  29  31
ENDBRANCH  18  29
ENDBRANCH   1  18
TORSDOF 12
ENDMDL
MODEL 6
REMARK VINA RESULT:      -7.4      4.312      9.763
REMARK  Name = 
REMARK  15 active torsions:
REMARK  status: ('A' for Active; 'I' for Inactive)
REMARK    1  A    between atoms: C_1  and  C_2
REMARK    2  A    between atoms: C_2  and  O_3
REMARK    3  A    between atoms: O_3  and  C_4
REMARK    4  A    between atoms: C_4  and  C_6
REMARK    5  A    between atoms: C_6  and  C_7
REMARK    6  A    between atoms: C_6  and  N_24
REMARK    7  A    between atoms: C_6  and  C_28
REMARK    8  A    between atoms: C_7  and  C_8
REMARK    9  A    between atoms: C_11  and  O_12
REMARK   10  A    between atoms: O_12  and  C_13
REMARK   11  A    between atoms: C_13  and  C_14
REMARK   12  A    between atoms: C_25  and  C_26
REMARK   13  A    between atoms: C_28  and  O_30
REMARK   14  A    between atoms: O_30  and  C_31
REMARK   15  A    between atoms: C_31  and  C_32
REMARK                            x       y       z     vdW  Elec       q    Type
REMARK                         _______ _______ _______ _____ _____    ______ ____
ROOT
ATOM      1  C   UNL     1       0.319  11.622  20.035  0.00  0.00    +0.000 C 
ENDROOT
BRANCH   1   2
ATOM      2  C   UNL     1       0.953  10.324  19.565  0.00  0.00    +0.000 A 
ATOM      3  C   UNL     1       1.016   9.192  20.376  0.00  0.00    +0.000 A 
ATOM      4  C   UNL     1       1.692   8.052  19.974  0.00  0.00    +0.000 A 
ATOM      5  C   UNL     1       2.214   7.961  18.695  0.00  0.00    +0.000 A 
ATOM      6  C   UNL     1       2.129   9.059  17.840  0.00  0.00    +0.000 A 
ATOM      7  C   UNL     1       1.505  10.238  18.278  0.00  0.00    +0.000 A 
BRANCH   5   8
ATOM      8  O   UNL     1       2.806   6.825  18.208  0.00  0.00    +0.000 OA
BRANCH   8   9
ATOM      9  C   UNL     1       3.208   5.912  19.238  0.00  0.00    +0.000 C 
BRANCH   9  10
ATOM     10  C   UNL     1       2.547   4.588  19.035  0.00  0.00    +0.000 A 
ATOM     11  C   UNL     1       1.467   4.231  19.844  0.00  0.00    +0.000 A 
ATOM     12  F   UNL     1       1.026   5.080  20.785  0.00  0.00    +0.000 F 
ATOM     13  C   UNL     1       0.807   3.014  19.688  0.00  0.00    +0.000 A 
ATOM     14  C   UNL     1       1.225   2.134  18.701  0.00  0.00    +0.000 A 
ATOM     15  C   UNL     1       2.282   2.478  17.860  0.00  0.00    +0.000 A 
ATOM     16  C   UNL     1       2.935   3.704  18.016  0.00  0.00    +0.000 A 
ATOM     17 CL   UNL     1       4.174   4.094  16.878  0.00  0.00    +0.000 Cl
ENDBRANCH   9  10
ENDBRANCH   8   9
ENDBRANCH   5   8
ENDBRANCH   1   2
BRANCH   1  18
ATOM     18  C   UNL     1      -1.049  12.063  19.442  0.00  0.00    +0.000 C 
BRANCH  18  19
ATOM     19  N   UNL     1      -0.946  13.404  18.784  0.00  0.00    +0.000 N 
ATOM     20  C   UNL     1      -0.372  14.492  19.387  0.00  0.00    +0.000 C 
ATOM     21  C   UNL     1      -0.331  15.734  18.542  0.00  0.00    +0.000 C 
ATOM     22  O   UNL     1       0.089  14.472  20.521  0.00  0.00    +0.000 OA
ATOM     23  H   UNL     1      -1.369  13.500  17.868  0.00  0.00    +0.000 HD
ENDBRANCH  18  19
BRANCH  18  24
ATOM     24  C   UNL     1      -1.669  11.119  18.393  0.00  0.00    +0.000 C 
ATOM     25  O   UNL     1      -1.996   9.957  18.638  0.00  0.00    +0.000 OA
BRANCH  24  26
ATOM     26  O   UNL     1      -1.911  11.735  17.206  0.00  0.00    +0.000 OA
BRANCH  26  28
ATOM     27  C   UNL     1      -4.168  11.259  16.374  0.00  0.00    +0.000 C 
ATOM     28  C   UNL     1      -2.676  10.990  16.247  0.00  0.00    +0.000 C 
ENDBRANCH  26  28
ENDBRANCH  24  26
ENDBRANCH  18  24
BRANCH  18  29
ATOM     29  C   UNL     1      -2.075  12.230  20.595  0.00  0.00    +0.000 C 
ATOM     30  O   UNL     1      -1.862  12.011  21.780  0.00  0.00    +0.000 OA
BRANCH  29  31
ATOM     31  O   UNL     1      -3.280  12.690  20.128  0.00  0.00    +0.000 OA
BRANCH  31  32
ATOM     32  C   UNL     1      -4.052  13.395  21.114  0.00  0.00    +0.000 C 
ATOM     33  C   UNL     1      -3.687  14.864  21.022  0.00  0.00    +0.000 C 
ENDBRANCH  31  32
ENDBRANCH  29  31
ENDBRANCH  18  29
ENDBRANCH   1  18
TORSDOF 12
ENDMDL
MODEL 7
REMARK VINA RESULT:      -7.3      1.489      3.717
REMARK  Name = 
REMARK  15 active torsions:
REMARK  status: ('A' for Active; 'I' for Inactive)
REMARK    1  A    between atoms: C_1  and  C_2
REMARK    2  A    between atoms: C_2  and  O_3
REMARK    3  A    between atoms: O_3  and  C_4
REMARK    4  A    between atoms: C_4  and  C_6
REMARK    5  A    between atoms: C_6  and  C_7
REMARK    6  A    between atoms: C_6  and  N_24
REMARK    7  A    between atoms: C_6  and  C_28
REMARK    8  A    between atoms: C_7  and  C_8
REMARK    9  A    between atoms: C_11  and  O_12
REMARK   10  A    between atoms: O_12  and  C_13
REMARK   11  A    between atoms: C_13  and  C_14
REMARK   12  A    between atoms: C_25  and  C_26
REMARK   13  A    between atoms: C_28  and  O_30
REMARK   14  A    between atoms: O_30  and  C_31
REMARK   15  A    between atoms: C_31  and  C_32
REMARK                            x       y       z     vdW  Elec       q    Type
REMARK                         _______ _______ _______ _____ _____    ______ ____
ROOT
ATOM      1  C   UNL     1       4.042   6.479  17.384  0.00  0.00    +0.000 C 
ENDROOT
BRANCH   1   2
ATOM      2  C   UNL     1       3.026   7.272  18.188  0.00  0.00    +0.000 A 
ATOM      3  C   UNL     1       2.307   8.331  17.637  0.00  0.00    +0.000 A 
ATOM      4  C   UNL     1       1.463   9.112  18.410  0.00  0.00    +0.000 A 
ATOM      5  C   UNL     1       1.212   8.777  19.730  0.00  0.00    +0.000 A 
ATOM      6  C   UNL     1       1.880   7.695  20.301  0.00  0.00    +0.000 A 
ATOM      7  C   UNL     1       2.788   6.950  19.532  0.00  0.00    +0.000 A 
BRANCH   5   8
ATOM      8  O   UNL     1       0.315   9.451  20.515  0.00  0.00    +0.000 OA
BRANCH   8   9
ATOM      9  C   UNL     1       0.691  10.814  20.759  0.00  0.00    +0.000 C 
BRANCH   9  10
ATOM     10  C   UNL     1      -0.428  11.541  21.431  0.00  0.00    +0.000 A 
ATOM     11  C   UNL     1      -1.014  12.635  20.791  0.00  0.00    +0.000 A 
ATOM     12  F   UNL     1      -0.579  13.015  19.580  0.00  0.00    +0.000 F 
ATOM     13  C   UNL     1      -2.068  13.340  21.368  0.00  0.00    +0.000 A 
ATOM     14  C   UNL     1      -2.556  12.946  22.605  0.00  0.00    +0.000 A 
ATOM     15  C   UNL     1      -2.008  11.839  23.251  0.00  0.00    +0.000 A 
ATOM     16  C   UNL     1      -0.956  11.131  22.664  0.00  0.00    +0.000 A 
ATOM     17 CL   UNL     1      -0.394   9.719  23.485  0.00  0.00    +0.000 Cl
ENDBRANCH   9  10
ENDBRANCH   8   9
ENDBRANCH   5   8
ENDBRANCH   1   2
BRANCH   1  18
ATOM     18  C   UNL     1       4.220   4.960  17.661  0.00  0.00    +0.000 C 
BRANCH  18  19
ATOM     19  N   UNL     1       4.799   4.257  16.473  0.00  0.00    +0.000 N 
ATOM     20  C   UNL     1       5.542   4.896  15.515  0.00  0.00    +0.000 C 
ATOM     21  C   UNL     1       6.066   4.003  14.424  0.00  0.00    +0.000 C 
ATOM     22  O   UNL     1       5.783   6.096  15.533  0.00  0.00    +0.000 OA
ATOM     23  H   UNL     1       4.580   3.273  16.368  0.00  0.00    +0.000 HD
ENDBRANCH  18  19
BRANCH  18  24
ATOM     24  C   UNL     1       5.122   4.590  18.857  0.00  0.00    +0.000 C 
ATOM     25  O   UNL     1       5.122   3.479  19.385  0.00  0.00    +0.000 OA
BRANCH  24  26
ATOM     26  O   UNL     1       5.985   5.585  19.194  0.00  0.00    +0.000 OA
BRANCH  26  28
ATOM     27  C   UNL     1       7.882   6.859  18.305  0.00  0.00    +0.000 C 
ATOM     28  C   UNL     1       7.307   5.493  18.645  0.00  0.00    +0.000 C 
ENDBRANCH  26  28
ENDBRANCH  24  26
ENDBRANCH  18  24
BRANCH  18  29
ATOM     29  C   UNL     1       2.829   4.318  17.902  0.00  0.00    +0.000 C 
ATOM     30  O   UNL     1       2.045   3.959  17.034  0.00  0.00    +0.000 OA
BRANCH  29  31
ATOM     31  O   UNL     1       2.573   4.167  19.242  0.00  0.00    +0.000 OA
BRANCH  31  32
ATOM     32  C   UNL     1       1.251   3.682  19.529  0.00  0.00    +0.000 C 
ATOM     33  C   UNL     1       1.390   2.466  20.423  0.00  0.00    +0.000 C 
ENDBRANCH  31  32
ENDBRANCH  29  31
ENDBRANCH  18  29
ENDBRANCH   1  18
TORSDOF 12
ENDMDL
MODEL 8
REMARK VINA RESULT:      -7.3      4.318      9.634
REMARK  Name = 
REMARK  15 active torsions:
REMARK  status: ('A' for Active; 'I' for Inactive)
REMARK    1  A    between atoms: C_1  and  C_2
REMARK    2  A    between atoms: C_2  and  O_3
REMARK    3  A    between atoms: O_3  and  C_4
REMARK    4  A    between atoms: C_4  and  C_6
REMARK    5  A    between atoms: C_6  and  C_7
REMARK    6  A    between atoms: C_6  and  N_24
REMARK    7  A    between atoms: C_6  and  C_28
REMARK    8  A    between atoms: C_7  and  C_8
REMARK    9  A    between atoms: C_11  and  O_12
REMARK   10  A    between atoms: O_12  and  C_13
REMARK   11  A    between atoms: C_13  and  C_14
REMARK   12  A    between atoms: C_25  and  C_26
REMARK   13  A    between atoms: C_28  and  O_30
REMARK   14  A    between atoms: O_30  and  C_31
REMARK   15  A    between atoms: C_31  and  C_32
REMARK                            x       y       z     vdW  Elec       q    Type
REMARK                         _______ _______ _______ _____ _____    ______ ____
ROOT
ATOM      1  C   UNL     1       0.205  11.722  20.207  0.00  0.00    +0.000 C 
ENDROOT
BRANCH   1   2
ATOM      2  C   UNL     1       0.908  10.476  19.697  0.00  0.00    +0.000 A 
ATOM      3  C   UNL     1       1.465  10.408  18.420  0.00  0.00    +0.000 A 
ATOM      4  C   UNL     1       2.007   9.232  17.930  0.00  0.00    +0.000 A 
ATOM      5  C   UNL     1       2.127   8.121  18.748  0.00  0.00    +0.000 A 
ATOM      6  C   UNL     1       1.621   8.169  20.047  0.00  0.00    +0.000 A 
ATOM      7  C   UNL     1       1.008   9.342  20.515  0.00  0.00    +0.000 A 
BRANCH   5   8
ATOM      8  O   UNL     1       2.742   6.963  18.352  0.00  0.00    +0.000 OA
BRANCH   8   9
ATOM      9  C   UNL     1       2.992   6.057  19.435  0.00  0.00    +0.000 C 
BRANCH   9  10
ATOM     10  C   UNL     1       2.470   4.699  19.099  0.00  0.00    +0.000 A 
ATOM     11  C   UNL     1       1.373   4.195  19.800  0.00  0.00    +0.000 A 
ATOM     12  F   UNL     1       0.792   4.936  20.756  0.00  0.00    +0.000 F 
ATOM     13  C   UNL     1       0.838   2.940  19.517  0.00  0.00    +0.000 A 
ATOM     14  C   UNL     1       1.401   2.171  18.510  0.00  0.00    +0.000 A 
ATOM     15  C   UNL     1       2.478   2.662  17.775  0.00  0.00    +0.000 A 
ATOM     16  C   UNL     1       3.005   3.925  18.058  0.00  0.00    +0.000 A 
ATOM     17 CL   UNL     1       4.281   4.499  17.044  0.00  0.00    +0.000 Cl
ENDBRANCH   9  10
ENDBRANCH   8   9
ENDBRANCH   5   8
ENDBRANCH   1   2
BRANCH   1  18
ATOM     18  C   UNL     1      -1.156  12.143  19.584  0.00  0.00    +0.000 C 
BRANCH  18  19
ATOM     19  N   UNL     1      -1.061  13.489  18.935  0.00  0.00    +0.000 N 
ATOM     20  C   UNL     1      -0.173  14.452  19.336  0.00  0.00    +0.000 C 
ATOM     21  C   UNL     1      -0.209  15.719  18.528  0.00  0.00    +0.000 C 
ATOM     22  O   UNL     1       0.607  14.308  20.269  0.00  0.00    +0.000 OA
ATOM     23  H   UNL     1      -1.726  13.691  18.197  0.00  0.00    +0.000 HD
ENDBRANCH  18  19
BRANCH  18  24
ATOM     24  C   UNL     1      -1.734  11.193  18.516  0.00  0.00    +0.000 C 
ATOM     25  O   UNL     1      -2.003  10.012  18.736  0.00  0.00    +0.000 OA
BRANCH  24  26
ATOM     26  O   UNL     1      -2.010  11.823  17.344  0.00  0.00    +0.000 OA
BRANCH  26  28
ATOM     27  C   UNL     1      -2.768  10.616  15.349  0.00  0.00    +0.000 C 
ATOM     28  C   UNL     1      -3.156  11.350  16.622  0.00  0.00    +0.000 C 
ENDBRANCH  26  28
ENDBRANCH  24  26
ENDBRANCH  18  24
BRANCH  18  29
ATOM     29  C   UNL     1      -2.211  12.285  20.713  0.00  0.00    +0.000 C 
ATOM     30  O   UNL     1      -3.367  12.662  20.569  0.00  0.00    +0.000 OA
BRANCH  29  31
ATOM     31  O   UNL     1      -1.699  11.904  21.927  0.00  0.00    +0.000 OA
BRANCH  31  32
ATOM     32  C   UNL     1      -2.143  12.719  23.025  0.00  0.00    +0.000 C 
ATOM     33  C   UNL     1      -1.106  13.805  23.241  0.00  0.00    +0.000 C 
ENDBRANCH  31  32
ENDBRANCH  29  31
ENDBRANCH  18  29
ENDBRANCH   1  18
TORSDOF 12
ENDMDL
MODEL 9
REMARK VINA RESULT:      -7.3      1.260      3.419
REMARK  Name = 
REMARK  15 active torsions:
REMARK  status: ('A' for Active; 'I' for Inactive)
REMARK    1  A    between atoms: C_1  and  C_2
REMARK    2  A    between atoms: C_2  and  O_3
REMARK    3  A    between atoms: O_3  and  C_4
REMARK    4  A    between atoms: C_4  and  C_6
REMARK    5  A    between atoms: C_6  and  C_7
REMARK    6  A    between atoms: C_6  and  N_24
REMARK    7  A    between atoms: C_6  and  C_28
REMARK    8  A    between atoms: C_7  and  C_8
REMARK    9  A    between atoms: C_11  and  O_12
REMARK   10  A    between atoms: O_12  and  C_13
REMARK   11  A    between atoms: C_13  and  C_14
REMARK   12  A    between atoms: C_25  and  C_26
REMARK   13  A    between atoms: C_28  and  O_30
REMARK   14  A    between atoms: O_30  and  C_31
REMARK   15  A    between atoms: C_31  and  C_32
REMARK                            x       y       z     vdW  Elec       q    Type
REMARK                         _______ _______ _______ _____ _____    ______ ____
ROOT
ATOM      1  C   UNL     1       3.231   4.730  17.642  0.00  0.00    +0.000 C 
ENDROOT
BRANCH   1   2
ATOM      2  C   UNL     1       2.739   5.907  18.466  0.00  0.00    +0.000 A 
ATOM      3  C   UNL     1       2.201   5.748  19.742  0.00  0.00    +0.000 A 
ATOM      4  C   UNL     1       1.658   6.816  20.437  0.00  0.00    +0.000 A 
ATOM      5  C   UNL     1       1.754   8.102  19.931  0.00  0.00    +0.000 A 
ATOM      6  C   UNL     1       2.327   8.304  18.676  0.00  0.00    +0.000 A 
ATOM      7  C   UNL     1       2.812   7.208  17.945  0.00  0.00    +0.000 A 
BRANCH   5   8
ATOM      8  O   UNL     1       1.324   9.208  20.615  0.00  0.00    +0.000 OA
BRANCH   8   9
ATOM      9  C   UNL     1      -0.060   9.507  20.391  0.00  0.00    +0.000 C 
BRANCH   9  10
ATOM     10  C   UNL     1      -0.351  10.917  20.791  0.00  0.00    +0.000 A 
ATOM     11  C   UNL     1      -0.342  11.920  19.820  0.00  0.00    +0.000 A 
ATOM     12  F   UNL     1      -0.084  11.610  18.540  0.00  0.00    +0.000 F 
ATOM     13  C   UNL     1      -0.620  13.247  20.137  0.00  0.00    +0.000 A 
ATOM     14  C   UNL     1      -0.920  13.586  21.448  0.00  0.00    +0.000 A 
ATOM     15  C   UNL     1      -0.966  12.600  22.431  0.00  0.00    +0.000 A 
ATOM     16  C   UNL     1      -0.695  11.268  22.106  0.00  0.00    +0.000 A 
ATOM     17 CL   UNL     1      -0.859  10.094  23.361  0.00  0.00    +0.000 Cl
ENDBRANCH   9  10
ENDBRANCH   8   9
ENDBRANCH   5   8
ENDBRANCH   1   2
BRANCH   1  18
ATOM     18  C   UNL     1       4.584   4.054  18.006  0.00  0.00    +0.000 C 
BRANCH  18  19
ATOM     19  N   UNL     1       5.328   3.636  16.776  0.00  0.00    +0.000 N 
ATOM     20  C   UNL     1       5.516   4.462  15.699  0.00  0.00    +0.000 C 
ATOM     21  C   UNL     1       6.326   3.865  14.581  0.00  0.00    +0.000 C 
ATOM     22  O   UNL     1       5.079   5.604  15.636  0.00  0.00    +0.000 OA
ATOM     23  H   UNL     1       5.659   2.679  16.742  0.00  0.00    +0.000 HD
ENDBRANCH  18  19
BRANCH  18  24
ATOM     24  C   UNL     1       5.568   4.909  18.830  0.00  0.00    +0.000 C 
ATOM     25  O   UNL     1       5.225   5.593  19.795  0.00  0.00    +0.000 OA
BRANCH  24  26
ATOM     26  O   UNL     1       6.860   4.745  18.445  0.00  0.00    +0.000 OA
BRANCH  26  28
ATOM     27  C   UNL     1       7.544   6.941  17.597  0.00  0.00    +0.000 C 
ATOM     28  C   UNL     1       7.734   5.864  18.653  0.00  0.00    +0.000 C 
ENDBRANCH  26  28
ENDBRANCH  24  26
ENDBRANCH  18  24
BRANCH  18  29
ATOM     29  C   UNL     1       4.306   2.752  18.802  0.00  0.00    +0.000 C 
ATOM     30  O   UNL     1       4.667   2.522  19.949  0.00  0.00    +0.000 OA
BRANCH  29  31
ATOM     31  O   UNL     1       3.564   1.864  18.064  0.00  0.00    +0.000 OA
BRANCH  31  32
ATOM     32  C   UNL     1       2.162   2.176  18.020  0.00  0.00    +0.000 C 
ATOM     33  C   UNL     1       1.589   1.919  19.400  0.00  0.00    +0.000 C 
ENDBRANCH  31  32
ENDBRANCH  29  31
ENDBRANCH  18  29
ENDBRANCH   1  18
TORSDOF 12
ENDMDL
