MODEL 1
REMARK VINA RESULT:      -6.8      0.000      0.000
REMARK  Name = 
REMARK  5 active torsions:
REMARK  status: ('A' for Active; 'I' for Inactive)
REMARK    1  A    between atoms: C_1  and  O_2
REMARK    2  A    between atoms: O_2  and  C_3
REMARK    3  A    between atoms: C_6  and  N_7
REMARK    4  A    between atoms: N_7  and  C_8
REMARK    5  A    between atoms: N_12  and  C_13
REMARK                            x       y       z     vdW  Elec       q    Type
REMARK                         _______ _______ _______ _____ _____    ______ ____
ROOT
ATOM      1  N   UNL     1       3.902   5.687  19.796  0.00  0.00    +0.000 N 
ATOM      2  H   UNL     1       4.329   6.227  20.545  0.00  0.00    +0.000 HD
ENDROOT
BRANCH   1   3
ATOM      3  C   UNL     1       3.318   4.458  20.333  0.00  0.00    +0.000 C 
ATOM      4  S   UNL     1       1.570   4.455  19.856  0.00  0.00    +0.000 S 
ATOM      5  C   UNL     1       1.758   3.079  18.798  0.00  0.00    +0.000 C 
ATOM      6  O   UNL     1       0.816   2.615  18.172  0.00  0.00    +0.000 OA
ATOM      7  N   UNL     1       3.035   2.614  18.812  0.00  0.00    +0.000 N 
ATOM      8  C   UNL     1       3.448   1.464  18.043  0.00  0.00    +0.000 C 
ATOM      9  C   UNL     1       3.908   3.200  19.697  0.00  0.00    +0.000 C 
ATOM     10  O   UNL     1       5.018   2.738  19.952  0.00  0.00    +0.000 OA
ENDBRANCH   1   3
BRANCH   1  14
ATOM     11  C   UNL     1       6.562   5.550  16.507  0.00  0.00    +0.000 A 
ATOM     12  C   UNL     1       5.191   5.625  16.288  0.00  0.00    +0.000 A 
ATOM     13  C   UNL     1       4.299   5.672  17.363  0.00  0.00    +0.000 A 
ATOM     14  C   UNL     1       4.748   5.601  18.684  0.00  0.00    +0.000 A 
ATOM     15  C   UNL     1       6.135   5.573  18.890  0.00  0.00    +0.000 A 
ATOM     16  C   UNL     1       7.036   5.528  17.816  0.00  0.00    +0.000 A 
BRANCH  11  18
ATOM     17  C   UNL     1       6.808   4.653  14.332  0.00  0.00    +0.000 C 
ATOM     18  O   UNL     1       7.322   5.471  15.375  0.00  0.00    +0.000 OA
ENDBRANCH  11  18
ENDBRANCH   1  14
TORSDOF 3
ENDMDL
MODEL 2
REMARK VINA RESULT:      -6.8      1.979      2.633
REMARK  Name = 
REMARK  5 active torsions:
REMARK  status: ('A' for Active; 'I' for Inactive)
REMARK    1  A    between atoms: C_1  and  O_2
REMARK    2  A    between atoms: O_2  and  C_3
REMARK    3  A    between atoms: C_6  and  N_7
REMARK    4  A    between atoms: N_7  and  C_8
REMARK    5  A    between atoms: N_12  and  C_13
REMARK                            x       y       z     vdW  Elec       q    Type
REMARK                         _______ _______ _______ _____ _____    ______ ____
ROOT
ATOM      1  N   UNL     1       4.499   3.493  17.821  0.00  0.00    +0.000 N 
ATOM      2  H   UNL     1       3.533   3.511  17.503  0.00  0.00    +0.000 HD
ENDROOT
BRANCH   1   3
ATOM      3  C   UNL     1       4.584   3.975  19.199  0.00  0.00    +0.000 C 
ATOM      4  S   UNL     1       3.604   5.496  19.286  0.00  0.00    +0.000 S 
ATOM      5  C   UNL     1       2.411   4.784  20.344  0.00  0.00    +0.000 C 
ATOM      6  O   UNL     1       1.449   5.420  20.751  0.00  0.00    +0.000 OA
ATOM      7  N   UNL     1       2.726   3.498  20.653  0.00  0.00    +0.000 N 
ATOM      8  C   UNL     1       1.915   2.693  21.535  0.00  0.00    +0.000 C 
ATOM      9  C   UNL     1       3.931   3.020  20.198  0.00  0.00    +0.000 C 
ATOM     10  O   UNL     1       4.421   1.959  20.579  0.00  0.00    +0.000 OA
ENDBRANCH   1   3
BRANCH   1  14
ATOM     11  C   UNL     1       7.077   5.005  14.823  0.00  0.00    +0.000 A 
ATOM     12  C   UNL     1       7.462   5.051  16.158  0.00  0.00    +0.000 A 
ATOM     13  C   UNL     1       6.623   4.556  17.160  0.00  0.00    +0.000 A 
ATOM     14  C   UNL     1       5.359   4.041  16.862  0.00  0.00    +0.000 A 
ATOM     15  C   UNL     1       5.004   3.958  15.507  0.00  0.00    +0.000 A 
ATOM     16  C   UNL     1       5.842   4.451  14.497  0.00  0.00    +0.000 A 
BRANCH  11  18
ATOM     17  C   UNL     1       7.797   5.210  12.580  0.00  0.00    +0.000 C 
ATOM     18  O   UNL     1       7.968   5.556  13.947  0.00  0.00    +0.000 OA
ENDBRANCH  11  18
ENDBRANCH   1  14
TORSDOF 3
ENDMDL
MODEL 3
REMARK VINA RESULT:      -6.7      1.301      1.484
REMARK  Name = 
REMARK  5 active torsions:
REMARK  status: ('A' for Active; 'I' for Inactive)
REMARK    1  A    between atoms: C_1  and  O_2
REMARK    2  A    between atoms: O_2  and  C_3
REMARK    3  A    between atoms: C_6  and  N_7
REMARK    4  A    between atoms: N_7  and  C_8
REMARK    5  A    between atoms: N_12  and  C_13
REMARK                            x       y       z     vdW  Elec       q    Type
REMARK                         _______ _______ _______ _____ _____    ______ ____
ROOT
ATOM      1  N   UNL     1       5.191   5.918  18.845  0.00  0.00    +0.000 N 
ATOM      2  H   UNL     1       5.980   6.017  19.481  0.00  0.00    +0.000 HD
ENDROOT
BRANCH   1   3
ATOM      3  C   UNL     1       4.098   5.208  19.508  0.00  0.00    +0.000 C 
ATOM      4  S   UNL     1       2.559   5.783  18.745  0.00  0.00    +0.000 S 
ATOM      5  C   UNL     1       2.212   4.227  18.034  0.00  0.00    +0.000 C 
ATOM      6  O   UNL     1       1.210   4.035  17.359  0.00  0.00    +0.000 OA
ATOM      7  N   UNL     1       3.161   3.309  18.362  0.00  0.00    +0.000 N 
ATOM      8  C   UNL     1       3.093   1.935  17.924  0.00  0.00    +0.000 C 
ATOM      9  C   UNL     1       4.134   3.701  19.250  0.00  0.00    +0.000 C 
ATOM     10  O   UNL     1       4.915   2.916  19.782  0.00  0.00    +0.000 OA
ENDBRANCH   1   3
BRANCH   1  14
ATOM     11  C   UNL     1       6.614   4.655  15.064  0.00  0.00    +0.000 A 
ATOM     12  C   UNL     1       5.477   5.451  15.148  0.00  0.00    +0.000 A 
ATOM     13  C   UNL     1       4.994   5.877  16.388  0.00  0.00    +0.000 A 
ATOM     14  C   UNL     1       5.608   5.486  17.581  0.00  0.00    +0.000 A 
ATOM     15  C   UNL     1       6.780   4.722  17.479  0.00  0.00    +0.000 A 
ATOM     16  C   UNL     1       7.271   4.293  16.237  0.00  0.00    +0.000 A 
BRANCH  11  18
ATOM     17  C   UNL     1       5.922   3.700  13.015  0.00  0.00    +0.000 C 
ATOM     18  O   UNL     1       6.958   4.275  13.799  0.00  0.00    +0.000 OA
ENDBRANCH  11  18
ENDBRANCH   1  14
TORSDOF 3
ENDMDL
MODEL 4
REMARK VINA RESULT:      -6.7      3.664      6.117
REMARK  Name = 
REMARK  5 active torsions:
REMARK  status: ('A' for Active; 'I' for Inactive)
REMARK    1  A    between atoms: C_1  and  O_2
REMARK    2  A    between atoms: O_2  and  C_3
REMARK    3  A    between atoms: C_6  and  N_7
REMARK    4  A    between atoms: N_7  and  C_8
REMARK    5  A    between atoms: N_12  and  C_13
REMARK                            x       y       z     vdW  Elec       q    Type
REMARK                         _______ _______ _______ _____ _____    ______ ____
ROOT
ATOM      1  N   UNL     1       3.892   6.048  17.824  0.00  0.00    +0.000 N 
ATOM      2  H   UNL     1       3.989   5.155  18.301  0.00  0.00    +0.000 HD
ENDROOT
BRANCH   1   3
ATOM      3  C   UNL     1       5.210   6.576  17.474  0.00  0.00    +0.000 C 
ATOM      4  S   UNL     1       6.420   5.682  18.484  0.00  0.00    +0.000 S 
ATOM      5  C   UNL     1       7.138   4.893  17.102  0.00  0.00    +0.000 C 
ATOM      6  O   UNL     1       8.075   4.116  17.219  0.00  0.00    +0.000 OA
ATOM      7  N   UNL     1       6.545   5.286  15.943  0.00  0.00    +0.000 N 
ATOM      8  C   UNL     1       6.973   4.801  14.652  0.00  0.00    +0.000 C 
ATOM      9  C   UNL     1       5.598   6.277  16.026  0.00  0.00    +0.000 C 
ATOM     10  O   UNL     1       5.146   6.860  15.043  0.00  0.00    +0.000 OA
ENDBRANCH   1   3
BRANCH   1  14
ATOM     11  C   UNL     1       1.254   8.711  19.791  0.00  0.00    +0.000 A 
ATOM     12  C   UNL     1       1.674   7.550  20.432  0.00  0.00    +0.000 A 
ATOM     13  C   UNL     1       2.545   6.661  19.797  0.00  0.00    +0.000 A 
ATOM     14  C   UNL     1       2.987   6.884  18.490  0.00  0.00    +0.000 A 
ATOM     15  C   UNL     1       2.592   8.081  17.875  0.00  0.00    +0.000 A 
ATOM     16  C   UNL     1       1.719   8.978  18.507  0.00  0.00    +0.000 A 
BRANCH  11  18
ATOM     17  C   UNL     1      -0.294   8.823  21.576  0.00  0.00    +0.000 C 
ATOM     18  O   UNL     1       0.374   9.474  20.504  0.00  0.00    +0.000 OA
ENDBRANCH  11  18
ENDBRANCH   1  14
TORSDOF 3
ENDMDL
MODEL 5
REMARK VINA RESULT:      -6.6      2.074      2.808
REMARK  Name = 
REMARK  5 active torsions:
REMARK  status: ('A' for Active; 'I' for Inactive)
REMARK    1  A    between atoms: C_1  and  O_2
REMARK    2  A    between atoms: O_2  and  C_3
REMARK    3  A    between atoms: C_6  and  N_7
REMARK    4  A    between atoms: N_7  and  C_8
REMARK    5  A    between atoms: N_12  and  C_13
REMARK                            x       y       z     vdW  Elec       q    Type
REMARK                         _______ _______ _______ _____ _____    ______ ____
ROOT
ATOM      1  N   UNL     1       4.240   3.022  17.713  0.00  0.00    +0.000 N 
ATOM      2  H   UNL     1       4.417   2.235  17.093  0.00  0.00    +0.000 HD
ENDROOT
BRANCH   1   3
ATOM      3  C   UNL     1       2.803   3.282  17.796  0.00  0.00    +0.000 C 
ATOM      4  S   UNL     1       2.092   1.979  18.835  0.00  0.00    +0.000 S 
ATOM      5  C   UNL     1       1.662   3.092  20.110  0.00  0.00    +0.000 C 
ATOM      6  O   UNL     1       1.107   2.717  21.133  0.00  0.00    +0.000 OA
ATOM      7  N   UNL     1       1.991   4.371  19.784  0.00  0.00    +0.000 N 
ATOM      8  C   UNL     1       1.715   5.488  20.656  0.00  0.00    +0.000 C 
ATOM      9  C   UNL     1       2.483   4.590  18.519  0.00  0.00    +0.000 C 
ATOM     10  O   UNL     1       2.619   5.712  18.036  0.00  0.00    +0.000 OA
ENDBRANCH   1   3
BRANCH   1  14
ATOM     11  C   UNL     1       6.792   6.328  17.030  0.00  0.00    +0.000 A 
ATOM     12  C   UNL     1       6.019   5.822  15.992  0.00  0.00    +0.000 A 
ATOM     13  C   UNL     1       5.170   4.731  16.200  0.00  0.00    +0.000 A 
ATOM     14  C   UNL     1       5.103   4.089  17.439  0.00  0.00    +0.000 A 
ATOM     15  C   UNL     1       5.852   4.639  18.489  0.00  0.00    +0.000 A 
ATOM     16  C   UNL     1       6.705   5.735  18.287  0.00  0.00    +0.000 A 
BRANCH  11  18
ATOM     17  C   UNL     1       7.910   8.294  17.722  0.00  0.00    +0.000 C 
ATOM     18  O   UNL     1       7.607   7.369  16.687  0.00  0.00    +0.000 OA
ENDBRANCH  11  18
ENDBRANCH   1  14
TORSDOF 3
ENDMDL
MODEL 6
REMARK VINA RESULT:      -6.6      2.090      2.990
REMARK  Name = 
REMARK  5 active torsions:
REMARK  status: ('A' for Active; 'I' for Inactive)
REMARK    1  A    between atoms: C_1  and  O_2
REMARK    2  A    between atoms: O_2  and  C_3
REMARK    3  A    between atoms: C_6  and  N_7
REMARK    4  A    between atoms: N_7  and  C_8
REMARK    5  A    between atoms: N_12  and  C_13
REMARK                            x       y       z     vdW  Elec       q    Type
REMARK                         _______ _______ _______ _____ _____    ______ ____
ROOT
ATOM      1  N   UNL     1       4.645   3.279  18.355  0.00  0.00    +0.000 N 
ATOM      2  H   UNL     1       4.964   2.408  17.936  0.00  0.00    +0.000 HD
ENDROOT
BRANCH   1   3
ATOM      3  C   UNL     1       3.195   3.405  18.209  0.00  0.00    +0.000 C 
ATOM      4  S   UNL     1       2.451   2.070  19.181  0.00  0.00    +0.000 S 
ATOM      5  C   UNL     1       1.732   3.171  20.329  0.00  0.00    +0.000 C 
ATOM      6  O   UNL     1       1.061   2.773  21.270  0.00  0.00    +0.000 OA
ATOM      7  N   UNL     1       1.993   4.466  20.005  0.00  0.00    +0.000 N 
ATOM      8  C   UNL     1       1.487   5.574  20.779  0.00  0.00    +0.000 C 
ATOM      9  C   UNL     1       2.653   4.696  18.821  0.00  0.00    +0.000 C 
ATOM     10  O   UNL     1       2.761   5.813  18.319  0.00  0.00    +0.000 OA
ENDBRANCH   1   3
BRANCH   1  14
ATOM     11  C   UNL     1       7.164   6.430  17.073  0.00  0.00    +0.000 A 
ATOM     12  C   UNL     1       7.088   6.107  18.423  0.00  0.00    +0.000 A 
ATOM     13  C   UNL     1       6.261   5.070  18.864  0.00  0.00    +0.000 A 
ATOM     14  C   UNL     1       5.457   4.354  17.973  0.00  0.00    +0.000 A 
ATOM     15  C   UNL     1       5.580   4.658  16.610  0.00  0.00    +0.000 A 
ATOM     16  C   UNL     1       6.409   5.697  16.161  0.00  0.00    +0.000 A 
BRANCH  11  18
ATOM     17  C   UNL     1       8.007   8.537  17.735  0.00  0.00    +0.000 C 
ATOM     18  O   UNL     1       7.976   7.487  16.779  0.00  0.00    +0.000 OA
ENDBRANCH  11  18
ENDBRANCH   1  14
TORSDOF 3
ENDMDL
MODEL 7
REMARK VINA RESULT:      -6.6      1.952      2.334
REMARK  Name = 
REMARK  5 active torsions:
REMARK  status: ('A' for Active; 'I' for Inactive)
REMARK    1  A    between atoms: C_1  and  O_2
REMARK    2  A    between atoms: O_2  and  C_3
REMARK    3  A    between atoms: C_6  and  N_7
REMARK    4  A    between atoms: N_7  and  C_8
REMARK    5  A    between atoms: N_12  and  C_13
REMARK                            x       y       z     vdW  Elec       q    Type
REMARK                         _______ _______ _______ _____ _____    ______ ____
ROOT
ATOM      1  N   UNL     1       4.230   3.675  17.703  0.00  0.00    +0.000 N 
ATOM      2  H   UNL     1       3.286   3.860  17.372  0.00  0.00    +0.000 HD
ENDROOT
BRANCH   1   3
ATOM      3  C   UNL     1       4.372   4.118  19.090  0.00  0.00    +0.000 C 
ATOM      4  S   UNL     1       3.371   5.618  19.267  0.00  0.00    +0.000 S 
ATOM      5  C   UNL     1       2.241   4.855  20.358  0.00  0.00    +0.000 C 
ATOM      6  O   UNL     1       1.289   5.462  20.827  0.00  0.00    +0.000 OA
ATOM      7  N   UNL     1       2.592   3.566  20.614  0.00  0.00    +0.000 N 
ATOM      8  C   UNL     1       1.837   2.722  21.509  0.00  0.00    +0.000 C 
ATOM      9  C   UNL     1       3.782   3.123  20.089  0.00  0.00    +0.000 C 
ATOM     10  O   UNL     1       4.307   2.061  20.416  0.00  0.00    +0.000 OA
ENDBRANCH   1   3
BRANCH   1  14
ATOM     11  C   UNL     1       7.151   5.041  14.962  0.00  0.00    +0.000 A 
ATOM     12  C   UNL     1       5.927   4.574  14.497  0.00  0.00    +0.000 A 
ATOM     13  C   UNL     1       4.951   4.120  15.388  0.00  0.00    +0.000 A 
ATOM     14  C   UNL     1       5.187   4.079  16.765  0.00  0.00    +0.000 A 
ATOM     15  C   UNL     1       6.407   4.597  17.223  0.00  0.00    +0.000 A 
ATOM     16  C   UNL     1       7.390   5.056  16.334  0.00  0.00    +0.000 A 
BRANCH  11  18
ATOM     17  C   UNL     1       7.654   5.114  12.653  0.00  0.00    +0.000 C 
ATOM     18  O   UNL     1       8.031   5.419  13.989  0.00  0.00    +0.000 OA
ENDBRANCH  11  18
ENDBRANCH   1  14
TORSDOF 3
ENDMDL
MODEL 8
REMARK VINA RESULT:      -6.6      4.020      5.409
REMARK  Name = 
REMARK  5 active torsions:
REMARK  status: ('A' for Active; 'I' for Inactive)
REMARK    1  A    between atoms: C_1  and  O_2
REMARK    2  A    between atoms: O_2  and  C_3
REMARK    3  A    between atoms: C_6  and  N_7
REMARK    4  A    between atoms: N_7  and  C_8
REMARK    5  A    between atoms: N_12  and  C_13
REMARK                            x       y       z     vdW  Elec       q    Type
REMARK                         _______ _______ _______ _____ _____    ______ ____
ROOT
ATOM      1  N   UNL     1       3.213   6.360  19.650  0.00  0.00    +0.000 N 
ATOM      2  H   UNL     1       4.162   6.590  19.363  0.00  0.00    +0.000 HD
ENDROOT
BRANCH   1   3
ATOM      3  C   UNL     1       2.825   5.059  19.105  0.00  0.00    +0.000 C 
ATOM      4  S   UNL     1       4.356   4.142  18.793  0.00  0.00    +0.000 S 
ATOM      5  C   UNL     1       4.010   2.951  20.021  0.00  0.00    +0.000 C 
ATOM      6  O   UNL     1       4.772   2.023  20.251  0.00  0.00    +0.000 OA
ATOM      7  N   UNL     1       2.811   3.187  20.617  0.00  0.00    +0.000 N 
ATOM      8  C   UNL     1       2.277   2.329  21.648  0.00  0.00    +0.000 C 
ATOM      9  C   UNL     1       2.047   4.209  20.108  0.00  0.00    +0.000 C 
ATOM     10  O   UNL     1       0.870   4.387  20.417  0.00  0.00    +0.000 OA
ENDBRANCH   1   3
BRANCH   1  14
ATOM     11  C   UNL     1       0.731   9.732  19.035  0.00  0.00    +0.000 A 
ATOM     12  C   UNL     1       0.829   9.164  20.300  0.00  0.00    +0.000 A 
ATOM     13  C   UNL     1       1.644   8.050  20.521  0.00  0.00    +0.000 A 
ATOM     14  C   UNL     1       2.351   7.448  19.476  0.00  0.00    +0.000 A 
ATOM     15  C   UNL     1       2.279   8.060  18.216  0.00  0.00    +0.000 A 
ATOM     16  C   UNL     1       1.464   9.179  17.988  0.00  0.00    +0.000 A 
BRANCH  11  18
ATOM     17  C   UNL     1      -1.242  10.619  18.078  0.00  0.00    +0.000 C 
ATOM     18  O   UNL     1      -0.128  10.790  18.944  0.00  0.00    +0.000 OA
ENDBRANCH  11  18
ENDBRANCH   1  14
TORSDOF 3
ENDMDL
MODEL 9
REMARK VINA RESULT:      -6.6      4.156      5.472
REMARK  Name = 
REMARK  5 active torsions:
REMARK  status: ('A' for Active; 'I' for Inactive)
REMARK    1  A    between atoms: C_1  and  O_2
REMARK    2  A    between atoms: O_2  and  C_3
REMARK    3  A    between atoms: C_6  and  N_7
REMARK    4  A    between atoms: N_7  and  C_8
REMARK    5  A    between atoms: N_12  and  C_13
REMARK                            x       y       z     vdW  Elec       q    Type
REMARK                         _______ _______ _______ _____ _____    ______ ____
ROOT
ATOM      1  N   UNL     1       2.750   6.474  19.905  0.00  0.00    +0.000 N 
ATOM      2  H   UNL     1       3.461   6.642  20.613  0.00  0.00    +0.000 HD
ENDROOT
BRANCH   1   3
ATOM      3  C   UNL     1       3.301   5.656  18.824  0.00  0.00    +0.000 C 
ATOM      4  S   UNL     1       4.891   5.014  19.409  0.00  0.00    +0.000 S 
ATOM      5  C   UNL     1       4.328   3.362  19.434  0.00  0.00    +0.000 C 
ATOM      6  O   UNL     1       5.053   2.439  19.776  0.00  0.00    +0.000 OA
ATOM      7  N   UNL     1       3.041   3.270  19.003  0.00  0.00    +0.000 N 
ATOM      8  C   UNL     1       2.347   2.008  18.901  0.00  0.00    +0.000 C 
ATOM      9  C   UNL     1       2.453   4.419  18.532  0.00  0.00    +0.000 C 
ATOM     10  O   UNL     1       1.382   4.427  17.928  0.00  0.00    +0.000 OA
ENDBRANCH   1   3
BRANCH   1  14
ATOM     11  C   UNL     1       0.838  10.096  18.836  0.00  0.00    +0.000 A 
ATOM     12  C   UNL     1       0.738   9.615  20.137  0.00  0.00    +0.000 A 
ATOM     13  C   UNL     1       1.363   8.421  20.506  0.00  0.00    +0.000 A 
ATOM     14  C   UNL     1       2.070   7.653  19.578  0.00  0.00    +0.000 A 
ATOM     15  C   UNL     1       2.203   8.174  18.282  0.00  0.00    +0.000 A 
ATOM     16  C   UNL     1       1.579   9.373  17.905  0.00  0.00    +0.000 A 
BRANCH  11  18
ATOM     17  C   UNL     1      -1.266  11.162  18.674  0.00  0.00    +0.000 C 
ATOM     18  O   UNL     1       0.150  11.250  18.594  0.00  0.00    +0.000 OA
ENDBRANCH  11  18
ENDBRANCH   1  14
TORSDOF 3
ENDMDL
