MODEL 1
REMARK VINA RESULT:      -7.6      0.000      0.000
REMARK  Name = 
REMARK  6 active torsions:
REMARK  status: ('A' for Active; 'I' for Inactive)
REMARK    1  A    between atoms: C_2  and  C_5
REMARK    2  A    between atoms: N_3  and  O_4
REMARK    3  A    between atoms: C_8  and  C_9
REMARK    4  A    between atoms: C_9  and  N_10
REMARK    5  A    between atoms: C_13  and  C_14
REMARK    6  A    between atoms: C_14  and  C_15
REMARK                            x       y       z     vdW  Elec       q    Type
REMARK                         _______ _______ _______ _____ _____    ______ ____
ROOT
ATOM      1  C   UNL     1       7.039   5.847  16.708  0.00  0.00    +0.000 C 
ENDROOT
BRANCH   1   5
ATOM      2  C   UNL     1       6.190   3.557  13.146  0.00  0.00    +0.000 A 
ATOM      3  C   UNL     1       5.513   3.272  14.337  0.00  0.00    +0.000 A 
ATOM      4  C   UNL     1       5.795   4.006  15.493  0.00  0.00    +0.000 A 
ATOM      5  C   UNL     1       6.738   5.045  15.466  0.00  0.00    +0.000 A 
ATOM      6  C   UNL     1       7.398   5.333  14.262  0.00  0.00    +0.000 A 
ATOM      7  C   UNL     1       7.123   4.598  13.107  0.00  0.00    +0.000 A 
BRANCH   2   9
ATOM      8  O   UNL     1       4.824   2.880  11.328  0.00  0.00    +0.000 OA
ATOM      9  C   UNL     1       5.885   2.753  11.933  0.00  0.00    +0.000 C 
ATOM     10  N   UNL     1       6.841   1.835  11.566  0.00  0.00    +0.000 N 
ATOM     11  H   UNL     1       7.517   1.467  12.227  0.00  0.00    +0.000 HD
BRANCH  10  12
ATOM     12  O   UNL     1       6.475   0.967  10.509  0.00  0.00    +0.000 OA
ATOM     13  H   UNL     1       6.831   1.434   9.724  0.00  0.00    +0.000 HD
ENDBRANCH  10  12
ENDBRANCH   2   9
ENDBRANCH   1   5
BRANCH   1  14
ATOM     14  N   UNL     1       6.084   5.591  17.770  0.00  0.00    +0.000 N 
ATOM     15  N   UNL     1       6.469   5.108  18.967  0.00  0.00    +0.000 NA
ATOM     16  N   UNL     1       5.401   5.222  19.744  0.00  0.00    +0.000 NA
ATOM     17  C   UNL     1       4.414   5.782  18.973  0.00  0.00    +0.000 A 
ATOM     18  N   UNL     1       4.814   6.052  17.717  0.00  0.00    +0.000 NA
BRANCH  17  19
ATOM     19  C   UNL     1       3.099   6.194  19.515  0.00  0.00    +0.000 C 
BRANCH  19  20
ATOM     20  C   UNL     1       2.253   4.955  19.662  0.00  0.00    +0.000 A 
ATOM     21  C   UNL     1       1.987   4.393  20.911  0.00  0.00    +0.000 A 
ATOM     22  C   UNL     1       1.269   3.201  20.982  0.00  0.00    +0.000 A 
ATOM     23  C   UNL     1       0.847   2.590  19.810  0.00  0.00    +0.000 A 
ATOM     24  C   UNL     1       1.158   3.201  18.608  0.00  0.00    +0.000 A 
ATOM     25  N   UNL     1       1.850   4.358  18.509  0.00  0.00    +0.000 NA
ENDBRANCH  19  20
ENDBRANCH  17  19
ENDBRANCH   1  14
TORSDOF 6
ENDMDL
MODEL 2
REMARK VINA RESULT:      -7.5      5.327      7.449
REMARK  Name = 
REMARK  6 active torsions:
REMARK  status: ('A' for Active; 'I' for Inactive)
REMARK    1  A    between atoms: C_2  and  C_5
REMARK    2  A    between atoms: N_3  and  O_4
REMARK    3  A    between atoms: C_8  and  C_9
REMARK    4  A    between atoms: C_9  and  N_10
REMARK    5  A    between atoms: C_13  and  C_14
REMARK    6  A    between atoms: C_14  and  C_15
REMARK                            x       y       z     vdW  Elec       q    Type
REMARK                         _______ _______ _______ _____ _____    ______ ____
ROOT
ATOM      1  C   UNL     1       3.968   7.322  17.056  0.00  0.00    +0.000 C 
ENDROOT
BRANCH   1   5
ATOM      2  C   UNL     1       1.097   8.792  19.928  0.00  0.00    +0.000 A 
ATOM      3  C   UNL     1       1.293   9.476  18.723  0.00  0.00    +0.000 A 
ATOM      4  C   UNL     1       2.229   9.006  17.797  0.00  0.00    +0.000 A 
ATOM      5  C   UNL     1       2.963   7.838  18.055  0.00  0.00    +0.000 A 
ATOM      6  C   UNL     1       2.746   7.151  19.259  0.00  0.00    +0.000 A 
ATOM      7  C   UNL     1       1.816   7.620  20.188  0.00  0.00    +0.000 A 
BRANCH   2   9
ATOM      8  O   UNL     1      -0.612  10.277  20.637  0.00  0.00    +0.000 OA
ATOM      9  C   UNL     1       0.107   9.318  20.904  0.00  0.00    +0.000 C 
ATOM     10  N   UNL     1       0.083   8.694  22.130  0.00  0.00    +0.000 N 
ATOM     11  H   UNL     1       0.879   8.176  22.487  0.00  0.00    +0.000 HD
BRANCH  10  12
ATOM     12  O   UNL     1      -0.747   9.300  23.103  0.00  0.00    +0.000 OA
ATOM     13  H   UNL     1      -0.121   9.895  23.568  0.00  0.00    +0.000 HD
ENDBRANCH  10  12
ENDBRANCH   2   9
ENDBRANCH   1   5
BRANCH   1  14
ATOM     14  N   UNL     1       4.394   5.967  17.357  0.00  0.00    +0.000 N 
ATOM     15  N   UNL     1       5.543   5.717  18.013  0.00  0.00    +0.000 NA
ATOM     16  N   UNL     1       5.493   4.427  18.314  0.00  0.00    +0.000 NA
ATOM     17  C   UNL     1       4.300   3.957  17.827  0.00  0.00    +0.000 A 
ATOM     18  N   UNL     1       3.561   4.910  17.230  0.00  0.00    +0.000 NA
BRANCH  17  19
ATOM     19  C   UNL     1       3.808   2.583  18.076  0.00  0.00    +0.000 C 
BRANCH  19  20
ATOM     20  C   UNL     1       2.874   2.636  19.257  0.00  0.00    +0.000 A 
ATOM     21  C   UNL     1       1.514   2.914  19.104  0.00  0.00    +0.000 A 
ATOM     22  C   UNL     1       0.712   3.034  20.236  0.00  0.00    +0.000 A 
ATOM     23  C   UNL     1       1.283   2.890  21.494  0.00  0.00    +0.000 A 
ATOM     24  C   UNL     1       2.640   2.627  21.567  0.00  0.00    +0.000 A 
ATOM     25  N   UNL     1       3.442   2.503  20.485  0.00  0.00    +0.000 NA
ENDBRANCH  19  20
ENDBRANCH  17  19
ENDBRANCH   1  14
TORSDOF 6
ENDMDL
MODEL 3
REMARK VINA RESULT:      -7.5      5.279      7.348
REMARK  Name = 
REMARK  6 active torsions:
REMARK  status: ('A' for Active; 'I' for Inactive)
REMARK    1  A    between atoms: C_2  and  C_5
REMARK    2  A    between atoms: N_3  and  O_4
REMARK    3  A    between atoms: C_8  and  C_9
REMARK    4  A    between atoms: C_9  and  N_10
REMARK    5  A    between atoms: C_13  and  C_14
REMARK    6  A    between atoms: C_14  and  C_15
REMARK                            x       y       z     vdW  Elec       q    Type
REMARK                         _______ _______ _______ _____ _____    ______ ____
ROOT
ATOM      1  C   UNL     1       4.064   7.210  17.051  0.00  0.00    +0.000 C 
ENDROOT
BRANCH   1   5
ATOM      2  C   UNL     1       1.166   8.731  19.871  0.00  0.00    +0.000 A 
ATOM      3  C   UNL     1       1.898   7.577  20.175  0.00  0.00    +0.000 A 
ATOM      4  C   UNL     1       2.829   7.079  19.258  0.00  0.00    +0.000 A 
ATOM      5  C   UNL     1       3.054   7.738  18.040  0.00  0.00    +0.000 A 
ATOM      6  C   UNL     1       2.326   8.903  17.753  0.00  0.00    +0.000 A 
ATOM      7  C   UNL     1       1.392   9.400  18.664  0.00  0.00    +0.000 A 
BRANCH   2   9
ATOM      8  O   UNL     1      -0.632  10.115  20.563  0.00  0.00    +0.000 OA
ATOM      9  C   UNL     1       0.172   9.234  20.854  0.00  0.00    +0.000 C 
ATOM     10  N   UNL     1       0.243   8.683  22.114  0.00  0.00    +0.000 N 
ATOM     11  H   UNL     1       1.092   8.253  22.467  0.00  0.00    +0.000 HD
BRANCH  10  12
ATOM     12  O   UNL     1      -0.598   9.279  23.084  0.00  0.00    +0.000 OA
ATOM     13  H   UNL     1      -1.137   9.894  22.542  0.00  0.00    +0.000 HD
ENDBRANCH  10  12
ENDBRANCH   2   9
ENDBRANCH   1   5
BRANCH   1  14
ATOM     14  N   UNL     1       4.451   5.842  17.342  0.00  0.00    +0.000 N 
ATOM     15  N   UNL     1       5.602   5.554  17.979  0.00  0.00    +0.000 NA
ATOM     16  N   UNL     1       5.517   4.265  18.277  0.00  0.00    +0.000 NA
ATOM     17  C   UNL     1       4.302   3.834  17.808  0.00  0.00    +0.000 A 
ATOM     18  N   UNL     1       3.584   4.812  17.226  0.00  0.00    +0.000 NA
BRANCH  17  19
ATOM     19  C   UNL     1       3.771   2.476  18.062  0.00  0.00    +0.000 C 
BRANCH  19  20
ATOM     20  C   UNL     1       2.839   2.560  19.243  0.00  0.00    +0.000 A 
ATOM     21  C   UNL     1       1.469   2.777  19.081  0.00  0.00    +0.000 A 
ATOM     22  C   UNL     1       0.666   2.930  20.209  0.00  0.00    +0.000 A 
ATOM     23  C   UNL     1       1.246   2.878  21.470  0.00  0.00    +0.000 A 
ATOM     24  C   UNL     1       2.612   2.671  21.551  0.00  0.00    +0.000 A 
ATOM     25  N   UNL     1       3.415   2.516  20.474  0.00  0.00    +0.000 NA
ENDBRANCH  19  20
ENDBRANCH  17  19
ENDBRANCH   1  14
TORSDOF 6
ENDMDL
MODEL 4
REMARK VINA RESULT:      -7.4      0.738      1.073
REMARK  Name = 
REMARK  6 active torsions:
REMARK  status: ('A' for Active; 'I' for Inactive)
REMARK    1  A    between atoms: C_2  and  C_5
REMARK    2  A    between atoms: N_3  and  O_4
REMARK    3  A    between atoms: C_8  and  C_9
REMARK    4  A    between atoms: C_9  and  N_10
REMARK    5  A    between atoms: C_13  and  C_14
REMARK    6  A    between atoms: C_14  and  C_15
REMARK                            x       y       z     vdW  Elec       q    Type
REMARK                         _______ _______ _______ _____ _____    ______ ____
ROOT
ATOM      1  C   UNL     1       6.719   6.149  16.466  0.00  0.00    +0.000 C 
ENDROOT
BRANCH   1   5
ATOM      2  C   UNL     1       6.061   3.581  13.057  0.00  0.00    +0.000 A 
ATOM      3  C   UNL     1       5.152   3.576  14.121  0.00  0.00    +0.000 A 
ATOM      4  C   UNL     1       5.370   4.400  15.229  0.00  0.00    +0.000 A 
ATOM      5  C   UNL     1       6.484   5.252  15.277  0.00  0.00    +0.000 A 
ATOM      6  C   UNL     1       7.379   5.261  14.196  0.00  0.00    +0.000 A 
ATOM      7  C   UNL     1       7.167   4.436  13.090  0.00  0.00    +0.000 A 
BRANCH   2   9
ATOM      8  O   UNL     1       4.742   2.684  11.300  0.00  0.00    +0.000 OA
ATOM      9  C   UNL     1       5.816   2.686  11.895  0.00  0.00    +0.000 C 
ATOM     10  N   UNL     1       6.847   1.837  11.565  0.00  0.00    +0.000 N 
ATOM     11  H   UNL     1       7.560   1.569  12.236  0.00  0.00    +0.000 HD
BRANCH  10  12
ATOM     12  O   UNL     1       6.549   0.881  10.564  0.00  0.00    +0.000 OA
ATOM     13  H   UNL     1       7.147   1.152   9.834  0.00  0.00    +0.000 HD
ENDBRANCH  10  12
ENDBRANCH   2   9
ENDBRANCH   1   5
BRANCH   1  14
ATOM     14  N   UNL     1       5.876   5.797  17.594  0.00  0.00    +0.000 N 
ATOM     15  N   UNL     1       6.391   5.301  18.735  0.00  0.00    +0.000 NA
ATOM     16  N   UNL     1       5.389   5.319  19.602  0.00  0.00    +0.000 NA
ATOM     17  C   UNL     1       4.306   5.838  18.938  0.00  0.00    +0.000 A 
ATOM     18  N   UNL     1       4.580   6.176  17.664  0.00  0.00    +0.000 NA
BRANCH  17  19
ATOM     19  C   UNL     1       3.020   6.145  19.603  0.00  0.00    +0.000 C 
BRANCH  19  20
ATOM     20  C   UNL     1       2.366   4.837  19.968  0.00  0.00    +0.000 A 
ATOM     21  C   UNL     1       1.596   4.121  19.049  0.00  0.00    +0.000 A 
ATOM     22  C   UNL     1       0.946   2.961  19.463  0.00  0.00    +0.000 A 
ATOM     23  C   UNL     1       1.064   2.549  20.784  0.00  0.00    +0.000 A 
ATOM     24  C   UNL     1       1.834   3.317  21.640  0.00  0.00    +0.000 A 
ATOM     25  N   UNL     1       2.479   4.445  21.265  0.00  0.00    +0.000 NA
ENDBRANCH  19  20
ENDBRANCH  17  19
ENDBRANCH   1  14
TORSDOF 6
ENDMDL
MODEL 5
REMARK VINA RESULT:      -7.4      0.671      1.438
REMARK  Name = 
REMARK  6 active torsions:
REMARK  status: ('A' for Active; 'I' for Inactive)
REMARK    1  A    between atoms: C_2  and  C_5
REMARK    2  A    between atoms: N_3  and  O_4
REMARK    3  A    between atoms: C_8  and  C_9
REMARK    4  A    between atoms: C_9  and  N_10
REMARK    5  A    between atoms: C_13  and  C_14
REMARK    6  A    between atoms: C_14  and  C_15
REMARK                            x       y       z     vdW  Elec       q    Type
REMARK                         _______ _______ _______ _____ _____    ______ ____
ROOT
ATOM      1  C   UNL     1       7.040   5.926  16.603  0.00  0.00    +0.000 C 
ENDROOT
BRANCH   1   5
ATOM      2  C   UNL     1       6.151   3.530  13.121  0.00  0.00    +0.000 A 
ATOM      3  C   UNL     1       7.137   4.521  13.054  0.00  0.00    +0.000 A 
ATOM      4  C   UNL     1       7.419   5.303  14.179  0.00  0.00    +0.000 A 
ATOM      5  C   UNL     1       6.734   5.091  15.385  0.00  0.00    +0.000 A 
ATOM      6  C   UNL     1       5.759   4.083  15.445  0.00  0.00    +0.000 A 
ATOM      7  C   UNL     1       5.472   3.304  14.323  0.00  0.00    +0.000 A 
BRANCH   2   9
ATOM      8  O   UNL     1       4.799   2.834  11.300  0.00  0.00    +0.000 OA
ATOM      9  C   UNL     1       5.859   2.721  11.909  0.00  0.00    +0.000 C 
ATOM     10  N   UNL     1       6.827   1.812  11.548  0.00  0.00    +0.000 N 
ATOM     11  H   UNL     1       7.504   1.453  12.214  0.00  0.00    +0.000 HD
BRANCH  10  12
ATOM     12  O   UNL     1       6.474   0.937  10.493  0.00  0.00    +0.000 OA
ATOM     13  H   UNL     1       5.506   0.839  10.619  0.00  0.00    +0.000 HD
ENDBRANCH  10  12
ENDBRANCH   2   9
ENDBRANCH   1   5
BRANCH   1  14
ATOM     14  N   UNL     1       6.139   5.640  17.704  0.00  0.00    +0.000 N 
ATOM     15  N   UNL     1       6.591   5.185  18.889  0.00  0.00    +0.000 NA
ATOM     16  N   UNL     1       5.550   5.261  19.706  0.00  0.00    +0.000 NA
ATOM     17  C   UNL     1       4.510   5.769  18.971  0.00  0.00    +0.000 A 
ATOM     18  N   UNL     1       4.849   6.045  17.698  0.00  0.00    +0.000 NA
BRANCH  17  19
ATOM     19  C   UNL     1       3.201   6.129  19.560  0.00  0.00    +0.000 C 
BRANCH  19  20
ATOM     20  C   UNL     1       2.460   4.849  19.852  0.00  0.00    +0.000 A 
ATOM     21  C   UNL     1       1.780   4.152  18.852  0.00  0.00    +0.000 A 
ATOM     22  C   UNL     1       1.042   3.021  19.192  0.00  0.00    +0.000 A 
ATOM     23  C   UNL     1       0.985   2.619  20.520  0.00  0.00    +0.000 A 
ATOM     24  C   UNL     1       1.676   3.368  21.457  0.00  0.00    +0.000 A 
ATOM     25  N   UNL     1       2.402   4.467  21.155  0.00  0.00    +0.000 NA
ENDBRANCH  19  20
ENDBRANCH  17  19
ENDBRANCH   1  14
TORSDOF 6
ENDMDL
MODEL 6
REMARK VINA RESULT:      -7.4      4.875      7.865
REMARK  Name = 
REMARK  6 active torsions:
REMARK  status: ('A' for Active; 'I' for Inactive)
REMARK    1  A    between atoms: C_2  and  C_5
REMARK    2  A    between atoms: N_3  and  O_4
REMARK    3  A    between atoms: C_8  and  C_9
REMARK    4  A    between atoms: C_9  and  N_10
REMARK    5  A    between atoms: C_13  and  C_14
REMARK    6  A    between atoms: C_14  and  C_15
REMARK                            x       y       z     vdW  Elec       q    Type
REMARK                         _______ _______ _______ _____ _____    ______ ____
ROOT
ATOM      1  C   UNL     1       7.270   5.491  17.172  0.00  0.00    +0.000 C 
ENDROOT
BRANCH   1   5
ATOM      2  C   UNL     1       3.315   4.172  18.302  0.00  0.00    +0.000 A 
ATOM      3  C   UNL     1       3.717   4.107  16.963  0.00  0.00    +0.000 A 
ATOM      4  C   UNL     1       4.993   4.544  16.595  0.00  0.00    +0.000 A 
ATOM      5  C   UNL     1       5.888   5.027  17.562  0.00  0.00    +0.000 A 
ATOM      6  C   UNL     1       5.481   5.071  18.904  0.00  0.00    +0.000 A 
ATOM      7  C   UNL     1       4.205   4.642  19.274  0.00  0.00    +0.000 A 
BRANCH   2   9
ATOM      8  O   UNL     1       1.086   3.522  17.816  0.00  0.00    +0.000 OA
ATOM      9  C   UNL     1       1.949   3.716  18.668  0.00  0.00    +0.000 C 
ATOM     10  N   UNL     1       1.705   3.573  20.015  0.00  0.00    +0.000 N 
ATOM     11  H   UNL     1       2.251   4.062  20.717  0.00  0.00    +0.000 HD
BRANCH  10  12
ATOM     12  O   UNL     1       0.361   3.294  20.362  0.00  0.00    +0.000 OA
ATOM     13  H   UNL     1       0.445   2.989  21.290  0.00  0.00    +0.000 HD
ENDBRANCH  10  12
ENDBRANCH   2   9
ENDBRANCH   1   5
BRANCH   1  14
ATOM     14  N   UNL     1       7.604   6.774  17.762  0.00  0.00    +0.000 N 
ATOM     15  N   UNL     1       8.406   6.869  18.840  0.00  0.00    +0.000 NA
ATOM     16  N   UNL     1       8.677   8.162  18.954  0.00  0.00    +0.000 NA
ATOM     17  C   UNL     1       8.025   8.791  17.925  0.00  0.00    +0.000 A 
ATOM     18  N   UNL     1       7.349   7.941  17.130  0.00  0.00    +0.000 NA
BRANCH  17  19
ATOM     19  C   UNL     1       8.184  10.232  17.627  0.00  0.00    +0.000 C 
BRANCH  19  20
ATOM     20  C   UNL     1       9.334  10.749  18.452  0.00  0.00    +0.000 A 
ATOM     21  C   UNL     1       9.213  10.961  19.827  0.00  0.00    +0.000 A 
ATOM     22  C   UNL     1      10.281  11.519  20.526  0.00  0.00    +0.000 A 
ATOM     23  C   UNL     1      11.436  11.867  19.840  0.00  0.00    +0.000 A 
ATOM     24  C   UNL     1      11.478  11.638  18.476  0.00  0.00    +0.000 A 
ATOM     25  N   UNL     1      10.460  11.096  17.772  0.00  0.00    +0.000 NA
ENDBRANCH  19  20
ENDBRANCH  17  19
ENDBRANCH   1  14
TORSDOF 6
ENDMDL
MODEL 7
REMARK VINA RESULT:      -7.4      0.971      1.577
REMARK  Name = 
REMARK  6 active torsions:
REMARK  status: ('A' for Active; 'I' for Inactive)
REMARK    1  A    between atoms: C_2  and  C_5
REMARK    2  A    between atoms: N_3  and  O_4
REMARK    3  A    between atoms: C_8  and  C_9
REMARK    4  A    between atoms: C_9  and  N_10
REMARK    5  A    between atoms: C_13  and  C_14
REMARK    6  A    between atoms: C_14  and  C_15
REMARK                            x       y       z     vdW  Elec       q    Type
REMARK                         _______ _______ _______ _____ _____    ______ ____
ROOT
ATOM      1  C   UNL     1       6.481   5.769  17.362  0.00  0.00    +0.000 C 
ENDROOT
BRANCH   1   5
ATOM      2  C   UNL     1       5.987   3.789  13.554  0.00  0.00    +0.000 A 
ATOM      3  C   UNL     1       5.051   3.586  14.574  0.00  0.00    +0.000 A 
ATOM      4  C   UNL     1       5.216   4.218  15.810  0.00  0.00    +0.000 A 
ATOM      5  C   UNL     1       6.303   5.076  16.033  0.00  0.00    +0.000 A 
ATOM      6  C   UNL     1       7.227   5.287  14.997  0.00  0.00    +0.000 A 
ATOM      7  C   UNL     1       7.068   4.652  13.764  0.00  0.00    +0.000 A 
BRANCH   2   9
ATOM      8  O   UNL     1       4.766   3.219  11.602  0.00  0.00    +0.000 OA
ATOM      9  C   UNL     1       5.799   3.095  12.254  0.00  0.00    +0.000 C 
ATOM     10  N   UNL     1       6.831   2.276  11.857  0.00  0.00    +0.000 N 
ATOM     11  H   UNL     1       7.493   1.884  12.519  0.00  0.00    +0.000 HD
BRANCH  10  12
ATOM     12  O   UNL     1       6.578   1.498  10.701  0.00  0.00    +0.000 OA
ATOM     13  H   UNL     1       5.599   1.437  10.702  0.00  0.00    +0.000 HD
ENDBRANCH  10  12
ENDBRANCH   2   9
ENDBRANCH   1   5
BRANCH   1  14
ATOM     14  N   UNL     1       5.235   6.317  17.865  0.00  0.00    +0.000 N 
ATOM     15  N   UNL     1       4.495   7.174  17.136  0.00  0.00    +0.000 NA
ATOM     16  N   UNL     1       3.346   7.277  17.790  0.00  0.00    +0.000 NA
ATOM     17  C   UNL     1       3.445   6.463  18.888  0.00  0.00    +0.000 A 
ATOM     18  N   UNL     1       4.624   5.816  18.962  0.00  0.00    +0.000 NA
BRANCH  17  19
ATOM     19  C   UNL     1       2.314   6.198  19.806  0.00  0.00    +0.000 C 
BRANCH  19  20
ATOM     20  C   UNL     1       1.972   4.734  19.706  0.00  0.00    +0.000 A 
ATOM     21  C   UNL     1       1.632   4.143  18.487  0.00  0.00    +0.000 A 
ATOM     22  C   UNL     1       1.244   2.805  18.465  0.00  0.00    +0.000 A 
ATOM     23  C   UNL     1       1.187   2.093  19.655  0.00  0.00    +0.000 A 
ATOM     24  C   UNL     1       1.528   2.750  20.825  0.00  0.00    +0.000 A 
ATOM     25  N   UNL     1       1.911   4.045  20.876  0.00  0.00    +0.000 NA
ENDBRANCH  19  20
ENDBRANCH  17  19
ENDBRANCH   1  14
TORSDOF 6
ENDMDL
MODEL 8
REMARK VINA RESULT:      -7.3      0.864      1.626
REMARK  Name = 
REMARK  6 active torsions:
REMARK  status: ('A' for Active; 'I' for Inactive)
REMARK    1  A    between atoms: C_2  and  C_5
REMARK    2  A    between atoms: N_3  and  O_4
REMARK    3  A    between atoms: C_8  and  C_9
REMARK    4  A    between atoms: C_9  and  N_10
REMARK    5  A    between atoms: C_13  and  C_14
REMARK    6  A    between atoms: C_14  and  C_15
REMARK                            x       y       z     vdW  Elec       q    Type
REMARK                         _______ _______ _______ _____ _____    ______ ____
ROOT
ATOM      1  C   UNL     1       6.369   5.722  17.507  0.00  0.00    +0.000 C 
ENDROOT
BRANCH   1   5
ATOM      2  C   UNL     1       5.919   3.815  13.658  0.00  0.00    +0.000 A 
ATOM      3  C   UNL     1       6.995   4.680  13.888  0.00  0.00    +0.000 A 
ATOM      4  C   UNL     1       7.135   5.306  15.130  0.00  0.00    +0.000 A 
ATOM      5  C   UNL     1       6.217   5.057  16.162  0.00  0.00    +0.000 A 
ATOM      6  C   UNL     1       5.152   4.174  15.926  0.00  0.00    +0.000 A 
ATOM      7  C   UNL     1       5.006   3.553  14.684  0.00  0.00    +0.000 A 
BRANCH   2   9
ATOM      8  O   UNL     1       4.779   3.330  11.635  0.00  0.00    +0.000 OA
ATOM      9  C   UNL     1       5.782   3.173  12.325  0.00  0.00    +0.000 C 
ATOM     10  N   UNL     1       6.824   2.361  11.941  0.00  0.00    +0.000 N 
ATOM     11  H   UNL     1       7.455   1.938  12.614  0.00  0.00    +0.000 HD
BRANCH  10  12
ATOM     12  O   UNL     1       6.616   1.630  10.746  0.00  0.00    +0.000 OA
ATOM     13  H   UNL     1       6.134   2.278  10.188  0.00  0.00    +0.000 HD
ENDBRANCH  10  12
ENDBRANCH   2   9
ENDBRANCH   1   5
BRANCH   1  14
ATOM     14  N   UNL     1       5.126   6.309  17.972  0.00  0.00    +0.000 N 
ATOM     15  N   UNL     1       4.421   7.167  17.211  0.00  0.00    +0.000 NA
ATOM     16  N   UNL     1       3.261   7.309  17.837  0.00  0.00    +0.000 NA
ATOM     17  C   UNL     1       3.318   6.516  18.953  0.00  0.00    +0.000 A 
ATOM     18  N   UNL     1       4.480   5.845  19.065  0.00  0.00    +0.000 NA
BRANCH  17  19
ATOM     19  C   UNL     1       2.162   6.296  19.851  0.00  0.00    +0.000 C 
BRANCH  19  20
ATOM     20  C   UNL     1       1.815   4.830  19.805  0.00  0.00    +0.000 A 
ATOM     21  C   UNL     1       1.812   4.041  20.957  0.00  0.00    +0.000 A 
ATOM     22  C   UNL     1       1.566   2.675  20.844  0.00  0.00    +0.000 A 
ATOM     23  C   UNL     1       1.345   2.123  19.590  0.00  0.00    +0.000 A 
ATOM     24  C   UNL     1       1.375   2.967  18.493  0.00  0.00    +0.000 A 
ATOM     25  N   UNL     1       1.608   4.296  18.572  0.00  0.00    +0.000 NA
ENDBRANCH  19  20
ENDBRANCH  17  19
ENDBRANCH   1  14
TORSDOF 6
ENDMDL
MODEL 9
REMARK VINA RESULT:      -7.3      4.414      7.763
REMARK  Name = 
REMARK  6 active torsions:
REMARK  status: ('A' for Active; 'I' for Inactive)
REMARK    1  A    between atoms: C_2  and  C_5
REMARK    2  A    between atoms: N_3  and  O_4
REMARK    3  A    between atoms: C_8  and  C_9
REMARK    4  A    between atoms: C_9  and  N_10
REMARK    5  A    between atoms: C_13  and  C_14
REMARK    6  A    between atoms: C_14  and  C_15
REMARK                            x       y       z     vdW  Elec       q    Type
REMARK                         _______ _______ _______ _____ _____    ______ ____
ROOT
ATOM      1  C   UNL     1       2.217   5.279  20.238  0.00  0.00    +0.000 C 
ENDROOT
BRANCH   1   5
ATOM      2  C   UNL     1       1.533   9.365  19.014  0.00  0.00    +0.000 A 
ATOM      3  C   UNL     1       1.982   8.422  18.082  0.00  0.00    +0.000 A 
ATOM      4  C   UNL     1       2.213   7.102  18.480  0.00  0.00    +0.000 A 
ATOM      5  C   UNL     1       1.978   6.705  19.805  0.00  0.00    +0.000 A 
ATOM      6  C   UNL     1       1.511   7.654  20.727  0.00  0.00    +0.000 A 
ATOM      7  C   UNL     1       1.285   8.975  20.334  0.00  0.00    +0.000 A 
BRANCH   2   9
ATOM      8  O   UNL     1       0.224  11.322  18.725  0.00  0.00    +0.000 OA
ATOM      9  C   UNL     1       1.307  10.765  18.571  0.00  0.00    +0.000 C 
ATOM     10  N   UNL     1       2.369  11.373  17.942  0.00  0.00    +0.000 N 
ATOM     11  H   UNL     1       3.106  10.840  17.490  0.00  0.00    +0.000 HD
BRANCH  10  12
ATOM     12  O   UNL     1       2.097  12.645  17.383  0.00  0.00    +0.000 OA
ATOM     13  H   UNL     1       1.810  12.415  16.474  0.00  0.00    +0.000 HD
ENDBRANCH  10  12
ENDBRANCH   2   9
ENDBRANCH   1   5
BRANCH   1  14
ATOM     14  N   UNL     1       3.575   4.845  19.967  0.00  0.00    +0.000 N 
ATOM     15  N   UNL     1       3.889   3.541  19.846  0.00  0.00    +0.000 NA
ATOM     16  N   UNL     1       5.129   3.528  19.377  0.00  0.00    +0.000 NA
ATOM     17  C   UNL     1       5.506   4.838  19.229  0.00  0.00    +0.000 A 
ATOM     18  N   UNL     1       4.537   5.708  19.572  0.00  0.00    +0.000 NA
BRANCH  17  19
ATOM     19  C   UNL     1       6.783   5.248  18.603  0.00  0.00    +0.000 C 
BRANCH  19  20
ATOM     20  C   UNL     1       6.577   5.273  17.110  0.00  0.00    +0.000 A 
ATOM     21  C   UNL     1       5.526   5.983  16.527  0.00  0.00    +0.000 A 
ATOM     22  C   UNL     1       5.333   5.903  15.149  0.00  0.00    +0.000 A 
ATOM     23  C   UNL     1       6.178   5.106  14.388  0.00  0.00    +0.000 A 
ATOM     24  C   UNL     1       7.190   4.423  15.039  0.00  0.00    +0.000 A 
ATOM     25  N   UNL     1       7.403   4.484  16.372  0.00  0.00    +0.000 NA
ENDBRANCH  19  20
ENDBRANCH  17  19
ENDBRANCH   1  14
TORSDOF 6
ENDMDL
