MODEL 1
REMARK VINA RESULT:      -7.8      0.000      0.000
REMARK  Name = 
REMARK  6 active torsions:
REMARK  status: ('A' for Active; 'I' for Inactive)
REMARK    1  A    between atoms: C_1  and  C_2
REMARK    2  A    between atoms: C_2  and  C_3
REMARK    3  A    between atoms: C_7  and  C_8
REMARK    4  A    between atoms: C_8  and  O_9
REMARK    5  A    between atoms: C_8  and  C_10
REMARK    6  A    between atoms: C_10  and  N_11
REMARK                            x       y       z     vdW  Elec       q    Type
REMARK                         _______ _______ _______ _____ _____    ______ ____
ROOT
ATOM      1  C   UNL     1       1.667   4.952  18.125  0.00  0.00    +0.000 C 
ATOM      2  C   UNL     1       1.827   4.395  19.557  0.00  0.00    +0.000 C 
ATOM      3  C   UNL     1       1.843   5.616  20.502  0.00  0.00    +0.000 C 
ATOM      4  C   UNL     1       0.756   3.345  19.953  0.00  0.00    +0.000 C 
ATOM      5  C   UNL     1       1.259   2.829  21.322  0.00  0.00    +0.000 C 
ATOM      6  C   UNL     1       2.800   2.847  21.170  0.00  0.00    +0.000 C 
ATOM      7  C   UNL     1       3.012   3.373  19.722  0.00  0.00    +0.000 C 
ATOM      8  C   UNL     1       2.455   2.226  18.844  0.00  0.00    +0.000 C 
ATOM      9  O   UNL     1       3.052   1.412  18.175  0.00  0.00    +0.000 OA
ATOM     10  C   UNL     1       0.949   2.206  18.943  0.00  0.00    +0.000 C 
ENDROOT
BRANCH   7  11
ATOM     11  C   UNL     1       4.400   3.922  19.375  0.00  0.00    +0.000 C 
BRANCH  11  12
ATOM     12  O   UNL     1       5.358   2.854  19.550  0.00  0.00    +0.000 OA
ATOM     13  H   UNL     1       5.815   2.941  20.403  0.00  0.00    +0.000 HD
ENDBRANCH  11  12
BRANCH  11  14
ATOM     14  C   UNL     1       4.593   4.481  17.949  0.00  0.00    +0.000 C 
BRANCH  14  15
ATOM     15  N   UNL     1       5.493   5.602  17.681  0.00  0.00    +0.000 NA
ATOM     16  C   UNL     1       6.942   5.311  17.699  0.00  0.00    +0.000 C 
ATOM     17  C   UNL     1       7.473   4.398  16.589  0.00  0.00    +0.000 C 
ATOM     18  S   UNL     1       7.148   5.056  14.924  0.00  0.00    +0.000 S 
ATOM     19  C   UNL     1       5.382   5.432  15.143  0.00  0.00    +0.000 C 
ATOM     20  C   UNL     1       5.121   6.258  16.414  0.00  0.00    +0.000 C 
ENDBRANCH  14  15
ENDBRANCH  11  14
ENDBRANCH   7  11
TORSDOF 4
ENDMDL
MODEL 2
REMARK VINA RESULT:      -7.4      0.848      1.224
REMARK  Name = 
REMARK  6 active torsions:
REMARK  status: ('A' for Active; 'I' for Inactive)
REMARK    1  A    between atoms: C_1  and  C_2
REMARK    2  A    between atoms: C_2  and  C_3
REMARK    3  A    between atoms: C_7  and  C_8
REMARK    4  A    between atoms: C_8  and  O_9
REMARK    5  A    between atoms: C_8  and  C_10
REMARK    6  A    between atoms: C_10  and  N_11
REMARK                            x       y       z     vdW  Elec       q    Type
REMARK                         _______ _______ _______ _____ _____    ______ ____
ROOT
ATOM      1  C   UNL     1       1.962   4.871  18.070  0.00  0.00    +0.000 C 
ATOM      2  C   UNL     1       1.967   4.364  19.529  0.00  0.00    +0.000 C 
ATOM      3  C   UNL     1       2.130   5.610  20.425  0.00  0.00    +0.000 C 
ATOM      4  C   UNL     1       0.728   3.511  19.909  0.00  0.00    +0.000 C 
ATOM      5  C   UNL     1       1.081   2.989  21.322  0.00  0.00    +0.000 C 
ATOM      6  C   UNL     1       2.611   2.761  21.251  0.00  0.00    +0.000 C 
ATOM      7  C   UNL     1       2.969   3.181  19.796  0.00  0.00    +0.000 C 
ATOM      8  C   UNL     1       2.280   2.093  18.936  0.00  0.00    +0.000 C 
ATOM      9  O   UNL     1       2.773   1.166  18.332  0.00  0.00    +0.000 OA
ATOM     10  C   UNL     1       0.787   2.310  18.956  0.00  0.00    +0.000 C 
ENDROOT
BRANCH   7  11
ATOM     11  C   UNL     1       4.440   3.492  19.501  0.00  0.00    +0.000 C 
BRANCH  11  12
ATOM     12  O   UNL     1       5.233   2.375  19.964  0.00  0.00    +0.000 OA
ATOM     13  H   UNL     1       4.987   2.134  20.873  0.00  0.00    +0.000 HD
ENDBRANCH  11  12
BRANCH  11  14
ATOM     14  C   UNL     1       4.819   3.741  18.026  0.00  0.00    +0.000 C 
BRANCH  14  15
ATOM     15  N   UNL     1       6.033   4.468  17.658  0.00  0.00    +0.000 NA
ATOM     16  C   UNL     1       6.484   4.345  16.256  0.00  0.00    +0.000 C 
ATOM     17  C   UNL     1       5.582   4.971  15.188  0.00  0.00    +0.000 C 
ATOM     18  S   UNL     1       5.325   6.754  15.442  0.00  0.00    +0.000 S 
ATOM     19  C   UNL     1       4.884   6.695  17.206  0.00  0.00    +0.000 C 
ATOM     20  C   UNL     1       5.904   5.890  18.030  0.00  0.00    +0.000 C 
ENDBRANCH  14  15
ENDBRANCH  11  14
ENDBRANCH   7  11
TORSDOF 4
ENDMDL
MODEL 3
REMARK VINA RESULT:      -7.3      1.309      2.419
REMARK  Name = 
REMARK  6 active torsions:
REMARK  status: ('A' for Active; 'I' for Inactive)
REMARK    1  A    between atoms: C_1  and  C_2
REMARK    2  A    between atoms: C_2  and  C_3
REMARK    3  A    between atoms: C_7  and  C_8
REMARK    4  A    between atoms: C_8  and  O_9
REMARK    5  A    between atoms: C_8  and  C_10
REMARK    6  A    between atoms: C_10  and  N_11
REMARK                            x       y       z     vdW  Elec       q    Type
REMARK                         _______ _______ _______ _____ _____    ______ ____
ROOT
ATOM      1  C   UNL     1       1.257   2.095  18.572  0.00  0.00    +0.000 C 
ATOM      2  C   UNL     1       1.669   3.524  18.989  0.00  0.00    +0.000 C 
ATOM      3  C   UNL     1       1.419   4.427  17.762  0.00  0.00    +0.000 C 
ATOM      4  C   UNL     1       0.960   4.041  20.268  0.00  0.00    +0.000 C 
ATOM      5  C   UNL     1       1.684   5.378  20.555  0.00  0.00    +0.000 C 
ATOM      6  C   UNL     1       3.146   5.094  20.129  0.00  0.00    +0.000 C 
ATOM      7  C   UNL     1       3.097   3.618  19.641  0.00  0.00    +0.000 C 
ATOM      8  C   UNL     1       2.814   2.826  20.941  0.00  0.00    +0.000 C 
ATOM      9  O   UNL     1       3.560   2.134  21.596  0.00  0.00    +0.000 OA
ATOM     10  C   UNL     1       1.383   3.053  21.363  0.00  0.00    +0.000 C 
ENDROOT
BRANCH   7  11
ATOM     11  C   UNL     1       4.252   3.137  18.756  0.00  0.00    +0.000 C 
BRANCH  11  12
ATOM     12  O   UNL     1       4.163   1.698  18.649  0.00  0.00    +0.000 OA
ATOM     13  H   UNL     1       3.690   1.444  17.839  0.00  0.00    +0.000 HD
ENDBRANCH  11  12
BRANCH  11  14
ATOM     14  C   UNL     1       4.311   3.698  17.319  0.00  0.00    +0.000 C 
BRANCH  14  15
ATOM     15  N   UNL     1       5.585   3.996  16.664  0.00  0.00    +0.000 NA
ATOM     16  C   UNL     1       5.554   4.991  15.572  0.00  0.00    +0.000 C 
ATOM     17  C   UNL     1       5.226   6.434  15.967  0.00  0.00    +0.000 C 
ATOM     18  S   UNL     1       6.395   7.112  17.186  0.00  0.00    +0.000 S 
ATOM     19  C   UNL     1       6.361   5.726  18.363  0.00  0.00    +0.000 C 
ATOM     20  C   UNL     1       6.595   4.372  17.670  0.00  0.00    +0.000 C 
ENDBRANCH  14  15
ENDBRANCH  11  14
ENDBRANCH   7  11
TORSDOF 4
ENDMDL
MODEL 4
REMARK VINA RESULT:      -7.3      1.058      1.711
REMARK  Name = 
REMARK  6 active torsions:
REMARK  status: ('A' for Active; 'I' for Inactive)
REMARK    1  A    between atoms: C_1  and  C_2
REMARK    2  A    between atoms: C_2  and  C_3
REMARK    3  A    between atoms: C_7  and  C_8
REMARK    4  A    between atoms: C_8  and  O_9
REMARK    5  A    between atoms: C_8  and  C_10
REMARK    6  A    between atoms: C_10  and  N_11
REMARK                            x       y       z     vdW  Elec       q    Type
REMARK                         _______ _______ _______ _____ _____    ______ ____
ROOT
ATOM      1  C   UNL     1       2.123   5.041  18.296  0.00  0.00    +0.000 C 
ATOM      2  C   UNL     1       2.017   4.390  19.693  0.00  0.00    +0.000 C 
ATOM      3  C   UNL     1       1.977   5.548  20.714  0.00  0.00    +0.000 C 
ATOM      4  C   UNL     1       0.823   3.412  19.849  0.00  0.00    +0.000 C 
ATOM      5  C   UNL     1       1.068   2.777  21.238  0.00  0.00    +0.000 C 
ATOM      6  C   UNL     1       2.611   2.673  21.320  0.00  0.00    +0.000 C 
ATOM      7  C   UNL     1       3.083   3.264  19.961  0.00  0.00    +0.000 C 
ATOM      8  C   UNL     1       2.585   2.221  18.931  0.00  0.00    +0.000 C 
ATOM      9  O   UNL     1       3.216   1.400  18.303  0.00  0.00    +0.000 OA
ATOM     10  C   UNL     1       1.085   2.323  18.801  0.00  0.00    +0.000 C 
ENDROOT
BRANCH   7  11
ATOM     11  C   UNL     1       4.545   3.713  19.865  0.00  0.00    +0.000 C 
BRANCH  11  12
ATOM     12  O   UNL     1       5.335   2.574  19.454  0.00  0.00    +0.000 OA
ATOM     13  H   UNL     1       5.673   2.701  18.551  0.00  0.00    +0.000 HD
ENDBRANCH  11  12
BRANCH  11  14
ATOM     14  C   UNL     1       4.859   4.864  18.886  0.00  0.00    +0.000 C 
BRANCH  14  15
ATOM     15  N   UNL     1       5.791   4.691  17.772  0.00  0.00    +0.000 NA
ATOM     16  C   UNL     1       5.584   5.555  16.591  0.00  0.00    +0.000 C 
ATOM     17  C   UNL     1       5.830   7.054  16.785  0.00  0.00    +0.000 C 
ATOM     18  S   UNL     1       7.523   7.421  17.344  0.00  0.00    +0.000 S 
ATOM     19  C   UNL     1       7.606   6.215  18.703  0.00  0.00    +0.000 C 
ATOM     20  C   UNL     1       7.180   4.806  18.252  0.00  0.00    +0.000 C 
ENDBRANCH  14  15
ENDBRANCH  11  14
ENDBRANCH   7  11
TORSDOF 4
ENDMDL
MODEL 5
REMARK VINA RESULT:      -7.3      1.050      1.567
REMARK  Name = 
REMARK  6 active torsions:
REMARK  status: ('A' for Active; 'I' for Inactive)
REMARK    1  A    between atoms: C_1  and  C_2
REMARK    2  A    between atoms: C_2  and  C_3
REMARK    3  A    between atoms: C_7  and  C_8
REMARK    4  A    between atoms: C_8  and  O_9
REMARK    5  A    between atoms: C_8  and  C_10
REMARK    6  A    between atoms: C_10  and  N_11
REMARK                            x       y       z     vdW  Elec       q    Type
REMARK                         _______ _______ _______ _____ _____    ______ ____
ROOT
ATOM      1  C   UNL     1       1.619   5.224  17.982  0.00  0.00    +0.000 C 
ATOM      2  C   UNL     1       1.939   4.591  19.354  0.00  0.00    +0.000 C 
ATOM      3  C   UNL     1       2.259   5.760  20.311  0.00  0.00    +0.000 C 
ATOM      4  C   UNL     1       0.825   3.659  19.899  0.00  0.00    +0.000 C 
ATOM      5  C   UNL     1       1.476   3.030  21.154  0.00  0.00    +0.000 C 
ATOM      6  C   UNL     1       2.962   2.871  20.747  0.00  0.00    +0.000 C 
ATOM      7  C   UNL     1       2.999   3.431  19.297  0.00  0.00    +0.000 C 
ATOM      8  C   UNL     1       2.170   2.396  18.498  0.00  0.00    +0.000 C 
ATOM      9  O   UNL     1       2.545   1.547  17.720  0.00  0.00    +0.000 OA
ATOM     10  C   UNL     1       0.709   2.550  18.845  0.00  0.00    +0.000 C 
ENDROOT
BRANCH   7  11
ATOM     11  C   UNL     1       4.370   3.826  18.736  0.00  0.00    +0.000 C 
BRANCH  11  12
ATOM     12  O   UNL     1       5.382   3.138  19.506  0.00  0.00    +0.000 OA
ATOM     13  H   UNL     1       6.185   3.007  18.975  0.00  0.00    +0.000 HD
ENDBRANCH  11  12
BRANCH  11  14
ATOM     14  C   UNL     1       4.633   3.509  17.249  0.00  0.00    +0.000 C 
BRANCH  14  15
ATOM     15  N   UNL     1       5.072   4.543  16.311  0.00  0.00    +0.000 NA
ATOM     16  C   UNL     1       4.816   5.945  16.700  0.00  0.00    +0.000 C 
ATOM     17  C   UNL     1       5.592   6.475  17.910  0.00  0.00    +0.000 C 
ATOM     18  S   UNL     1       7.395   6.371  17.688  0.00  0.00    +0.000 S 
ATOM     19  C   UNL     1       7.480   4.642  17.130  0.00  0.00    +0.000 C 
ATOM     20  C   UNL     1       6.497   4.356  15.982  0.00  0.00    +0.000 C 
ENDBRANCH  14  15
ENDBRANCH  11  14
ENDBRANCH   7  11
TORSDOF 4
ENDMDL
MODEL 6
REMARK VINA RESULT:      -7.2      1.033      1.855
REMARK  Name = 
REMARK  6 active torsions:
REMARK  status: ('A' for Active; 'I' for Inactive)
REMARK    1  A    between atoms: C_1  and  C_2
REMARK    2  A    between atoms: C_2  and  C_3
REMARK    3  A    between atoms: C_7  and  C_8
REMARK    4  A    between atoms: C_8  and  O_9
REMARK    5  A    between atoms: C_8  and  C_10
REMARK    6  A    between atoms: C_10  and  N_11
REMARK                            x       y       z     vdW  Elec       q    Type
REMARK                         _______ _______ _______ _____ _____    ______ ____
ROOT
ATOM      1  C   UNL     1       1.394   2.044  18.639  0.00  0.00    +0.000 C 
ATOM      2  C   UNL     1       1.723   3.487  19.079  0.00  0.00    +0.000 C 
ATOM      3  C   UNL     1       1.614   4.365  17.814  0.00  0.00    +0.000 C 
ATOM      4  C   UNL     1       0.847   4.010  20.247  0.00  0.00    +0.000 C 
ATOM      5  C   UNL     1       1.503   5.366  20.600  0.00  0.00    +0.000 C 
ATOM      6  C   UNL     1       3.012   5.107  20.368  0.00  0.00    +0.000 C 
ATOM      7  C   UNL     1       3.054   3.622  19.906  0.00  0.00    +0.000 C 
ATOM      8  C   UNL     1       2.622   2.845  21.173  0.00  0.00    +0.000 C 
ATOM      9  O   UNL     1       3.292   2.179  21.931  0.00  0.00    +0.000 OA
ATOM     10  C   UNL     1       1.145   3.049  21.405  0.00  0.00    +0.000 C 
ENDROOT
BRANCH   7  11
ATOM     11  C   UNL     1       4.321   3.151  19.183  0.00  0.00    +0.000 C 
BRANCH  11  12
ATOM     12  O   UNL     1       4.261   1.711  19.071  0.00  0.00    +0.000 OA
ATOM     13  H   UNL     1       4.361   1.295  19.944  0.00  0.00    +0.000 HD
ENDBRANCH  11  12
BRANCH  11  14
ATOM     14  C   UNL     1       4.566   3.711  17.766  0.00  0.00    +0.000 C 
BRANCH  14  15
ATOM     15  N   UNL     1       5.124   5.046  17.555  0.00  0.00    +0.000 NA
ATOM     16  C   UNL     1       6.573   5.207  17.799  0.00  0.00    +0.000 C 
ATOM     17  C   UNL     1       7.517   4.475  16.840  0.00  0.00    +0.000 C 
ATOM     18  S   UNL     1       7.276   4.968  15.105  0.00  0.00    +0.000 S 
ATOM     19  C   UNL     1       5.467   4.797  15.044  0.00  0.00    +0.000 C 
ATOM     20  C   UNL     1       4.777   5.532  16.207  0.00  0.00    +0.000 C 
ENDBRANCH  14  15
ENDBRANCH  11  14
ENDBRANCH   7  11
TORSDOF 4
ENDMDL
MODEL 7
REMARK VINA RESULT:      -7.2      1.306      2.186
REMARK  Name = 
REMARK  6 active torsions:
REMARK  status: ('A' for Active; 'I' for Inactive)
REMARK    1  A    between atoms: C_1  and  C_2
REMARK    2  A    between atoms: C_2  and  C_3
REMARK    3  A    between atoms: C_7  and  C_8
REMARK    4  A    between atoms: C_8  and  O_9
REMARK    5  A    between atoms: C_8  and  C_10
REMARK    6  A    between atoms: C_10  and  N_11
REMARK                            x       y       z     vdW  Elec       q    Type
REMARK                         _______ _______ _______ _____ _____    ______ ____
ROOT
ATOM      1  C   UNL     1       1.636   1.949  18.562  0.00  0.00    +0.000 C 
ATOM      2  C   UNL     1       1.872   3.403  19.024  0.00  0.00    +0.000 C 
ATOM      3  C   UNL     1       1.865   4.274  17.749  0.00  0.00    +0.000 C 
ATOM      4  C   UNL     1       0.865   3.900  20.095  0.00  0.00    +0.000 C 
ATOM      5  C   UNL     1       1.440   5.278  20.504  0.00  0.00    +0.000 C 
ATOM      6  C   UNL     1       2.972   5.066  20.429  0.00  0.00    +0.000 C 
ATOM      7  C   UNL     1       3.108   3.582  19.981  0.00  0.00    +0.000 C 
ATOM      8  C   UNL     1       2.574   2.795  21.203  0.00  0.00    +0.000 C 
ATOM      9  O   UNL     1       3.183   2.153  22.028  0.00  0.00    +0.000 OA
ATOM     10  C   UNL     1       1.075   2.952  21.282  0.00  0.00    +0.000 C 
ENDROOT
BRANCH   7  11
ATOM     11  C   UNL     1       4.456   3.151  19.394  0.00  0.00    +0.000 C 
BRANCH  11  12
ATOM     12  O   UNL     1       4.506   1.706  19.408  0.00  0.00    +0.000 OA
ATOM     13  H   UNL     1       5.128   1.379  18.736  0.00  0.00    +0.000 HD
ENDBRANCH  11  12
BRANCH  11  14
ATOM     14  C   UNL     1       4.767   3.605  17.953  0.00  0.00    +0.000 C 
BRANCH  14  15
ATOM     15  N   UNL     1       5.966   4.381  17.635  0.00  0.00    +0.000 NA
ATOM     16  C   UNL     1       6.445   4.323  16.238  0.00  0.00    +0.000 C 
ATOM     17  C   UNL     1       5.544   4.962  15.177  0.00  0.00    +0.000 C 
ATOM     18  S   UNL     1       5.230   6.727  15.493  0.00  0.00    +0.000 S 
ATOM     19  C   UNL     1       4.760   6.588  17.244  0.00  0.00    +0.000 C 
ATOM     20  C   UNL     1       5.788   5.782  18.057  0.00  0.00    +0.000 C 
ENDBRANCH  14  15
ENDBRANCH  11  14
ENDBRANCH   7  11
TORSDOF 4
ENDMDL
MODEL 8
REMARK VINA RESULT:      -7.2      1.469      2.511
REMARK  Name = 
REMARK  6 active torsions:
REMARK  status: ('A' for Active; 'I' for Inactive)
REMARK    1  A    between atoms: C_1  and  C_2
REMARK    2  A    between atoms: C_2  and  C_3
REMARK    3  A    between atoms: C_7  and  C_8
REMARK    4  A    between atoms: C_8  and  O_9
REMARK    5  A    between atoms: C_8  and  C_10
REMARK    6  A    between atoms: C_10  and  N_11
REMARK                            x       y       z     vdW  Elec       q    Type
REMARK                         _______ _______ _______ _____ _____    ______ ____
ROOT
ATOM      1  C   UNL     1       2.021   2.005  18.391  0.00  0.00    +0.000 C 
ATOM      2  C   UNL     1       2.031   3.439  18.962  0.00  0.00    +0.000 C 
ATOM      3  C   UNL     1       2.006   4.394  17.749  0.00  0.00    +0.000 C 
ATOM      4  C   UNL     1       0.892   3.727  19.975  0.00  0.00    +0.000 C 
ATOM      5  C   UNL     1       1.251   5.131  20.517  0.00  0.00    +0.000 C 
ATOM      6  C   UNL     1       2.798   5.118  20.556  0.00  0.00    +0.000 C 
ATOM      7  C   UNL     1       3.159   3.700  20.028  0.00  0.00    +0.000 C 
ATOM      8  C   UNL     1       2.643   2.765  21.149  0.00  0.00    +0.000 C 
ATOM      9  O   UNL     1       3.268   2.144  21.979  0.00  0.00    +0.000 OA
ATOM     10  C   UNL     1       1.134   2.727  21.114  0.00  0.00    +0.000 C 
ENDROOT
BRANCH   7  11
ATOM     11  C   UNL     1       4.591   3.484  19.528  0.00  0.00    +0.000 C 
BRANCH  11  12
ATOM     12  O   UNL     1       4.539   2.581  18.401  0.00  0.00    +0.000 OA
ATOM     13  H   UNL     1       5.324   2.008  18.384  0.00  0.00    +0.000 HD
ENDBRANCH  11  12
BRANCH  11  14
ATOM     14  C   UNL     1       5.369   4.738  19.073  0.00  0.00    +0.000 C 
BRANCH  14  15
ATOM     15  N   UNL     1       6.219   4.722  17.883  0.00  0.00    +0.000 NA
ATOM     16  C   UNL     1       5.818   5.605  16.768  0.00  0.00    +0.000 C 
ATOM     17  C   UNL     1       5.907   7.113  17.020  0.00  0.00    +0.000 C 
ATOM     18  S   UNL     1       7.587   7.653  17.464  0.00  0.00    +0.000 S 
ATOM     19  C   UNL     1       7.919   6.409  18.748  0.00  0.00    +0.000 C 
ATOM     20  C   UNL     1       7.621   4.980  18.260  0.00  0.00    +0.000 C 
ENDBRANCH  14  15
ENDBRANCH  11  14
ENDBRANCH   7  11
TORSDOF 4
ENDMDL
MODEL 9
REMARK VINA RESULT:      -7.0      1.285      2.243
REMARK  Name = 
REMARK  6 active torsions:
REMARK  status: ('A' for Active; 'I' for Inactive)
REMARK    1  A    between atoms: C_1  and  C_2
REMARK    2  A    between atoms: C_2  and  C_3
REMARK    3  A    between atoms: C_7  and  C_8
REMARK    4  A    between atoms: C_8  and  O_9
REMARK    5  A    between atoms: C_8  and  C_10
REMARK    6  A    between atoms: C_10  and  N_11
REMARK                            x       y       z     vdW  Elec       q    Type
REMARK                         _______ _______ _______ _____ _____    ______ ____
ROOT
ATOM      1  C   UNL     1       1.715   1.976  18.372  0.00  0.00    +0.000 C 
ATOM      2  C   UNL     1       1.778   3.422  18.910  0.00  0.00    +0.000 C 
ATOM      3  C   UNL     1       1.455   4.348  17.718  0.00  0.00    +0.000 C 
ATOM      4  C   UNL     1       0.864   3.683  20.136  0.00  0.00    +0.000 C 
ATOM      5  C   UNL     1       1.262   5.113  20.574  0.00  0.00    +0.000 C 
ATOM      6  C   UNL     1       2.782   5.167  20.286  0.00  0.00    +0.000 C 
ATOM      7  C   UNL     1       3.090   3.755  19.712  0.00  0.00    +0.000 C 
ATOM      8  C   UNL     1       2.864   2.823  20.928  0.00  0.00    +0.000 C 
ATOM      9  O   UNL     1       3.677   2.248  21.616  0.00  0.00    +0.000 OA
ATOM     10  C   UNL     1       1.385   2.720  21.211  0.00  0.00    +0.000 C 
ENDROOT
BRANCH   7  11
ATOM     11  C   UNL     1       4.395   3.589  18.926  0.00  0.00    +0.000 C 
BRANCH  11  12
ATOM     12  O   UNL     1       5.039   2.378  19.381  0.00  0.00    +0.000 OA
ATOM     13  H   UNL     1       5.284   2.453  20.319  0.00  0.00    +0.000 HD
ENDBRANCH  11  12
BRANCH  11  14
ATOM     14  C   UNL     1       4.277   3.494  17.390  0.00  0.00    +0.000 C 
BRANCH  14  15
ATOM     15  N   UNL     1       4.618   4.622  16.524  0.00  0.00    +0.000 NA
ATOM     16  C   UNL     1       4.595   5.965  17.141  0.00  0.00    +0.000 C 
ATOM     17  C   UNL     1       5.655   6.247  18.211  0.00  0.00    +0.000 C 
ATOM     18  S   UNL     1       7.353   6.046  17.588  0.00  0.00    +0.000 S 
ATOM     19  C   UNL     1       7.141   4.420  16.802  0.00  0.00    +0.000 C 
ATOM     20  C   UNL     1       5.917   4.384  15.869  0.00  0.00    +0.000 C 
ENDBRANCH  14  15
ENDBRANCH  11  14
ENDBRANCH   7  11
TORSDOF 4
ENDMDL
