MODEL 1
REMARK VINA RESULT:      -8.3      0.000      0.000
REMARK  Name = 
REMARK  15 active torsions:
REMARK  status: ('A' for Active; 'I' for Inactive)
REMARK    1  A    between atoms: C_1  and  C_2
REMARK    2  A    between atoms: C_2  and  C_3
REMARK    3  A    between atoms: C_4  and  C_5
REMARK    4  A    between atoms: C_5  and  C_6
REMARK    5  A    between atoms: C_6  and  C_7
REMARK    6  A    between atoms: C_6  and  C_8
REMARK    7  A    between atoms: C_8  and  O_9
REMARK    8  A    between atoms: C_8  and  C_10
REMARK    9  A    between atoms: C_11  and  C_12
REMARK   10  A    between atoms: N_19  and  C_20
REMARK   11  A    between atoms: C_20  and  C_21
REMARK   12  A    between atoms: C_21  and  C_22
REMARK   13  A    between atoms: C_22  and  C_23
REMARK   14  A    between atoms: C_26  and  C_27
REMARK   15  A    between atoms: C_27  and  O_29
REMARK                            x       y       z     vdW  Elec       q    Type
REMARK                         _______ _______ _______ _____ _____    ______ ____
ROOT
ATOM      1  C   UNL     1       2.173   4.882  18.473  0.00  0.00    +0.000 C 
ATOM      2  C   UNL     1       1.360   3.802  17.769  0.00  0.00    +0.000 C 
ATOM      3  C   UNL     1       1.265   2.672  18.784  0.00  0.00    +0.000 C 
ATOM      4  F   UNL     1       0.048   2.074  18.662  0.00  0.00    +0.000 F 
ATOM      5  F   UNL     1       2.201   1.725  18.516  0.00  0.00    +0.000 F 
ATOM      6  C   UNL     1       1.462   3.365  20.129  0.00  0.00    +0.000 C 
ATOM      7  O   UNL     1       1.246   2.898  21.238  0.00  0.00    +0.000 OA
ATOM      8  N   UNL     1       1.885   4.671  19.875  0.00  0.00    +0.000 N 
ENDROOT
BRANCH   1  10
ATOM      9  C   UNL     1       4.566   5.664  18.165  0.00  0.00    +0.000 C 
ATOM     10  C   UNL     1       3.645   4.685  18.239  0.00  0.00    +0.000 C 
BRANCH   9  11
ATOM     11  C   UNL     1       6.048   5.461  17.930  0.00  0.00    +0.000 C 
BRANCH  11  12
ATOM     12  C   UNL     1       6.540   5.688  16.468  0.00  0.00    +0.000 C 
ATOM     13  C   UNL     1       5.389   6.272  15.618  0.00  0.00    +0.000 C 
BRANCH  12  14
ATOM     14  C   UNL     1       7.106   4.414  15.775  0.00  0.00    +0.000 C 
BRANCH  14  16
ATOM     15  C   UNL     1       5.905   3.728  13.537  0.00  0.00    +0.000 C 
ATOM     16  C   UNL     1       6.249   4.077  14.635  0.00  0.00    +0.000 C 
BRANCH  15  18
ATOM     17  C   UNL     1       4.514   3.242  11.564  0.00  0.00    +0.000 C 
ATOM     18  C   UNL     1       5.907   3.271  12.151  0.00  0.00    +0.000 C 
ENDBRANCH  15  18
ENDBRANCH  14  16
ENDBRANCH  12  14
ENDBRANCH  11  12
BRANCH  11  19
ATOM     19  O   UNL     1       6.420   4.146  18.346  0.00  0.00    +0.000 OA
ATOM     20  H   UNL     1       7.181   3.876  17.805  0.00  0.00    +0.000 HD
ENDBRANCH  11  19
ENDBRANCH   9  11
ENDBRANCH   1  10
BRANCH   8  21
ATOM     21  C   UNL     1       1.715   5.742  20.843  0.00  0.00    +0.000 C 
BRANCH  21  22
ATOM     22  C   UNL     1       1.964   7.134  20.277  0.00  0.00    +0.000 C 
BRANCH  22  23
ATOM     23  C   UNL     1       1.172   8.187  21.062  0.00  0.00    +0.000 C 
BRANCH  23  24
ATOM     24  C   UNL     1       0.807   9.350  20.188  0.00  0.00    +0.000 A 
ATOM     25  C   UNL     1       1.277   9.648  18.926  0.00  0.00    +0.000 A 
ATOM     26  C   UNL     1       0.756  10.881  18.438  0.00  0.00    +0.000 A 
ATOM     27  C   UNL     1      -0.112  11.482  19.330  0.00  0.00    +0.000 A 
ATOM     28  S   UNL     1      -0.307  10.526  20.737  0.00  0.00    +0.000 S 
BRANCH  27  29
ATOM     29  C   UNL     1      -0.792  12.754  19.152  0.00  0.00    +0.000 C 
ATOM     30  O   UNL     1      -0.244  13.844  19.103  0.00  0.00    +0.000 OA
BRANCH  29  31
ATOM     31  O   UNL     1      -2.142  12.631  19.042  0.00  0.00    +0.000 OA
ATOM     32  H   UNL     1      -2.462  11.813  19.472  0.00  0.00    +0.000 HD
ENDBRANCH  29  31
ENDBRANCH  27  29
ENDBRANCH  23  24
ENDBRANCH  22  23
ENDBRANCH  21  22
ENDBRANCH   8  21
TORSDOF 13
ENDMDL
MODEL 2
REMARK VINA RESULT:      -8.0      2.280      3.711
REMARK  Name = 
REMARK  15 active torsions:
REMARK  status: ('A' for Active; 'I' for Inactive)
REMARK    1  A    between atoms: C_1  and  C_2
REMARK    2  A    between atoms: C_2  and  C_3
REMARK    3  A    between atoms: C_4  and  C_5
REMARK    4  A    between atoms: C_5  and  C_6
REMARK    5  A    between atoms: C_6  and  C_7
REMARK    6  A    between atoms: C_6  and  C_8
REMARK    7  A    between atoms: C_8  and  O_9
REMARK    8  A    between atoms: C_8  and  C_10
REMARK    9  A    between atoms: C_11  and  C_12
REMARK   10  A    between atoms: N_19  and  C_20
REMARK   11  A    between atoms: C_20  and  C_21
REMARK   12  A    between atoms: C_21  and  C_22
REMARK   13  A    between atoms: C_22  and  C_23
REMARK   14  A    between atoms: C_26  and  C_27
REMARK   15  A    between atoms: C_27  and  O_29
REMARK                            x       y       z     vdW  Elec       q    Type
REMARK                         _______ _______ _______ _____ _____    ______ ____
ROOT
ATOM      1  C   UNL     1       2.378   5.198  18.030  0.00  0.00    +0.000 C 
ATOM      2  C   UNL     1       1.448   3.991  17.990  0.00  0.00    +0.000 C 
ATOM      3  C   UNL     1       1.612   3.337  19.355  0.00  0.00    +0.000 C 
ATOM      4  F   UNL     1       0.413   2.822  19.741  0.00  0.00    +0.000 F 
ATOM      5  F   UNL     1       2.481   2.297  19.273  0.00  0.00    +0.000 F 
ATOM      6  C   UNL     1       2.096   4.471  20.253  0.00  0.00    +0.000 C 
ATOM      7  O   UNL     1       2.150   4.473  21.475  0.00  0.00    +0.000 OA
ATOM      8  N   UNL     1       2.423   5.552  19.432  0.00  0.00    +0.000 N 
ENDROOT
BRANCH   1  10
ATOM      9  C   UNL     1       4.877   4.879  18.325  0.00  0.00    +0.000 C 
ATOM     10  C   UNL     1       3.761   4.827  17.574  0.00  0.00    +0.000 C 
BRANCH   9  11
ATOM     11  C   UNL     1       6.268   4.504  17.860  0.00  0.00    +0.000 C 
BRANCH  11  12
ATOM     12  C   UNL     1       7.314   5.661  17.849  0.00  0.00    +0.000 C 
ATOM     13  C   UNL     1       7.989   5.763  19.235  0.00  0.00    +0.000 C 
BRANCH  12  14
ATOM     14  C   UNL     1       6.733   7.048  17.447  0.00  0.00    +0.000 C 
BRANCH  14  16
ATOM     15  C   UNL     1       8.365   9.074  17.842  0.00  0.00    +0.000 C 
ATOM     16  C   UNL     1       7.794   8.053  17.563  0.00  0.00    +0.000 C 
BRANCH  15  18
ATOM     17  C   UNL     1       9.430  10.365  19.649  0.00  0.00    +0.000 C 
ATOM     18  C   UNL     1       8.677  10.410  18.338  0.00  0.00    +0.000 C 
ENDBRANCH  15  18
ENDBRANCH  14  16
ENDBRANCH  12  14
ENDBRANCH  11  12
BRANCH  11  19
ATOM     19  O   UNL     1       6.196   3.931  16.554  0.00  0.00    +0.000 OA
ATOM     20  H   UNL     1       5.760   4.580  15.977  0.00  0.00    +0.000 HD
ENDBRANCH  11  19
ENDBRANCH   9  11
ENDBRANCH   1  10
BRANCH   8  21
ATOM     21  C   UNL     1       2.456   6.918  19.928  0.00  0.00    +0.000 C 
BRANCH  21  22
ATOM     22  C   UNL     1       1.160   7.369  20.588  0.00  0.00    +0.000 C 
BRANCH  22  23
ATOM     23  C   UNL     1       1.345   8.731  21.269  0.00  0.00    +0.000 C 
BRANCH  23  24
ATOM     24  C   UNL     1       0.448   9.766  20.657  0.00  0.00    +0.000 A 
ATOM     25  C   UNL     1      -0.401  10.644  21.297  0.00  0.00    +0.000 A 
ATOM     26  C   UNL     1      -1.151  11.431  20.377  0.00  0.00    +0.000 A 
ATOM     27  C   UNL     1      -0.843  11.148  19.059  0.00  0.00    +0.000 A 
ATOM     28  S   UNL     1       0.377   9.950  18.958  0.00  0.00    +0.000 S 
BRANCH  27  29
ATOM     29  C   UNL     1      -1.444  11.749  17.881  0.00  0.00    +0.000 C 
ATOM     30  O   UNL     1      -2.268  11.211  17.159  0.00  0.00    +0.000 OA
BRANCH  29  31
ATOM     31  O   UNL     1      -0.996  13.010  17.634  0.00  0.00    +0.000 OA
ATOM     32  H   UNL     1      -0.432  13.336  18.362  0.00  0.00    +0.000 HD
ENDBRANCH  29  31
ENDBRANCH  27  29
ENDBRANCH  23  24
ENDBRANCH  22  23
ENDBRANCH  21  22
ENDBRANCH   8  21
TORSDOF 13
ENDMDL
MODEL 3
REMARK VINA RESULT:      -7.9      2.107      2.623
REMARK  Name = 
REMARK  15 active torsions:
REMARK  status: ('A' for Active; 'I' for Inactive)
REMARK    1  A    between atoms: C_1  and  C_2
REMARK    2  A    between atoms: C_2  and  C_3
REMARK    3  A    between atoms: C_4  and  C_5
REMARK    4  A    between atoms: C_5  and  C_6
REMARK    5  A    between atoms: C_6  and  C_7
REMARK    6  A    between atoms: C_6  and  C_8
REMARK    7  A    between atoms: C_8  and  O_9
REMARK    8  A    between atoms: C_8  and  C_10
REMARK    9  A    between atoms: C_11  and  C_12
REMARK   10  A    between atoms: N_19  and  C_20
REMARK   11  A    between atoms: C_20  and  C_21
REMARK   12  A    between atoms: C_21  and  C_22
REMARK   13  A    between atoms: C_22  and  C_23
REMARK   14  A    between atoms: C_26  and  C_27
REMARK   15  A    between atoms: C_27  and  O_29
REMARK                            x       y       z     vdW  Elec       q    Type
REMARK                         _______ _______ _______ _____ _____    ______ ____
ROOT
ATOM      1  C   UNL     1       3.112   3.704  18.058  0.00  0.00    +0.000 C 
ATOM      2  C   UNL     1       2.764   2.407  18.779  0.00  0.00    +0.000 C 
ATOM      3  C   UNL     1       2.726   2.788  20.253  0.00  0.00    +0.000 C 
ATOM      4  F   UNL     1       1.751   2.064  20.868  0.00  0.00    +0.000 F 
ATOM      5  F   UNL     1       3.900   2.459  20.850  0.00  0.00    +0.000 F 
ATOM      6  C   UNL     1       2.443   4.287  20.240  0.00  0.00    +0.000 C 
ATOM      7  O   UNL     1       2.108   4.983  21.188  0.00  0.00    +0.000 OA
ATOM      8  N   UNL     1       2.580   4.733  18.924  0.00  0.00    +0.000 N 
ENDROOT
BRANCH   1  10
ATOM      9  C   UNL     1       5.319   4.873  18.496  0.00  0.00    +0.000 C 
ATOM     10  C   UNL     1       4.601   3.876  17.947  0.00  0.00    +0.000 C 
BRANCH   9  11
ATOM     11  C   UNL     1       6.819   5.042  18.383  0.00  0.00    +0.000 C 
BRANCH  11  12
ATOM     12  C   UNL     1       7.302   6.235  17.502  0.00  0.00    +0.000 C 
ATOM     13  C   UNL     1       8.022   7.276  18.389  0.00  0.00    +0.000 C 
BRANCH  12  14
ATOM     14  C   UNL     1       6.172   6.933  16.690  0.00  0.00    +0.000 C 
BRANCH  14  16
ATOM     15  C   UNL     1       5.762   5.192  14.761  0.00  0.00    +0.000 C 
ATOM     16  C   UNL     1       5.896   6.138  15.490  0.00  0.00    +0.000 C 
BRANCH  15  18
ATOM     17  C   UNL     1       6.375   3.742  12.867  0.00  0.00    +0.000 C 
ATOM     18  C   UNL     1       5.720   3.834  14.226  0.00  0.00    +0.000 C 
ENDBRANCH  15  18
ENDBRANCH  14  16
ENDBRANCH  12  14
ENDBRANCH  11  12
BRANCH  11  19
ATOM     19  O   UNL     1       7.398   3.835  17.886  0.00  0.00    +0.000 OA
ATOM     20  H   UNL     1       8.119   3.590  18.490  0.00  0.00    +0.000 HD
ENDBRANCH  11  19
ENDBRANCH   9  11
ENDBRANCH   1  10
BRANCH   8  21
ATOM     21  C   UNL     1       1.943   5.950  18.449  0.00  0.00    +0.000 C 
BRANCH  21  22
ATOM     22  C   UNL     1       2.680   7.226  18.834  0.00  0.00    +0.000 C 
BRANCH  22  23
ATOM     23  C   UNL     1       1.966   8.458  18.262  0.00  0.00    +0.000 C 
BRANCH  23  24
ATOM     24  C   UNL     1       1.153   9.148  19.316  0.00  0.00    +0.000 A 
ATOM     25  C   UNL     1       0.336  10.251  19.177  0.00  0.00    +0.000 A 
ATOM     26  C   UNL     1      -0.217  10.668  20.422  0.00  0.00    +0.000 A 
ATOM     27  C   UNL     1       0.176   9.863  21.475  0.00  0.00    +0.000 A 
ATOM     28  S   UNL     1       1.188   8.592  20.934  0.00  0.00    +0.000 S 
BRANCH  27  29
ATOM     29  C   UNL     1      -0.185  10.029  22.873  0.00  0.00    +0.000 C 
ATOM     30  O   UNL     1       0.462   9.615  23.821  0.00  0.00    +0.000 OA
BRANCH  29  31
ATOM     31  O   UNL     1      -1.350  10.710  23.049  0.00  0.00    +0.000 OA
ATOM     32  H   UNL     1      -1.582  11.232  22.256  0.00  0.00    +0.000 HD
ENDBRANCH  29  31
ENDBRANCH  27  29
ENDBRANCH  23  24
ENDBRANCH  22  23
ENDBRANCH  21  22
ENDBRANCH   8  21
TORSDOF 13
ENDMDL
MODEL 4
REMARK VINA RESULT:      -7.9      2.699      4.103
REMARK  Name = 
REMARK  15 active torsions:
REMARK  status: ('A' for Active; 'I' for Inactive)
REMARK    1  A    between atoms: C_1  and  C_2
REMARK    2  A    between atoms: C_2  and  C_3
REMARK    3  A    between atoms: C_4  and  C_5
REMARK    4  A    between atoms: C_5  and  C_6
REMARK    5  A    between atoms: C_6  and  C_7
REMARK    6  A    between atoms: C_6  and  C_8
REMARK    7  A    between atoms: C_8  and  O_9
REMARK    8  A    between atoms: C_8  and  C_10
REMARK    9  A    between atoms: C_11  and  C_12
REMARK   10  A    between atoms: N_19  and  C_20
REMARK   11  A    between atoms: C_20  and  C_21
REMARK   12  A    between atoms: C_21  and  C_22
REMARK   13  A    between atoms: C_22  and  C_23
REMARK   14  A    between atoms: C_26  and  C_27
REMARK   15  A    between atoms: C_27  and  O_29
REMARK                            x       y       z     vdW  Elec       q    Type
REMARK                         _______ _______ _______ _____ _____    ______ ____
ROOT
ATOM      1  C   UNL     1       3.291   4.154  17.609  0.00  0.00    +0.000 C 
ATOM      2  C   UNL     1       2.764   2.728  17.492  0.00  0.00    +0.000 C 
ATOM      3  C   UNL     1       2.862   2.167  18.904  0.00  0.00    +0.000 C 
ATOM      4  F   UNL     1       1.809   1.331  19.117  0.00  0.00    +0.000 F 
ATOM      5  F   UNL     1       3.990   1.423  19.032  0.00  0.00    +0.000 F 
ATOM      6  C   UNL     1       2.837   3.404  19.796  0.00  0.00    +0.000 C 
ATOM      7  O   UNL     1       2.671   3.437  21.007  0.00  0.00    +0.000 OA
ATOM      8  N   UNL     1       2.984   4.523  18.974  0.00  0.00    +0.000 N 
ENDROOT
BRANCH   1  10
ATOM      9  C   UNL     1       5.486   5.254  16.975  0.00  0.00    +0.000 C 
ATOM     10  C   UNL     1       4.781   4.195  17.413  0.00  0.00    +0.000 C 
BRANCH   9  11
ATOM     11  C   UNL     1       6.987   5.290  16.779  0.00  0.00    +0.000 C 
BRANCH  11  12
ATOM     12  C   UNL     1       7.753   6.360  17.616  0.00  0.00    +0.000 C 
ATOM     13  C   UNL     1       7.743   5.957  19.107  0.00  0.00    +0.000 C 
BRANCH  12  14
ATOM     14  C   UNL     1       7.206   7.809  17.463  0.00  0.00    +0.000 C 
BRANCH  14  16
ATOM     15  C   UNL     1       8.759   9.771  18.273  0.00  0.00    +0.000 C 
ATOM     16  C   UNL     1       8.189   8.745  18.015  0.00  0.00    +0.000 C 
BRANCH  15  18
ATOM     17  C   UNL     1      10.643  11.353  18.400  0.00  0.00    +0.000 C 
ATOM     18  C   UNL     1       9.142  11.178  18.346  0.00  0.00    +0.000 C 
ENDBRANCH  15  18
ENDBRANCH  14  16
ENDBRANCH  12  14
ENDBRANCH  11  12
BRANCH  11  19
ATOM     19  O   UNL     1       7.283   5.485  15.396  0.00  0.00    +0.000 OA
ATOM     20  H   UNL     1       6.892   4.740  14.909  0.00  0.00    +0.000 HD
ENDBRANCH  11  19
ENDBRANCH   9  11
ENDBRANCH   1  10
BRANCH   8  21
ATOM     21  C   UNL     1       2.540   5.846  19.381  0.00  0.00    +0.000 C 
BRANCH  21  22
ATOM     22  C   UNL     1       1.956   6.679  18.249  0.00  0.00    +0.000 C 
BRANCH  22  23
ATOM     23  C   UNL     1       2.772   7.962  18.043  0.00  0.00    +0.000 C 
BRANCH  23  24
ATOM     24  C   UNL     1       2.013   9.166  18.516  0.00  0.00    +0.000 A 
ATOM     25  C   UNL     1       1.915  10.403  17.915  0.00  0.00    +0.000 A 
ATOM     26  C   UNL     1       1.163  11.323  18.701  0.00  0.00    +0.000 A 
ATOM     27  C   UNL     1       0.691  10.761  19.872  0.00  0.00    +0.000 A 
ATOM     28  S   UNL     1       1.140   9.112  19.987  0.00  0.00    +0.000 S 
BRANCH  27  29
ATOM     29  C   UNL     1      -0.083  11.431  20.903  0.00  0.00    +0.000 C 
ATOM     30  O   UNL     1      -1.290  11.330  21.054  0.00  0.00    +0.000 OA
BRANCH  29  31
ATOM     31  O   UNL     1       0.674  12.212  21.720  0.00  0.00    +0.000 OA
ATOM     32  H   UNL     1       0.240  12.349  22.585  0.00  0.00    +0.000 HD
ENDBRANCH  29  31
ENDBRANCH  27  29
ENDBRANCH  23  24
ENDBRANCH  22  23
ENDBRANCH  21  22
ENDBRANCH   8  21
TORSDOF 13
ENDMDL
MODEL 5
REMARK VINA RESULT:      -7.9      2.218      3.697
REMARK  Name = 
REMARK  15 active torsions:
REMARK  status: ('A' for Active; 'I' for Inactive)
REMARK    1  A    between atoms: C_1  and  C_2
REMARK    2  A    between atoms: C_2  and  C_3
REMARK    3  A    between atoms: C_4  and  C_5
REMARK    4  A    between atoms: C_5  and  C_6
REMARK    5  A    between atoms: C_6  and  C_7
REMARK    6  A    between atoms: C_6  and  C_8
REMARK    7  A    between atoms: C_8  and  O_9
REMARK    8  A    between atoms: C_8  and  C_10
REMARK    9  A    between atoms: C_11  and  C_12
REMARK   10  A    between atoms: N_19  and  C_20
REMARK   11  A    between atoms: C_20  and  C_21
REMARK   12  A    between atoms: C_21  and  C_22
REMARK   13  A    between atoms: C_22  and  C_23
REMARK   14  A    between atoms: C_26  and  C_27
REMARK   15  A    between atoms: C_27  and  O_29
REMARK                            x       y       z     vdW  Elec       q    Type
REMARK                         _______ _______ _______ _____ _____    ______ ____
ROOT
ATOM      1  C   UNL     1       2.248   5.422  18.441  0.00  0.00    +0.000 C 
ATOM      2  C   UNL     1       1.488   4.354  17.664  0.00  0.00    +0.000 C 
ATOM      3  C   UNL     1       1.470   3.147  18.591  0.00  0.00    +0.000 C 
ATOM      4  F   UNL     1       0.288   2.491  18.434  0.00  0.00    +0.000 F 
ATOM      5  F   UNL     1       2.454   2.278  18.244  0.00  0.00    +0.000 F 
ATOM      6  C   UNL     1       1.644   3.747  19.983  0.00  0.00    +0.000 C 
ATOM      7  O   UNL     1       1.470   3.185  21.056  0.00  0.00    +0.000 OA
ATOM      8  N   UNL     1       1.991   5.090  19.825  0.00  0.00    +0.000 N 
ENDROOT
BRANCH   1  10
ATOM      9  C   UNL     1       4.683   5.218  19.121  0.00  0.00    +0.000 C 
ATOM     10  C   UNL     1       3.726   5.328  18.181  0.00  0.00    +0.000 C 
BRANCH   9  11
ATOM     11  C   UNL     1       6.171   5.123  18.854  0.00  0.00    +0.000 C 
BRANCH  11  12
ATOM     12  C   UNL     1       6.774   6.255  17.968  0.00  0.00    +0.000 C 
ATOM     13  C   UNL     1       7.076   5.703  16.556  0.00  0.00    +0.000 C 
BRANCH  12  14
ATOM     14  C   UNL     1       8.054   6.917  18.555  0.00  0.00    +0.000 C 
BRANCH  14  16
ATOM     15  C   UNL     1       8.404   9.453  17.946  0.00  0.00    +0.000 C 
ATOM     16  C   UNL     1       8.171   8.276  18.016  0.00  0.00    +0.000 C 
BRANCH  15  18
ATOM     17  C   UNL     1       9.843  10.867  19.358  0.00  0.00    +0.000 C 
ATOM     18  C   UNL     1       8.801  10.821  18.264  0.00  0.00    +0.000 C 
ENDBRANCH  15  18
ENDBRANCH  14  16
ENDBRANCH  12  14
ENDBRANCH  11  12
BRANCH  11  19
ATOM     19  O   UNL     1       6.468   3.860  18.258  0.00  0.00    +0.000 OA
ATOM     20  H   UNL     1       7.048   4.028  17.497  0.00  0.00    +0.000 HD
ENDBRANCH  11  19
ENDBRANCH   9  11
ENDBRANCH   1  10
BRANCH   8  21
ATOM     21  C   UNL     1       1.773   6.073  20.874  0.00  0.00    +0.000 C 
BRANCH  21  22
ATOM     22  C   UNL     1       1.574   7.493  20.360  0.00  0.00    +0.000 C 
BRANCH  22  23
ATOM     23  C   UNL     1       0.890   8.363  21.422  0.00  0.00    +0.000 C 
BRANCH  23  24
ATOM     24  C   UNL     1       0.713   9.770  20.935  0.00  0.00    +0.000 A 
ATOM     25  C   UNL     1       0.336  10.882  21.659  0.00  0.00    +0.000 A 
ATOM     26  C   UNL     1       0.203  12.037  20.837  0.00  0.00    +0.000 A 
ATOM     27  C   UNL     1       0.499  11.783  19.510  0.00  0.00    +0.000 A 
ATOM     28  S   UNL     1       0.966  10.151  19.286  0.00  0.00    +0.000 S 
BRANCH  27  29
ATOM     29  C   UNL     1       0.436  12.732  18.412  0.00  0.00    +0.000 C 
ATOM     30  O   UNL     1      -0.573  13.311  18.040  0.00  0.00    +0.000 OA
BRANCH  29  31
ATOM     31  O   UNL     1       1.637  12.932  17.805  0.00  0.00    +0.000 OA
ATOM     32  H   UNL     1       2.339  12.392  18.218  0.00  0.00    +0.000 HD
ENDBRANCH  29  31
ENDBRANCH  27  29
ENDBRANCH  23  24
ENDBRANCH  22  23
ENDBRANCH  21  22
ENDBRANCH   8  21
TORSDOF 13
ENDMDL
MODEL 6
REMARK VINA RESULT:      -7.7      0.858      1.117
REMARK  Name = 
REMARK  15 active torsions:
REMARK  status: ('A' for Active; 'I' for Inactive)
REMARK    1  A    between atoms: C_1  and  C_2
REMARK    2  A    between atoms: C_2  and  C_3
REMARK    3  A    between atoms: C_4  and  C_5
REMARK    4  A    between atoms: C_5  and  C_6
REMARK    5  A    between atoms: C_6  and  C_7
REMARK    6  A    between atoms: C_6  and  C_8
REMARK    7  A    between atoms: C_8  and  O_9
REMARK    8  A    between atoms: C_8  and  C_10
REMARK    9  A    between atoms: C_11  and  C_12
REMARK   10  A    between atoms: N_19  and  C_20
REMARK   11  A    between atoms: C_20  and  C_21
REMARK   12  A    between atoms: C_21  and  C_22
REMARK   13  A    between atoms: C_22  and  C_23
REMARK   14  A    between atoms: C_26  and  C_27
REMARK   15  A    between atoms: C_27  and  O_29
REMARK                            x       y       z     vdW  Elec       q    Type
REMARK                         _______ _______ _______ _____ _____    ______ ____
ROOT
ATOM      1  C   UNL     1       2.296   5.041  18.649  0.00  0.00    +0.000 C 
ATOM      2  C   UNL     1       1.584   3.955  17.850  0.00  0.00    +0.000 C 
ATOM      3  C   UNL     1       1.328   2.845  18.859  0.00  0.00    +0.000 C 
ATOM      4  F   UNL     1       0.137   2.254  18.567  0.00  0.00    +0.000 F 
ATOM      5  F   UNL     1       2.283   1.885  18.750  0.00  0.00    +0.000 F 
ATOM      6  C   UNL     1       1.330   3.560  20.206  0.00  0.00    +0.000 C 
ATOM      7  O   UNL     1       0.947   3.115  21.279  0.00  0.00    +0.000 OA
ATOM      8  N   UNL     1       1.800   4.858  19.996  0.00  0.00    +0.000 N 
ENDROOT
BRANCH   1  10
ATOM      9  C   UNL     1       4.710   5.769  18.378  0.00  0.00    +0.000 C 
ATOM     10  C   UNL     1       3.784   4.828  18.641  0.00  0.00    +0.000 C 
BRANCH   9  11
ATOM     11  C   UNL     1       6.208   5.550  18.371  0.00  0.00    +0.000 C 
BRANCH  11  12
ATOM     12  C   UNL     1       6.963   6.068  17.109  0.00  0.00    +0.000 C 
ATOM     13  C   UNL     1       7.631   7.426  17.425  0.00  0.00    +0.000 C 
BRANCH  12  14
ATOM     14  C   UNL     1       6.073   6.207  15.839  0.00  0.00    +0.000 C 
BRANCH  14  16
ATOM     15  C   UNL     1       5.994   4.136  14.219  0.00  0.00    +0.000 C 
ATOM     16  C   UNL     1       6.088   4.934  15.113  0.00  0.00    +0.000 C 
BRANCH  15  18
ATOM     17  C   UNL     1       6.928   3.753  11.972  0.00  0.00    +0.000 C 
ATOM     18  C   UNL     1       5.771   3.515  12.917  0.00  0.00    +0.000 C 
ENDBRANCH  15  18
ENDBRANCH  14  16
ENDBRANCH  12  14
ENDBRANCH  11  12
BRANCH  11  19
ATOM     19  O   UNL     1       6.487   4.160  18.540  0.00  0.00    +0.000 OA
ATOM     20  H   UNL     1       6.100   3.888  19.389  0.00  0.00    +0.000 HD
ENDBRANCH  11  19
ENDBRANCH   9  11
ENDBRANCH   1  10
BRANCH   8  21
ATOM     21  C   UNL     1       1.499   5.948  20.910  0.00  0.00    +0.000 C 
BRANCH  21  22
ATOM     22  C   UNL     1       1.715   7.333  20.315  0.00  0.00    +0.000 C 
BRANCH  22  23
ATOM     23  C   UNL     1       1.194   8.418  21.265  0.00  0.00    +0.000 C 
BRANCH  23  24
ATOM     24  C   UNL     1       0.544   9.535  20.504  0.00  0.00    +0.000 A 
ATOM     25  C   UNL     1      -0.227   9.454  19.363  0.00  0.00    +0.000 A 
ATOM     26  C   UNL     1      -0.612  10.739  18.884  0.00  0.00    +0.000 A 
ATOM     27  C   UNL     1      -0.141  11.767  19.680  0.00  0.00    +0.000 A 
ATOM     28  S   UNL     1       0.736  11.156  21.018  0.00  0.00    +0.000 S 
BRANCH  27  29
ATOM     29  C   UNL     1      -0.330  13.190  19.458  0.00  0.00    +0.000 C 
ATOM     30  O   UNL     1      -0.041  13.787  18.433  0.00  0.00    +0.000 OA
BRANCH  29  31
ATOM     31  O   UNL     1      -0.876  13.833  20.526  0.00  0.00    +0.000 OA
ATOM     32  H   UNL     1      -0.696  14.793  20.494  0.00  0.00    +0.000 HD
ENDBRANCH  29  31
ENDBRANCH  27  29
ENDBRANCH  23  24
ENDBRANCH  22  23
ENDBRANCH  21  22
ENDBRANCH   8  21
TORSDOF 13
ENDMDL
MODEL 7
REMARK VINA RESULT:      -7.7      1.410      1.767
REMARK  Name = 
REMARK  15 active torsions:
REMARK  status: ('A' for Active; 'I' for Inactive)
REMARK    1  A    between atoms: C_1  and  C_2
REMARK    2  A    between atoms: C_2  and  C_3
REMARK    3  A    between atoms: C_4  and  C_5
REMARK    4  A    between atoms: C_5  and  C_6
REMARK    5  A    between atoms: C_6  and  C_7
REMARK    6  A    between atoms: C_6  and  C_8
REMARK    7  A    between atoms: C_8  and  O_9
REMARK    8  A    between atoms: C_8  and  C_10
REMARK    9  A    between atoms: C_11  and  C_12
REMARK   10  A    between atoms: N_19  and  C_20
REMARK   11  A    between atoms: C_20  and  C_21
REMARK   12  A    between atoms: C_21  and  C_22
REMARK   13  A    between atoms: C_22  and  C_23
REMARK   14  A    between atoms: C_26  and  C_27
REMARK   15  A    between atoms: C_27  and  O_29
REMARK                            x       y       z     vdW  Elec       q    Type
REMARK                         _______ _______ _______ _____ _____    ______ ____
ROOT
ATOM      1  C   UNL     1       2.291   4.953  18.642  0.00  0.00    +0.000 C 
ATOM      2  C   UNL     1       1.463   3.944  17.855  0.00  0.00    +0.000 C 
ATOM      3  C   UNL     1       1.306   2.761  18.801  0.00  0.00    +0.000 C 
ATOM      4  F   UNL     1       0.074   2.211  18.613  0.00  0.00    +0.000 F 
ATOM      5  F   UNL     1       2.218   1.800  18.501  0.00  0.00    +0.000 F 
ATOM      6  C   UNL     1       1.488   3.368  20.188  0.00  0.00    +0.000 C 
ATOM      7  O   UNL     1       1.229   2.845  21.262  0.00  0.00    +0.000 OA
ATOM      8  N   UNL     1       1.960   4.671  20.021  0.00  0.00    +0.000 N 
ENDROOT
BRANCH   1  10
ATOM      9  C   UNL     1       4.722   5.663  18.498  0.00  0.00    +0.000 C 
ATOM     10  C   UNL     1       3.762   4.722  18.433  0.00  0.00    +0.000 C 
BRANCH   9  11
ATOM     11  C   UNL     1       6.203   5.424  18.288  0.00  0.00    +0.000 C 
BRANCH  11  12
ATOM     12  C   UNL     1       6.753   5.785  16.875  0.00  0.00    +0.000 C 
ATOM     13  C   UNL     1       5.692   6.596  16.097  0.00  0.00    +0.000 C 
BRANCH  12  14
ATOM     14  C   UNL     1       7.200   4.559  16.027  0.00  0.00    +0.000 C 
BRANCH  14  16
ATOM     15  C   UNL     1       5.746   4.010  13.904  0.00  0.00    +0.000 C 
ATOM     16  C   UNL     1       6.223   4.347  14.955  0.00  0.00    +0.000 C 
BRANCH  15  18
ATOM     17  C   UNL     1       6.877   3.338  11.822  0.00  0.00    +0.000 C 
ATOM     18  C   UNL     1       5.564   3.472  12.560  0.00  0.00    +0.000 C 
ENDBRANCH  15  18
ENDBRANCH  14  16
ENDBRANCH  12  14
ENDBRANCH  11  12
BRANCH  11  19
ATOM     19  O   UNL     1       6.510   4.059  18.571  0.00  0.00    +0.000 OA
ATOM     20  H   UNL     1       7.060   3.729  17.841  0.00  0.00    +0.000 HD
ENDBRANCH  11  19
ENDBRANCH   9  11
ENDBRANCH   1  10
BRANCH   8  21
ATOM     21  C   UNL     1       1.798   5.690  21.046  0.00  0.00    +0.000 C 
BRANCH  21  22
ATOM     22  C   UNL     1       0.875   6.832  20.644  0.00  0.00    +0.000 C 
BRANCH  22  23
ATOM     23  C   UNL     1       1.576   8.184  20.825  0.00  0.00    +0.000 C 
BRANCH  23  24
ATOM     24  C   UNL     1       0.677   9.170  21.511  0.00  0.00    +0.000 A 
ATOM     25  C   UNL     1       0.268   9.179  22.828  0.00  0.00    +0.000 A 
ATOM     26  C   UNL     1      -0.648  10.236  23.097  0.00  0.00    +0.000 A 
ATOM     27  C   UNL     1      -0.901  11.018  21.985  0.00  0.00    +0.000 A 
ATOM     28  S   UNL     1       0.003  10.476  20.635  0.00  0.00    +0.000 S 
BRANCH  27  29
ATOM     29  C   UNL     1      -1.804  12.154  21.912  0.00  0.00    +0.000 C 
ATOM     30  O   UNL     1      -2.173  12.694  20.882  0.00  0.00    +0.000 OA
BRANCH  29  31
ATOM     31  O   UNL     1      -2.222  12.586  23.133  0.00  0.00    +0.000 OA
ATOM     32  H   UNL     1      -2.591  11.853  23.663  0.00  0.00    +0.000 HD
ENDBRANCH  29  31
ENDBRANCH  27  29
ENDBRANCH  23  24
ENDBRANCH  22  23
ENDBRANCH  21  22
ENDBRANCH   8  21
TORSDOF 13
ENDMDL
MODEL 8
REMARK VINA RESULT:      -7.7      2.412      3.860
REMARK  Name = 
REMARK  15 active torsions:
REMARK  status: ('A' for Active; 'I' for Inactive)
REMARK    1  A    between atoms: C_1  and  C_2
REMARK    2  A    between atoms: C_2  and  C_3
REMARK    3  A    between atoms: C_4  and  C_5
REMARK    4  A    between atoms: C_5  and  C_6
REMARK    5  A    between atoms: C_6  and  C_7
REMARK    6  A    between atoms: C_6  and  C_8
REMARK    7  A    between atoms: C_8  and  O_9
REMARK    8  A    between atoms: C_8  and  C_10
REMARK    9  A    between atoms: C_11  and  C_12
REMARK   10  A    between atoms: N_19  and  C_20
REMARK   11  A    between atoms: C_20  and  C_21
REMARK   12  A    between atoms: C_21  and  C_22
REMARK   13  A    between atoms: C_22  and  C_23
REMARK   14  A    between atoms: C_26  and  C_27
REMARK   15  A    between atoms: C_27  and  O_29
REMARK                            x       y       z     vdW  Elec       q    Type
REMARK                         _______ _______ _______ _____ _____    ______ ____
ROOT
ATOM      1  C   UNL     1       2.456   4.338  18.104  0.00  0.00    +0.000 C 
ATOM      2  C   UNL     1       1.776   2.988  17.908  0.00  0.00    +0.000 C 
ATOM      3  C   UNL     1       2.517   2.047  18.848  0.00  0.00    +0.000 C 
ATOM      4  F   UNL     1       1.632   1.145  19.352  0.00  0.00    +0.000 F 
ATOM      5  F   UNL     1       3.453   1.343  18.160  0.00  0.00    +0.000 F 
ATOM      6  C   UNL     1       3.104   2.971  19.910  0.00  0.00    +0.000 C 
ATOM      7  O   UNL     1       3.589   2.646  20.985  0.00  0.00    +0.000 OA
ATOM      8  N   UNL     1       2.941   4.285  19.466  0.00  0.00    +0.000 N 
ENDROOT
BRANCH   1  10
ATOM      9  C   UNL     1       4.380   5.599  17.036  0.00  0.00    +0.000 C 
ATOM     10  C   UNL     1       3.625   4.493  17.173  0.00  0.00    +0.000 C 
BRANCH   9  11
ATOM     11  C   UNL     1       5.558   5.750  16.097  0.00  0.00    +0.000 C 
BRANCH  11  12
ATOM     12  C   UNL     1       6.953   5.899  16.777  0.00  0.00    +0.000 C 
ATOM     13  C   UNL     1       7.549   4.500  17.049  0.00  0.00    +0.000 C 
BRANCH  12  14
ATOM     14  C   UNL     1       6.939   6.727  18.095  0.00  0.00    +0.000 C 
BRANCH  14  16
ATOM     15  C   UNL     1       8.537   8.813  18.226  0.00  0.00    +0.000 C 
ATOM     16  C   UNL     1       7.914   7.815  17.978  0.00  0.00    +0.000 C 
BRANCH  15  18
ATOM     17  C   UNL     1       8.820  11.249  17.994  0.00  0.00    +0.000 C 
ATOM     18  C   UNL     1       9.033  10.029  18.862  0.00  0.00    +0.000 C 
ENDBRANCH  15  18
ENDBRANCH  14  16
ENDBRANCH  12  14
ENDBRANCH  11  12
BRANCH  11  19
ATOM     19  O   UNL     1       5.340   6.867  15.235  0.00  0.00    +0.000 OA
ATOM     20  H   UNL     1       4.949   6.528  14.413  0.00  0.00    +0.000 HD
ENDBRANCH  11  19
ENDBRANCH   9  11
ENDBRANCH   1  10
BRANCH   8  21
ATOM     21  C   UNL     1       2.933   5.416  20.380  0.00  0.00    +0.000 C 
BRANCH  21  22
ATOM     22  C   UNL     1       1.641   6.222  20.356  0.00  0.00    +0.000 C 
BRANCH  22  23
ATOM     23  C   UNL     1       1.896   7.637  19.821  0.00  0.00    +0.000 C 
BRANCH  23  24
ATOM     24  C   UNL     1       1.257   8.670  20.701  0.00  0.00    +0.000 A 
ATOM     25  C   UNL     1       0.953   8.576  22.043  0.00  0.00    +0.000 A 
ATOM     26  C   UNL     1       0.280   9.737  22.521  0.00  0.00    +0.000 A 
ATOM     27  C   UNL     1       0.104  10.694  21.539  0.00  0.00    +0.000 A 
ATOM     28  S   UNL     1       0.786  10.182  20.054  0.00  0.00    +0.000 S 
BRANCH  27  29
ATOM     29  C   UNL     1      -0.566  11.974  21.688  0.00  0.00    +0.000 C 
ATOM     30  O   UNL     1      -1.762  12.165  21.533  0.00  0.00    +0.000 OA
BRANCH  29  31
ATOM     31  O   UNL     1       0.279  12.986  22.027  0.00  0.00    +0.000 OA
ATOM     32  H   UNL     1       0.698  13.379  21.237  0.00  0.00    +0.000 HD
ENDBRANCH  29  31
ENDBRANCH  27  29
ENDBRANCH  23  24
ENDBRANCH  22  23
ENDBRANCH  21  22
ENDBRANCH   8  21
TORSDOF 13
ENDMDL
MODEL 9
REMARK VINA RESULT:      -7.6      1.558      1.800
REMARK  Name = 
REMARK  15 active torsions:
REMARK  status: ('A' for Active; 'I' for Inactive)
REMARK    1  A    between atoms: C_1  and  C_2
REMARK    2  A    between atoms: C_2  and  C_3
REMARK    3  A    between atoms: C_4  and  C_5
REMARK    4  A    between atoms: C_5  and  C_6
REMARK    5  A    between atoms: C_6  and  C_7
REMARK    6  A    between atoms: C_6  and  C_8
REMARK    7  A    between atoms: C_8  and  O_9
REMARK    8  A    between atoms: C_8  and  C_10
REMARK    9  A    between atoms: C_11  and  C_12
REMARK   10  A    between atoms: N_19  and  C_20
REMARK   11  A    between atoms: C_20  and  C_21
REMARK   12  A    between atoms: C_21  and  C_22
REMARK   13  A    between atoms: C_22  and  C_23
REMARK   14  A    between atoms: C_26  and  C_27
REMARK   15  A    between atoms: C_27  and  O_29
REMARK                            x       y       z     vdW  Elec       q    Type
REMARK                         _______ _______ _______ _____ _____    ______ ____
ROOT
ATOM      1  C   UNL     1       2.296   4.786  18.349  0.00  0.00    +0.000 C 
ATOM      2  C   UNL     1       1.544   3.549  17.873  0.00  0.00    +0.000 C 
ATOM      3  C   UNL     1       2.045   2.428  18.772  0.00  0.00    +0.000 C 
ATOM      4  F   UNL     1       1.018   1.567  19.013  0.00  0.00    +0.000 F 
ATOM      5  F   UNL     1       3.014   1.719  18.137  0.00  0.00    +0.000 F 
ATOM      6  C   UNL     1       2.533   3.147  20.025  0.00  0.00    +0.000 C 
ATOM      7  O   UNL     1       2.814   2.644  21.103  0.00  0.00    +0.000 OA
ATOM      8  N   UNL     1       2.555   4.515  19.746  0.00  0.00    +0.000 N 
ENDROOT
BRANCH   1  10
ATOM      9  C   UNL     1       4.280   6.082  17.444  0.00  0.00    +0.000 C 
ATOM     10  C   UNL     1       3.607   4.930  17.627  0.00  0.00    +0.000 C 
BRANCH   9  11
ATOM     11  C   UNL     1       5.601   6.222  16.717  0.00  0.00    +0.000 C 
BRANCH  11  12
ATOM     12  C   UNL     1       6.365   4.892  16.438  0.00  0.00    +0.000 C 
ATOM     13  C   UNL     1       7.471   4.698  17.500  0.00  0.00    +0.000 C 
BRANCH  12  14
ATOM     14  C   UNL     1       6.986   4.794  15.014  0.00  0.00    +0.000 C 
BRANCH  14  16
ATOM     15  C   UNL     1       5.578   3.541  13.178  0.00  0.00    +0.000 C 
ATOM     16  C   UNL     1       6.082   4.017  14.160  0.00  0.00    +0.000 C 
BRANCH  15  18
ATOM     17  C   UNL     1       5.829   1.839  11.415  0.00  0.00    +0.000 C 
ATOM     18  C   UNL     1       5.268   3.191  11.795  0.00  0.00    +0.000 C 
ENDBRANCH  15  18
ENDBRANCH  14  16
ENDBRANCH  12  14
ENDBRANCH  11  12
BRANCH  11  19
ATOM     19  O   UNL     1       6.455   7.104  17.446  0.00  0.00    +0.000 OA
ATOM     20  H   UNL     1       7.369   6.899  17.190  0.00  0.00    +0.000 HD
ENDBRANCH  11  19
ENDBRANCH   9  11
ENDBRANCH   1  10
BRANCH   8  21
ATOM     21  C   UNL     1       2.498   5.519  20.797  0.00  0.00    +0.000 C 
BRANCH  21  22
ATOM     22  C   UNL     1       1.429   6.582  20.580  0.00  0.00    +0.000 C 
BRANCH  22  23
ATOM     23  C   UNL     1       2.021   7.810  19.875  0.00  0.00    +0.000 C 
BRANCH  23  24
ATOM     24  C   UNL     1       1.185   9.030  20.126  0.00  0.00    +0.000 A 
ATOM     25  C   UNL     1       0.971  10.103  19.286  0.00  0.00    +0.000 A 
ATOM     26  C   UNL     1       0.176  11.113  19.900  0.00  0.00    +0.000 A 
ATOM     27  C   UNL     1      -0.212  10.778  21.184  0.00  0.00    +0.000 A 
ATOM     28  S   UNL     1       0.369   9.226  21.617  0.00  0.00    +0.000 S 
BRANCH  27  29
ATOM     29  C   UNL     1      -1.002  11.594  22.091  0.00  0.00    +0.000 C 
ATOM     30  O   UNL     1      -2.221  11.612  22.139  0.00  0.00    +0.000 OA
BRANCH  29  31
ATOM     31  O   UNL     1      -0.244  12.368  22.914  0.00  0.00    +0.000 OA
ATOM     32  H   UNL     1      -0.746  13.142  23.236  0.00  0.00    +0.000 HD
ENDBRANCH  29  31
ENDBRANCH  27  29
ENDBRANCH  23  24
ENDBRANCH  22  23
ENDBRANCH  21  22
ENDBRANCH   8  21
TORSDOF 13
ENDMDL
