MODEL 1
REMARK VINA RESULT:      -8.1      0.000      0.000
REMARK  Name = 
REMARK  4 active torsions:
REMARK  status: ('A' for Active; 'I' for Inactive)
REMARK    1  A    between atoms: N_4  and  N_5
REMARK    2  A    between atoms: C_6  and  C_7
REMARK    3  A    between atoms: C_6  and  C_16
REMARK    4  A    between atoms: C_8  and  C_9
REMARK                            x       y       z     vdW  Elec       q    Type
REMARK                         _______ _______ _______ _____ _____    ______ ____
ROOT
ATOM      1  N   UNL     1       2.323   7.496  19.690  0.00  0.00    +0.000 NA
ATOM      2  C   UNL     1       2.641   6.283  19.319  0.00  0.00    +0.000 C 
ENDROOT
BRANCH   1   6
ATOM      3  N   UNL     1       0.011   8.804  22.113  0.00  0.00    +0.000 NA
ATOM      4  C   UNL     1       0.757   8.736  21.067  0.00  0.00    +0.000 C 
ATOM      5  N   UNL     1       0.786   9.700  20.121  0.00  0.00    +0.000 N 
ATOM      6  N   UNL     1       1.569   7.670  20.812  0.00  0.00    +0.000 N 
ATOM      7  H   UNL     1      -0.541   9.664  22.051  0.00  0.00    +0.000 HD
ATOM      8  H   UNL     1       0.675  10.644  20.463  0.00  0.00    +0.000 HD
ATOM      9  H   UNL     1       1.619   9.579  19.548  0.00  0.00    +0.000 HD
ATOM     10  H   UNL     1       1.540   6.953  21.533  0.00  0.00    +0.000 HD
ENDBRANCH   1   6
BRANCH   2  11
ATOM     11  C   UNL     1       2.146   4.987  19.898  0.00  0.00    +0.000 A 
ATOM     12  C   UNL     1       1.305   4.136  19.168  0.00  0.00    +0.000 A 
ATOM     13  C   UNL     1       0.834   2.946  19.729  0.00  0.00    +0.000 A 
ATOM     14  C   UNL     1       1.237   2.569  21.007  0.00  0.00    +0.000 A 
ATOM     15  C   UNL     1       2.102   3.386  21.732  0.00  0.00    +0.000 A 
ATOM     16  C   UNL     1       2.542   4.596  21.189  0.00  0.00    +0.000 A 
ENDBRANCH   2  11
BRANCH   2  17
ATOM     17  C   UNL     1       3.528   6.118  18.119  0.00  0.00    +0.000 C 
ATOM     18  C   UNL     1       4.445   5.143  18.075  0.00  0.00    +0.000 C 
BRANCH  18  19
ATOM     19  C   UNL     1       5.327   4.965  16.914  0.00  0.00    +0.000 A 
ATOM     20  C   UNL     1       4.775   4.383  15.762  0.00  0.00    +0.000 A 
ATOM     21  C   UNL     1       5.553   4.197  14.616  0.00  0.00    +0.000 A 
ATOM     22  C   UNL     1       6.888   4.592  14.606  0.00  0.00    +0.000 A 
ATOM     23  C   UNL     1       7.454   5.162  15.746  0.00  0.00    +0.000 A 
ATOM     24  C   UNL     1       6.680   5.342  16.898  0.00  0.00    +0.000 A 
ATOM     25 BR   UNL     1       7.529   6.111  18.416  0.00  0.00    +0.000 Br
ENDBRANCH  18  19
ENDBRANCH   2  17
TORSDOF 4
ENDMDL
MODEL 2
REMARK VINA RESULT:      -8.1      0.040      1.053
REMARK  Name = 
REMARK  4 active torsions:
REMARK  status: ('A' for Active; 'I' for Inactive)
REMARK    1  A    between atoms: N_4  and  N_5
REMARK    2  A    between atoms: C_6  and  C_7
REMARK    3  A    between atoms: C_6  and  C_16
REMARK    4  A    between atoms: C_8  and  C_9
REMARK                            x       y       z     vdW  Elec       q    Type
REMARK                         _______ _______ _______ _____ _____    ______ ____
ROOT
ATOM      1  N   UNL     1       2.317   7.523  19.665  0.00  0.00    +0.000 NA
ATOM      2  C   UNL     1       2.648   6.311  19.302  0.00  0.00    +0.000 C 
ENDROOT
BRANCH   1   6
ATOM      3  N   UNL     1       0.012   8.841  22.089  0.00  0.00    +0.000 NA
ATOM      4  C   UNL     1       0.764   8.773  21.047  0.00  0.00    +0.000 C 
ATOM      5  N   UNL     1       0.819   9.749  20.116  0.00  0.00    +0.000 N 
ATOM      6  N   UNL     1       1.558   7.695  20.784  0.00  0.00    +0.000 N 
ATOM      7  H   UNL     1      -0.523   9.711  22.035  0.00  0.00    +0.000 HD
ATOM      8  H   UNL     1       0.723  10.690  20.470  0.00  0.00    +0.000 HD
ATOM      9  H   UNL     1       1.654   9.621  19.548  0.00  0.00    +0.000 HD
ATOM     10  H   UNL     1       1.509   6.969  21.494  0.00  0.00    +0.000 HD
ENDBRANCH   1   6
BRANCH   2  11
ATOM     11  C   UNL     1       2.164   5.014  19.886  0.00  0.00    +0.000 A 
ATOM     12  C   UNL     1       2.530   4.615  21.180  0.00  0.00    +0.000 A 
ATOM     13  C   UNL     1       2.090   3.395  21.701  0.00  0.00    +0.000 A 
ATOM     14  C   UNL     1       1.240   2.583  20.955  0.00  0.00    +0.000 A 
ATOM     15  C   UNL     1       0.838   2.982  19.683  0.00  0.00    +0.000 A 
ATOM     16  C   UNL     1       1.309   4.182  19.143  0.00  0.00    +0.000 A 
ENDBRANCH   2  11
BRANCH   2  17
ATOM     17  C   UNL     1       3.541   6.148  18.106  0.00  0.00    +0.000 C 
ATOM     18  C   UNL     1       4.452   5.168  18.060  0.00  0.00    +0.000 C 
BRANCH  18  19
ATOM     19  C   UNL     1       5.339   4.991  16.902  0.00  0.00    +0.000 A 
ATOM     20  C   UNL     1       4.794   4.405  15.749  0.00  0.00    +0.000 A 
ATOM     21  C   UNL     1       5.577   4.220  14.607  0.00  0.00    +0.000 A 
ATOM     22  C   UNL     1       6.910   4.622  14.601  0.00  0.00    +0.000 A 
ATOM     23  C   UNL     1       7.469   5.196  15.742  0.00  0.00    +0.000 A 
ATOM     24  C   UNL     1       6.690   5.376  16.891  0.00  0.00    +0.000 A 
ATOM     25 BR   UNL     1       7.529   6.152  18.410  0.00  0.00    +0.000 Br
ENDBRANCH  18  19
ENDBRANCH   2  17
TORSDOF 4
ENDMDL
MODEL 3
REMARK VINA RESULT:      -7.9      4.126      7.349
REMARK  Name = 
REMARK  4 active torsions:
REMARK  status: ('A' for Active; 'I' for Inactive)
REMARK    1  A    between atoms: N_4  and  N_5
REMARK    2  A    between atoms: C_6  and  C_7
REMARK    3  A    between atoms: C_6  and  C_16
REMARK    4  A    between atoms: C_8  and  C_9
REMARK                            x       y       z     vdW  Elec       q    Type
REMARK                         _______ _______ _______ _____ _____    ______ ____
ROOT
ATOM      1  N   UNL     1       5.601   4.337  15.058  0.00  0.00    +0.000 NA
ATOM      2  C   UNL     1       5.587   4.590  16.341  0.00  0.00    +0.000 C 
ENDROOT
BRANCH   1   6
ATOM      3  N   UNL     1       7.885   4.977  12.355  0.00  0.00    +0.000 NA
ATOM      4  C   UNL     1       6.978   4.398  13.061  0.00  0.00    +0.000 C 
ATOM      5  N   UNL     1       6.304   3.306  12.639  0.00  0.00    +0.000 N 
ATOM      6  N   UNL     1       6.604   4.852  14.292  0.00  0.00    +0.000 N 
ATOM      7  H   UNL     1       7.945   4.488  11.459  0.00  0.00    +0.000 HD
ATOM      8  H   UNL     1       6.839   2.657  12.080  0.00  0.00    +0.000 HD
ATOM      9  H   UNL     1       5.853   2.864  13.438  0.00  0.00    +0.000 HD
ATOM     10  H   UNL     1       7.122   5.672  14.599  0.00  0.00    +0.000 HD
ENDBRANCH   1   6
BRANCH   2  11
ATOM     11  C   UNL     1       6.478   5.534  17.100  0.00  0.00    +0.000 A 
ATOM     12  C   UNL     1       6.562   6.891  16.758  0.00  0.00    +0.000 A 
ATOM     13  C   UNL     1       7.413   7.751  17.457  0.00  0.00    +0.000 A 
ATOM     14  C   UNL     1       8.152   7.276  18.538  0.00  0.00    +0.000 A 
ATOM     15  C   UNL     1       8.051   5.939  18.913  0.00  0.00    +0.000 A 
ATOM     16  C   UNL     1       7.232   5.067  18.190  0.00  0.00    +0.000 A 
ENDBRANCH   2  11
BRANCH   2  17
ATOM     17  C   UNL     1       4.512   3.959  17.177  0.00  0.00    +0.000 C 
ATOM     18  C   UNL     1       3.497   4.690  17.654  0.00  0.00    +0.000 C 
BRANCH  18  19
ATOM     19  C   UNL     1       2.436   4.095  18.478  0.00  0.00    +0.000 A 
ATOM     20  C   UNL     1       2.000   2.804  18.141  0.00  0.00    +0.000 A 
ATOM     21  C   UNL     1       1.005   2.173  18.891  0.00  0.00    +0.000 A 
ATOM     22  C   UNL     1       0.437   2.819  19.985  0.00  0.00    +0.000 A 
ATOM     23  C   UNL     1       0.852   4.105  20.326  0.00  0.00    +0.000 A 
ATOM     24  C   UNL     1       1.843   4.745  19.573  0.00  0.00    +0.000 A 
ATOM     25 BR   UNL     1       2.344   6.505  20.092  0.00  0.00    +0.000 Br
ENDBRANCH  18  19
ENDBRANCH   2  17
TORSDOF 4
ENDMDL
MODEL 4
REMARK VINA RESULT:      -7.9      4.108      7.379
REMARK  Name = 
REMARK  4 active torsions:
REMARK  status: ('A' for Active; 'I' for Inactive)
REMARK    1  A    between atoms: N_4  and  N_5
REMARK    2  A    between atoms: C_6  and  C_7
REMARK    3  A    between atoms: C_6  and  C_16
REMARK    4  A    between atoms: C_8  and  C_9
REMARK                            x       y       z     vdW  Elec       q    Type
REMARK                         _______ _______ _______ _____ _____    ______ ____
ROOT
ATOM      1  N   UNL     1       5.744   4.487  15.157  0.00  0.00    +0.000 NA
ATOM      2  C   UNL     1       5.730   4.740  16.440  0.00  0.00    +0.000 C 
ENDROOT
BRANCH   1   6
ATOM      3  N   UNL     1       7.988   5.189  12.436  0.00  0.00    +0.000 NA
ATOM      4  C   UNL     1       7.093   4.592  13.143  0.00  0.00    +0.000 C 
ATOM      5  N   UNL     1       6.419   3.506  12.710  0.00  0.00    +0.000 N 
ATOM      6  N   UNL     1       6.734   5.021  14.387  0.00  0.00    +0.000 N 
ATOM      7  H   UNL     1       8.038   4.717  11.529  0.00  0.00    +0.000 HD
ATOM      8  H   UNL     1       6.949   2.870  12.131  0.00  0.00    +0.000 HD
ATOM      9  H   UNL     1       5.980   3.046  13.506  0.00  0.00    +0.000 HD
ATOM     10  H   UNL     1       7.252   5.838  14.702  0.00  0.00    +0.000 HD
ENDBRANCH   1   6
BRANCH   2  11
ATOM     11  C   UNL     1       6.606   5.700  17.195  0.00  0.00    +0.000 A 
ATOM     12  C   UNL     1       7.365   5.282  18.297  0.00  0.00    +0.000 A 
ATOM     13  C   UNL     1       8.157   6.192  19.004  0.00  0.00    +0.000 A 
ATOM     14  C   UNL     1       8.237   7.518  18.588  0.00  0.00    +0.000 A 
ATOM     15  C   UNL     1       7.517   7.941  17.473  0.00  0.00    +0.000 A 
ATOM     16  C   UNL     1       6.693   7.042  16.789  0.00  0.00    +0.000 A 
ENDBRANCH   2  11
BRANCH   2  17
ATOM     17  C   UNL     1       4.671   4.087  17.280  0.00  0.00    +0.000 C 
ATOM     18  C   UNL     1       3.522   4.721  17.547  0.00  0.00    +0.000 C 
BRANCH  18  19
ATOM     19  C   UNL     1       2.473   4.105  18.370  0.00  0.00    +0.000 A 
ATOM     20  C   UNL     1       2.034   2.821  18.009  0.00  0.00    +0.000 A 
ATOM     21  C   UNL     1       1.049   2.170  18.756  0.00  0.00    +0.000 A 
ATOM     22  C   UNL     1       0.495   2.789  19.872  0.00  0.00    +0.000 A 
ATOM     23  C   UNL     1       0.913   4.068  20.238  0.00  0.00    +0.000 A 
ATOM     24  C   UNL     1       1.893   4.727  19.488  0.00  0.00    +0.000 A 
ATOM     25 BR   UNL     1       2.398   6.475  20.042  0.00  0.00    +0.000 Br
ENDBRANCH  18  19
ENDBRANCH   2  17
TORSDOF 4
ENDMDL
MODEL 5
REMARK VINA RESULT:      -7.7      3.404      6.287
REMARK  Name = 
REMARK  4 active torsions:
REMARK  status: ('A' for Active; 'I' for Inactive)
REMARK    1  A    between atoms: N_4  and  N_5
REMARK    2  A    between atoms: C_6  and  C_7
REMARK    3  A    between atoms: C_6  and  C_16
REMARK    4  A    between atoms: C_8  and  C_9
REMARK                            x       y       z     vdW  Elec       q    Type
REMARK                         _______ _______ _______ _____ _____    ______ ____
ROOT
ATOM      1  N   UNL     1       5.058   6.143  18.161  0.00  0.00    +0.000 NA
ATOM      2  C   UNL     1       3.790   5.835  18.254  0.00  0.00    +0.000 C 
ENDROOT
BRANCH   1   6
ATOM      3  N   UNL     1       8.021   4.182  17.609  0.00  0.00    +0.000 NA
ATOM      4  C   UNL     1       7.150   5.120  17.480  0.00  0.00    +0.000 C 
ATOM      5  N   UNL     1       7.320   6.171  16.649  0.00  0.00    +0.000 N 
ATOM      6  N   UNL     1       5.986   5.144  18.190  0.00  0.00    +0.000 N 
ATOM      7  H   UNL     1       8.824   4.415  17.020  0.00  0.00    +0.000 HD
ATOM      8  H   UNL     1       7.807   5.967  15.788  0.00  0.00    +0.000 HD
ATOM      9  H   UNL     1       6.422   6.627  16.499  0.00  0.00    +0.000 HD
ATOM     10  H   UNL     1       5.869   4.346  18.809  0.00  0.00    +0.000 HD
ENDBRANCH   1   6
BRANCH   2  11
ATOM     11  C   UNL     1       3.192   4.488  18.550  0.00  0.00    +0.000 A 
ATOM     12  C   UNL     1       2.871   4.105  19.860  0.00  0.00    +0.000 A 
ATOM     13  C   UNL     1       2.337   2.840  20.122  0.00  0.00    +0.000 A 
ATOM     14  C   UNL     1       2.073   1.963  19.074  0.00  0.00    +0.000 A 
ATOM     15  C   UNL     1       2.353   2.342  17.764  0.00  0.00    +0.000 A 
ATOM     16  C   UNL     1       2.924   3.591  17.503  0.00  0.00    +0.000 A 
ENDBRANCH   2  11
BRANCH   2  17
ATOM     17  C   UNL     1       2.782   6.943  18.153  0.00  0.00    +0.000 C 
ATOM     18  C   UNL     1       2.428   7.647  19.236  0.00  0.00    +0.000 C 
BRANCH  18  19
ATOM     19  C   UNL     1       1.441   8.733  19.162  0.00  0.00    +0.000 A 
ATOM     20  C   UNL     1       1.072   9.190  17.888  0.00  0.00    +0.000 A 
ATOM     21  C   UNL     1       0.128  10.209  17.744  0.00  0.00    +0.000 A 
ATOM     22  C   UNL     1      -0.461  10.781  18.868  0.00  0.00    +0.000 A 
ATOM     23  C   UNL     1      -0.097  10.345  20.141  0.00  0.00    +0.000 A 
ATOM     24  C   UNL     1       0.854   9.329  20.290  0.00  0.00    +0.000 A 
ATOM     25 BR   UNL     1       1.307   8.801  22.060  0.00  0.00    +0.000 Br
ENDBRANCH  18  19
ENDBRANCH   2  17
TORSDOF 4
ENDMDL
MODEL 6
REMARK VINA RESULT:      -7.7      3.207      6.945
REMARK  Name = 
REMARK  4 active torsions:
REMARK  status: ('A' for Active; 'I' for Inactive)
REMARK    1  A    between atoms: N_4  and  N_5
REMARK    2  A    between atoms: C_6  and  C_7
REMARK    3  A    between atoms: C_6  and  C_16
REMARK    4  A    between atoms: C_8  and  C_9
REMARK                            x       y       z     vdW  Elec       q    Type
REMARK                         _______ _______ _______ _____ _____    ______ ____
ROOT
ATOM      1  N   UNL     1       2.527   3.706  19.766  0.00  0.00    +0.000 NA
ATOM      2  C   UNL     1       2.879   4.911  19.401  0.00  0.00    +0.000 C 
ENDROOT
BRANCH   1   6
ATOM      3  N   UNL     1       4.247   0.824  18.474  0.00  0.00    +0.000 NA
ATOM      4  C   UNL     1       3.341   1.726  18.625  0.00  0.00    +0.000 C 
ATOM      5  N   UNL     1       2.258   1.820  17.823  0.00  0.00    +0.000 N 
ATOM      6  N   UNL     1       3.407   2.679  19.599  0.00  0.00    +0.000 N 
ATOM      7  H   UNL     1       4.003   0.268  17.651  0.00  0.00    +0.000 HD
ATOM      8  H   UNL     1       1.886   0.940  17.494  0.00  0.00    +0.000 HD
ATOM      9  H   UNL     1       1.558   2.404  18.276  0.00  0.00    +0.000 HD
ATOM     10  H   UNL     1       4.225   2.594  20.197  0.00  0.00    +0.000 HD
ENDBRANCH   1   6
BRANCH   2  11
ATOM     11  C   UNL     1       4.117   5.317  18.651  0.00  0.00    +0.000 A 
ATOM     12  C   UNL     1       5.384   5.252  19.246  0.00  0.00    +0.000 A 
ATOM     13  C   UNL     1       6.524   5.655  18.544  0.00  0.00    +0.000 A 
ATOM     14  C   UNL     1       6.415   6.081  17.223  0.00  0.00    +0.000 A 
ATOM     15  C   UNL     1       5.168   6.117  16.606  0.00  0.00    +0.000 A 
ATOM     16  C   UNL     1       4.022   5.753  17.319  0.00  0.00    +0.000 A 
ENDBRANCH   2  11
BRANCH   2  17
ATOM     17  C   UNL     1       1.921   6.038  19.656  0.00  0.00    +0.000 C 
ATOM     18  C   UNL     1       2.330   7.161  20.260  0.00  0.00    +0.000 C 
BRANCH  18  19
ATOM     19  C   UNL     1       1.409   8.275  20.525  0.00  0.00    +0.000 A 
ATOM     20  C   UNL     1       0.786   8.317  21.782  0.00  0.00    +0.000 A 
ATOM     21  C   UNL     1      -0.090   9.356  22.107  0.00  0.00    +0.000 A 
ATOM     22  C   UNL     1      -0.351  10.365  21.184  0.00  0.00    +0.000 A 
ATOM     23  C   UNL     1       0.253  10.331  19.927  0.00  0.00    +0.000 A 
ATOM     24  C   UNL     1       1.125   9.288  19.595  0.00  0.00    +0.000 A 
ATOM     25 BR   UNL     1       1.895   9.305  17.857  0.00  0.00    +0.000 Br
ENDBRANCH  18  19
ENDBRANCH   2  17
TORSDOF 4
ENDMDL
MODEL 7
REMARK VINA RESULT:      -7.7      3.231      6.888
REMARK  Name = 
REMARK  4 active torsions:
REMARK  status: ('A' for Active; 'I' for Inactive)
REMARK    1  A    between atoms: N_4  and  N_5
REMARK    2  A    between atoms: C_6  and  C_7
REMARK    3  A    between atoms: C_6  and  C_16
REMARK    4  A    between atoms: C_8  and  C_9
REMARK                            x       y       z     vdW  Elec       q    Type
REMARK                         _______ _______ _______ _____ _____    ______ ____
ROOT
ATOM      1  N   UNL     1       2.561   3.730  19.690  0.00  0.00    +0.000 NA
ATOM      2  C   UNL     1       2.913   4.942  19.347  0.00  0.00    +0.000 C 
ENDROOT
BRANCH   1   6
ATOM      3  N   UNL     1       4.247   0.807  18.448  0.00  0.00    +0.000 NA
ATOM      4  C   UNL     1       3.335   1.700  18.610  0.00  0.00    +0.000 C 
ATOM      5  N   UNL     1       2.198   1.730  17.881  0.00  0.00    +0.000 N 
ATOM      6  N   UNL     1       3.449   2.710  19.520  0.00  0.00    +0.000 N 
ATOM      7  H   UNL     1       3.958   0.199  17.677  0.00  0.00    +0.000 HD
ATOM      8  H   UNL     1       1.822   0.826  17.631  0.00  0.00    +0.000 HD
ATOM      9  H   UNL     1       1.518   2.327  18.349  0.00  0.00    +0.000 HD
ATOM     10  H   UNL     1       4.308   2.674  20.064  0.00  0.00    +0.000 HD
ENDBRANCH   1   6
BRANCH   2  11
ATOM     11  C   UNL     1       4.159   5.365  18.621  0.00  0.00    +0.000 A 
ATOM     12  C   UNL     1       4.106   5.873  17.315  0.00  0.00    +0.000 A 
ATOM     13  C   UNL     1       5.277   6.239  16.645  0.00  0.00    +0.000 A 
ATOM     14  C   UNL     1       6.508   6.149  17.289  0.00  0.00    +0.000 A 
ATOM     15  C   UNL     1       6.573   5.681  18.599  0.00  0.00    +0.000 A 
ATOM     16  C   UNL     1       5.409   5.275  19.257  0.00  0.00    +0.000 A 
ENDBRANCH   2  11
BRANCH   2  17
ATOM     17  C   UNL     1       1.946   6.061  19.605  0.00  0.00    +0.000 C 
ATOM     18  C   UNL     1       2.338   7.172  20.240  0.00  0.00    +0.000 C 
BRANCH  18  19
ATOM     19  C   UNL     1       1.409   8.278  20.508  0.00  0.00    +0.000 A 
ATOM     20  C   UNL     1       0.779   8.308  21.762  0.00  0.00    +0.000 A 
ATOM     21  C   UNL     1      -0.105   9.339  22.090  0.00  0.00    +0.000 A 
ATOM     22  C   UNL     1      -0.369  10.352  21.172  0.00  0.00    +0.000 A 
ATOM     23  C   UNL     1       0.240  10.331  19.918  0.00  0.00    +0.000 A 
ATOM     24  C   UNL     1       1.121   9.295  19.583  0.00  0.00    +0.000 A 
ATOM     25 BR   UNL     1       1.899   9.329  17.849  0.00  0.00    +0.000 Br
ENDBRANCH  18  19
ENDBRANCH   2  17
TORSDOF 4
ENDMDL
MODEL 8
REMARK VINA RESULT:      -7.6      3.249      6.475
REMARK  Name = 
REMARK  4 active torsions:
REMARK  status: ('A' for Active; 'I' for Inactive)
REMARK    1  A    between atoms: N_4  and  N_5
REMARK    2  A    between atoms: C_6  and  C_7
REMARK    3  A    between atoms: C_6  and  C_16
REMARK    4  A    between atoms: C_8  and  C_9
REMARK                            x       y       z     vdW  Elec       q    Type
REMARK                         _______ _______ _______ _____ _____    ______ ____
ROOT
ATOM      1  N   UNL     1       4.296   6.497  17.752  0.00  0.00    +0.000 NA
ATOM      2  C   UNL     1       3.076   6.356  18.202  0.00  0.00    +0.000 C 
ENDROOT
BRANCH   1   6
ATOM      3  N   UNL     1       7.091   4.322  17.133  0.00  0.00    +0.000 NA
ATOM      4  C   UNL     1       6.360   5.381  17.137  0.00  0.00    +0.000 C 
ATOM      5  N   UNL     1       6.787   6.570  16.658  0.00  0.00    +0.000 N 
ATOM      6  N   UNL     1       5.094   5.398  17.645  0.00  0.00    +0.000 N 
ATOM      7  H   UNL     1       8.008   4.574  16.755  0.00  0.00    +0.000 HD
ATOM      8  H   UNL     1       7.398   6.518  15.856  0.00  0.00    +0.000 HD
ATOM      9  H   UNL     1       5.982   7.176  16.506  0.00  0.00    +0.000 HD
ATOM     10  H   UNL     1       4.785   4.496  17.999  0.00  0.00    +0.000 HD
ENDBRANCH   1   6
BRANCH   2  11
ATOM     11  C   UNL     1       2.451   5.119  18.784  0.00  0.00    +0.000 A 
ATOM     12  C   UNL     1       2.533   4.836  20.154  0.00  0.00    +0.000 A 
ATOM     13  C   UNL     1       1.967   3.669  20.677  0.00  0.00    +0.000 A 
ATOM     14  C   UNL     1       1.270   2.798  19.844  0.00  0.00    +0.000 A 
ATOM     15  C   UNL     1       1.148   3.083  18.487  0.00  0.00    +0.000 A 
ATOM     16  C   UNL     1       1.748   4.228  17.954  0.00  0.00    +0.000 A 
ENDBRANCH   2  11
BRANCH   2  17
ATOM     17  C   UNL     1       2.192   7.568  18.248  0.00  0.00    +0.000 C 
ATOM     18  C   UNL     1       1.877   8.141  19.417  0.00  0.00    +0.000 C 
BRANCH  18  19
ATOM     19  C   UNL     1       1.010   9.325  19.488  0.00  0.00    +0.000 A 
ATOM     20  C   UNL     1       0.613   9.913  18.276  0.00  0.00    +0.000 A 
ATOM     21  C   UNL     1      -0.223  11.032  18.269  0.00  0.00    +0.000 A 
ATOM     22  C   UNL     1      -0.675  11.575  19.469  0.00  0.00    +0.000 A 
ATOM     23  C   UNL     1      -0.281  11.009  20.680  0.00  0.00    +0.000 A 
ATOM     24  C   UNL     1       0.563   9.892  20.692  0.00  0.00    +0.000 A 
ATOM     25 BR   UNL     1       1.067   9.188  22.385  0.00  0.00    +0.000 Br
ENDBRANCH  18  19
ENDBRANCH   2  17
TORSDOF 4
ENDMDL
MODEL 9
REMARK VINA RESULT:      -7.6      3.305      6.408
REMARK  Name = 
REMARK  4 active torsions:
REMARK  status: ('A' for Active; 'I' for Inactive)
REMARK    1  A    between atoms: N_4  and  N_5
REMARK    2  A    between atoms: C_6  and  C_7
REMARK    3  A    between atoms: C_6  and  C_16
REMARK    4  A    between atoms: C_8  and  C_9
REMARK                            x       y       z     vdW  Elec       q    Type
REMARK                         _______ _______ _______ _____ _____    ______ ____
ROOT
ATOM      1  N   UNL     1       4.603   6.671  17.489  0.00  0.00    +0.000 NA
ATOM      2  C   UNL     1       3.401   6.526  17.983  0.00  0.00    +0.000 C 
ENDROOT
BRANCH   1   6
ATOM      3  N   UNL     1       7.428   4.509  16.963  0.00  0.00    +0.000 NA
ATOM      4  C   UNL     1       6.720   5.583  17.022  0.00  0.00    +0.000 C 
ATOM      5  N   UNL     1       7.232   6.813  16.801  0.00  0.00    +0.000 N 
ATOM      6  N   UNL     1       5.393   5.571  17.333  0.00  0.00    +0.000 N 
ATOM      7  H   UNL     1       8.395   4.781  16.769  0.00  0.00    +0.000 HD
ATOM      8  H   UNL     1       7.958   6.860  16.100  0.00  0.00    +0.000 HD
ATOM      9  H   UNL     1       6.469   7.465  16.627  0.00  0.00    +0.000 HD
ATOM     10  H   UNL     1       5.020   4.638  17.493  0.00  0.00    +0.000 HD
ENDBRANCH   1   6
BRANCH   2  11
ATOM     11  C   UNL     1       2.793   5.281  18.566  0.00  0.00    +0.000 A 
ATOM     12  C   UNL     1       1.890   4.498  17.833  0.00  0.00    +0.000 A 
ATOM     13  C   UNL     1       1.315   3.356  18.398  0.00  0.00    +0.000 A 
ATOM     14  C   UNL     1       1.673   2.956  19.683  0.00  0.00    +0.000 A 
ATOM     15  C   UNL     1       2.596   3.703  20.410  0.00  0.00    +0.000 A 
ATOM     16  C   UNL     1       3.142   4.868  19.863  0.00  0.00    +0.000 A 
ENDBRANCH   2  11
BRANCH   2  17
ATOM     17  C   UNL     1       2.524   7.740  18.083  0.00  0.00    +0.000 C 
ATOM     18  C   UNL     1       1.933   8.063  19.240  0.00  0.00    +0.000 C 
BRANCH  18  19
ATOM     19  C   UNL     1       1.067   9.244  19.362  0.00  0.00    +0.000 A 
ATOM     20  C   UNL     1       0.615   9.843  18.176  0.00  0.00    +0.000 A 
ATOM     21  C   UNL     1      -0.223  10.960  18.218  0.00  0.00    +0.000 A 
ATOM     22  C   UNL     1      -0.622  11.489  19.442  0.00  0.00    +0.000 A 
ATOM     23  C   UNL     1      -0.173  10.912  20.629  0.00  0.00    +0.000 A 
ATOM     24  C   UNL     1       0.673   9.798  20.591  0.00  0.00    +0.000 A 
ATOM     25 BR   UNL     1       1.254   9.078  22.253  0.00  0.00    +0.000 Br
ENDBRANCH  18  19
ENDBRANCH   2  17
TORSDOF 4
ENDMDL
