MODEL 1
REMARK VINA RESULT:      -7.9      0.000      0.000
REMARK  Name = 
REMARK  7 active torsions:
REMARK  status: ('A' for Active; 'I' for Inactive)
REMARK    1  A    between atoms: C_1  and  C_2
REMARK    2  A    between atoms: C_7  and  C_8
REMARK    3  A    between atoms: C_8  and  C_10
REMARK    4  A    between atoms: C_13  and  C_14
REMARK    5  A    between atoms: N_16  and  C_17
REMARK    6  A    between atoms: C_17  and  C_18
REMARK    7  A    between atoms: C_18  and  C_19
REMARK                            x       y       z     vdW  Elec       q    Type
REMARK                         _______ _______ _______ _____ _____    ______ ____
ROOT
ATOM      1  C   UNL     1       3.519   5.651  18.847  0.00  0.00    +0.000 A 
ATOM      2  C   UNL     1       2.785   5.896  19.996  0.00  0.00    +0.000 A 
ATOM      3  N   UNL     1       2.102   7.073  19.843  0.00  0.00    +0.000 N 
ATOM      4  C   UNL     1       2.464   7.689  18.667  0.00  0.00    +0.000 A 
ATOM      5  C   UNL     1       3.368   6.836  18.047  0.00  0.00    +0.000 A 
ATOM      6  H   UNL     1       1.422   7.460  20.489  0.00  0.00    +0.000 HD
ENDROOT
BRANCH   4   7
ATOM      7  C   UNL     1       1.896   8.972  18.298  0.00  0.00    +0.000 C 
ATOM      8  O   UNL     1       2.254   9.574  17.291  0.00  0.00    +0.000 OA
ATOM      9  N   UNL     1       0.932   9.464  19.149  0.00  0.00    +0.000 N 
ATOM     10  H   UNL     1       0.664   8.909  19.953  0.00  0.00    +0.000 HD
BRANCH   9  11
ATOM     11  C   UNL     1       0.282  10.743  18.904  0.00  0.00    +0.000 C 
BRANCH  11  12
ATOM     12  C   UNL     1      -1.176  10.743  19.356  0.00  0.00    +0.000 C 
BRANCH  12  13
ATOM     13  C   UNL     1      -2.129  10.730  18.190  0.00  0.00    +0.000 A 
ATOM     14  C   UNL     1      -1.865   9.952  17.064  0.00  0.00    +0.000 A 
ATOM     15  C   UNL     1      -2.772   9.967  16.008  0.00  0.00    +0.000 A 
ATOM     16  C   UNL     1      -3.911  10.756  16.099  0.00  0.00    +0.000 A 
ATOM     17  C   UNL     1      -4.097  11.502  17.250  0.00  0.00    +0.000 A 
ATOM     18  N   UNL     1      -3.233  11.507  18.291  0.00  0.00    +0.000 NA
ENDBRANCH  12  13
ENDBRANCH  11  12
ENDBRANCH   9  11
ENDBRANCH   4   7
BRANCH   1  19
ATOM     19  C   UNL     1       4.300   4.442  18.510  0.00  0.00    +0.000 C 
ATOM     20  O   UNL     1       4.262   3.447  19.226  0.00  0.00    +0.000 OA
BRANCH  19  27
ATOM     21  C   UNL     1       7.242   5.406  18.640  0.00  0.00    +0.000 C 
ATOM     22  C   UNL     1       6.570   4.921  17.383  0.00  0.00    +0.000 A 
ATOM     23  C   UNL     1       7.342   4.942  16.201  0.00  0.00    +0.000 A 
ATOM     24  C   UNL     1       6.818   4.518  14.981  0.00  0.00    +0.000 A 
ATOM     25  C   UNL     1       5.502   4.093  14.910  0.00  0.00    +0.000 A 
ATOM     26  C   UNL     1       4.712   4.100  16.060  0.00  0.00    +0.000 A 
ATOM     27  C   UNL     1       5.229   4.475  17.316  0.00  0.00    +0.000 A 
ENDBRANCH  19  27
ENDBRANCH   1  19
TORSDOF 6
ENDMDL
MODEL 2
REMARK VINA RESULT:      -7.8      2.061      8.832
REMARK  Name = 
REMARK  7 active torsions:
REMARK  status: ('A' for Active; 'I' for Inactive)
REMARK    1  A    between atoms: C_1  and  C_2
REMARK    2  A    between atoms: C_7  and  C_8
REMARK    3  A    between atoms: C_8  and  C_10
REMARK    4  A    between atoms: C_13  and  C_14
REMARK    5  A    between atoms: N_16  and  C_17
REMARK    6  A    between atoms: C_17  and  C_18
REMARK    7  A    between atoms: C_18  and  C_19
REMARK                            x       y       z     vdW  Elec       q    Type
REMARK                         _______ _______ _______ _____ _____    ______ ____
ROOT
ATOM      1  C   UNL     1       1.944   8.666  18.783  0.00  0.00    +0.000 A 
ATOM      2  C   UNL     1       1.729   8.041  20.001  0.00  0.00    +0.000 A 
ATOM      3  N   UNL     1       2.374   6.833  19.998  0.00  0.00    +0.000 N 
ATOM      4  C   UNL     1       2.909   6.576  18.757  0.00  0.00    +0.000 A 
ATOM      5  C   UNL     1       2.626   7.691  17.978  0.00  0.00    +0.000 A 
ATOM      6  H   UNL     1       2.458   6.197  20.785  0.00  0.00    +0.000 HD
ENDROOT
BRANCH   4   7
ATOM      7  C   UNL     1       3.616   5.337  18.497  0.00  0.00    +0.000 C 
ATOM      8  O   UNL     1       3.917   4.562  19.399  0.00  0.00    +0.000 OA
ATOM      9  N   UNL     1       3.921   5.089  17.178  0.00  0.00    +0.000 N 
ATOM     10  H   UNL     1       3.626   5.757  16.476  0.00  0.00    +0.000 HD
BRANCH   9  11
ATOM     11  C   UNL     1       4.633   3.885  16.775  0.00  0.00    +0.000 C 
BRANCH  11  12
ATOM     12  C   UNL     1       6.019   4.198  16.215  0.00  0.00    +0.000 C 
BRANCH  12  13
ATOM     13  C   UNL     1       6.742   5.229  17.041  0.00  0.00    +0.000 A 
ATOM     14  C   UNL     1       7.327   4.883  18.257  0.00  0.00    +0.000 A 
ATOM     15  C   UNL     1       7.988   5.867  18.990  0.00  0.00    +0.000 A 
ATOM     16  C   UNL     1       8.045   7.162  18.495  0.00  0.00    +0.000 A 
ATOM     17  C   UNL     1       7.435   7.424  17.280  0.00  0.00    +0.000 A 
ATOM     18  N   UNL     1       6.786   6.490  16.548  0.00  0.00    +0.000 NA
ENDBRANCH  12  13
ENDBRANCH  11  12
ENDBRANCH   9  11
ENDBRANCH   4   7
BRANCH   1  19
ATOM     19  C   UNL     1       1.552  10.035  18.385  0.00  0.00    +0.000 C 
ATOM     20  O   UNL     1       2.170  10.640  17.516  0.00  0.00    +0.000 OA
BRANCH  19  27
ATOM     21  C   UNL     1      -1.408  10.006  17.473  0.00  0.00    +0.000 C 
ATOM     22  C   UNL     1      -0.915  10.711  18.708  0.00  0.00    +0.000 A 
ATOM     23  C   UNL     1      -1.878  11.417  19.464  0.00  0.00    +0.000 A 
ATOM     24  C   UNL     1      -1.529  12.107  20.623  0.00  0.00    +0.000 A 
ATOM     25  C   UNL     1      -0.208  12.134  21.035  0.00  0.00    +0.000 A 
ATOM     26  C   UNL     1       0.763  11.474  20.282  0.00  0.00    +0.000 A 
ATOM     27  C   UNL     1       0.433  10.726  19.134  0.00  0.00    +0.000 A 
ENDBRANCH  19  27
ENDBRANCH   1  19
TORSDOF 6
ENDMDL
MODEL 3
REMARK VINA RESULT:      -7.7      6.070      8.937
REMARK  Name = 
REMARK  7 active torsions:
REMARK  status: ('A' for Active; 'I' for Inactive)
REMARK    1  A    between atoms: C_1  and  C_2
REMARK    2  A    between atoms: C_7  and  C_8
REMARK    3  A    between atoms: C_8  and  C_10
REMARK    4  A    between atoms: C_13  and  C_14
REMARK    5  A    between atoms: N_16  and  C_17
REMARK    6  A    between atoms: C_17  and  C_18
REMARK    7  A    between atoms: C_18  and  C_19
REMARK                            x       y       z     vdW  Elec       q    Type
REMARK                         _______ _______ _______ _____ _____    ______ ____
ROOT
ATOM      1  C   UNL     1       8.641  10.731  18.178  0.00  0.00    +0.000 A 
ATOM      2  C   UNL     1       9.263  10.148  19.270  0.00  0.00    +0.000 A 
ATOM      3  N   UNL     1       9.048   8.796  19.232  0.00  0.00    +0.000 N 
ATOM      4  C   UNL     1       8.187   8.475  18.208  0.00  0.00    +0.000 A 
ATOM      5  C   UNL     1       7.897   9.668  17.560  0.00  0.00    +0.000 A 
ATOM      6  H   UNL     1       9.453   8.107  19.858  0.00  0.00    +0.000 HD
ENDROOT
BRANCH   4   7
ATOM      7  C   UNL     1       7.781   7.100  17.986  0.00  0.00    +0.000 C 
ATOM      8  O   UNL     1       7.712   6.289  18.904  0.00  0.00    +0.000 OA
ATOM      9  N   UNL     1       7.478   6.770  16.685  0.00  0.00    +0.000 N 
ATOM     10  H   UNL     1       7.533   7.491  15.974  0.00  0.00    +0.000 HD
BRANCH   9  11
ATOM     11  C   UNL     1       7.062   5.424  16.318  0.00  0.00    +0.000 C 
BRANCH  11  12
ATOM     12  C   UNL     1       5.695   5.410  15.638  0.00  0.00    +0.000 C 
BRANCH  12  13
ATOM     13  C   UNL     1       4.579   5.169  16.620  0.00  0.00    +0.000 A 
ATOM     14  C   UNL     1       4.068   6.215  17.387  0.00  0.00    +0.000 A 
ATOM     15  C   UNL     1       3.034   5.950  18.282  0.00  0.00    +0.000 A 
ATOM     16  C   UNL     1       2.542   4.656  18.392  0.00  0.00    +0.000 A 
ATOM     17  C   UNL     1       3.107   3.674  17.596  0.00  0.00    +0.000 A 
ATOM     18  N   UNL     1       4.111   3.902  16.719  0.00  0.00    +0.000 NA
ENDBRANCH  12  13
ENDBRANCH  11  12
ENDBRANCH   9  11
ENDBRANCH   4   7
BRANCH   1  19
ATOM     19  C   UNL     1       8.713  12.141  17.740  0.00  0.00    +0.000 C 
ATOM     20  O   UNL     1       7.819  12.638  17.063  0.00  0.00    +0.000 OA
BRANCH  19  27
ATOM     21  C   UNL     1       8.973  14.029  20.183  0.00  0.00    +0.000 C 
ATOM     22  C   UNL     1      10.065  13.808  19.170  0.00  0.00    +0.000 A 
ATOM     23  C   UNL     1      11.259  14.539  19.353  0.00  0.00    +0.000 A 
ATOM     24  C   UNL     1      12.332  14.413  18.473  0.00  0.00    +0.000 A 
ATOM     25  C   UNL     1      12.224  13.580  17.373  0.00  0.00    +0.000 A 
ATOM     26  C   UNL     1      11.038  12.877  17.154  0.00  0.00    +0.000 A 
ATOM     27  C   UNL     1       9.956  12.946  18.054  0.00  0.00    +0.000 A 
ENDBRANCH  19  27
ENDBRANCH   1  19
TORSDOF 6
ENDMDL
MODEL 4
REMARK VINA RESULT:      -7.7      2.080      3.277
REMARK  Name = 
REMARK  7 active torsions:
REMARK  status: ('A' for Active; 'I' for Inactive)
REMARK    1  A    between atoms: C_1  and  C_2
REMARK    2  A    between atoms: C_7  and  C_8
REMARK    3  A    between atoms: C_8  and  C_10
REMARK    4  A    between atoms: C_13  and  C_14
REMARK    5  A    between atoms: N_16  and  C_17
REMARK    6  A    between atoms: C_17  and  C_18
REMARK    7  A    between atoms: C_18  and  C_19
REMARK                            x       y       z     vdW  Elec       q    Type
REMARK                         _______ _______ _______ _____ _____    ______ ____
ROOT
ATOM      1  C   UNL     1       3.083   5.847  18.633  0.00  0.00    +0.000 A 
ATOM      2  C   UNL     1       2.486   6.167  19.841  0.00  0.00    +0.000 A 
ATOM      3  N   UNL     1       1.955   7.427  19.752  0.00  0.00    +0.000 N 
ATOM      4  C   UNL     1       2.297   8.009  18.553  0.00  0.00    +0.000 A 
ATOM      5  C   UNL     1       3.024   7.054  17.855  0.00  0.00    +0.000 A 
ATOM      6  H   UNL     1       1.390   7.890  20.456  0.00  0.00    +0.000 HD
ENDROOT
BRANCH   4   7
ATOM      7  C   UNL     1       1.876   9.362  18.240  0.00  0.00    +0.000 C 
ATOM      8  O   UNL     1       2.450  10.039  17.393  0.00  0.00    +0.000 OA
ATOM      9  N   UNL     1       0.795   9.829  18.951  0.00  0.00    +0.000 N 
ATOM     10  H   UNL     1       0.350   9.214  19.623  0.00  0.00    +0.000 HD
BRANCH   9  11
ATOM     11  C   UNL     1       0.270  11.171  18.744  0.00  0.00    +0.000 C 
BRANCH  11  12
ATOM     12  C   UNL     1       0.288  12.000  20.026  0.00  0.00    +0.000 C 
BRANCH  12  13
ATOM     13  C   UNL     1       0.134  11.142  21.255  0.00  0.00    +0.000 A 
ATOM     14  C   UNL     1      -0.987  11.266  22.074  0.00  0.00    +0.000 A 
ATOM     15  C   UNL     1      -1.092  10.453  23.200  0.00  0.00    +0.000 A 
ATOM     16  C   UNL     1      -0.081   9.543  23.480  0.00  0.00    +0.000 A 
ATOM     17  C   UNL     1       1.001   9.485  22.617  0.00  0.00    +0.000 A 
ATOM     18  N   UNL     1       1.130  10.262  21.518  0.00  0.00    +0.000 NA
ENDBRANCH  12  13
ENDBRANCH  11  12
ENDBRANCH   9  11
ENDBRANCH   4   7
BRANCH   1  19
ATOM     19  C   UNL     1       3.664   4.550  18.225  0.00  0.00    +0.000 C 
ATOM     20  O   UNL     1       3.192   3.493  18.628  0.00  0.00    +0.000 OA
BRANCH  19  27
ATOM     21  C   UNL     1       6.473   5.313  19.287  0.00  0.00    +0.000 C 
ATOM     22  C   UNL     1       6.195   4.894  17.868  0.00  0.00    +0.000 A 
ATOM     23  C   UNL     1       7.295   4.883  16.982  0.00  0.00    +0.000 A 
ATOM     24  C   UNL     1       7.149   4.514  15.646  0.00  0.00    +0.000 A 
ATOM     25  C   UNL     1       5.897   4.180  15.159  0.00  0.00    +0.000 A 
ATOM     26  C   UNL     1       4.792   4.221  16.010  0.00  0.00    +0.000 A 
ATOM     27  C   UNL     1       4.917   4.541  17.376  0.00  0.00    +0.000 A 
ENDBRANCH  19  27
ENDBRANCH   1  19
TORSDOF 6
ENDMDL
MODEL 5
REMARK VINA RESULT:      -7.6      4.911      8.213
REMARK  Name = 
REMARK  7 active torsions:
REMARK  status: ('A' for Active; 'I' for Inactive)
REMARK    1  A    between atoms: C_1  and  C_2
REMARK    2  A    between atoms: C_7  and  C_8
REMARK    3  A    between atoms: C_8  and  C_10
REMARK    4  A    between atoms: C_13  and  C_14
REMARK    5  A    between atoms: N_16  and  C_17
REMARK    6  A    between atoms: C_17  and  C_18
REMARK    7  A    between atoms: C_18  and  C_19
REMARK                            x       y       z     vdW  Elec       q    Type
REMARK                         _______ _______ _______ _____ _____    ______ ____
ROOT
ATOM      1  C   UNL     1       3.958   5.059  17.701  0.00  0.00    +0.000 A 
ATOM      2  C   UNL     1       3.518   6.373  17.723  0.00  0.00    +0.000 A 
ATOM      3  N   UNL     1       4.574   7.199  17.441  0.00  0.00    +0.000 N 
ATOM      4  C   UNL     1       5.741   6.475  17.360  0.00  0.00    +0.000 A 
ATOM      5  C   UNL     1       5.385   5.146  17.549  0.00  0.00    +0.000 A 
ATOM      6  H   UNL     1       4.530   8.204  17.310  0.00  0.00    +0.000 HD
ENDROOT
BRANCH   4   7
ATOM      7  C   UNL     1       7.006   7.137  17.101  0.00  0.00    +0.000 C 
ATOM      8  O   UNL     1       7.849   6.654  16.353  0.00  0.00    +0.000 OA
ATOM      9  N   UNL     1       7.192   8.338  17.746  0.00  0.00    +0.000 N 
ATOM     10  H   UNL     1       6.449   8.696  18.335  0.00  0.00    +0.000 HD
BRANCH   9  11
ATOM     11  C   UNL     1       8.417   9.107  17.583  0.00  0.00    +0.000 C 
BRANCH  11  12
ATOM     12  C   UNL     1       8.858   9.770  18.887  0.00  0.00    +0.000 C 
BRANCH  12  13
ATOM     13  C   UNL     1       9.554  11.083  18.645  0.00  0.00    +0.000 A 
ATOM     14  C   UNL     1      10.833  11.314  19.147  0.00  0.00    +0.000 A 
ATOM     15  C   UNL     1      11.443  12.542  18.900  0.00  0.00    +0.000 A 
ATOM     16  C   UNL     1      10.763  13.504  18.165  0.00  0.00    +0.000 A 
ATOM     17  C   UNL     1       9.494  13.197  17.705  0.00  0.00    +0.000 A 
ATOM     18  N   UNL     1       8.877  12.014  17.930  0.00  0.00    +0.000 NA
ENDBRANCH  12  13
ENDBRANCH  11  12
ENDBRANCH   9  11
ENDBRANCH   4   7
BRANCH   1  19
ATOM     19  C   UNL     1       3.147   3.829  17.818  0.00  0.00    +0.000 C 
ATOM     20  O   UNL     1       2.874   3.158  16.828  0.00  0.00    +0.000 OA
BRANCH  19  27
ATOM     21  C   UNL     1       4.714   2.279  19.995  0.00  0.00    +0.000 C 
ATOM     22  C   UNL     1       3.290   2.743  20.152  0.00  0.00    +0.000 A 
ATOM     23  C   UNL     1       2.645   2.415  21.365  0.00  0.00    +0.000 A 
ATOM     24  C   UNL     1       1.327   2.793  21.614  0.00  0.00    +0.000 A 
ATOM     25  C   UNL     1       0.615   3.478  20.645  0.00  0.00    +0.000 A 
ATOM     26  C   UNL     1       1.223   3.779  19.426  0.00  0.00    +0.000 A 
ATOM     27  C   UNL     1       2.569   3.454  19.166  0.00  0.00    +0.000 A 
ENDBRANCH  19  27
ENDBRANCH   1  19
TORSDOF 6
ENDMDL
MODEL 6
REMARK VINA RESULT:      -7.6      3.094      8.067
REMARK  Name = 
REMARK  7 active torsions:
REMARK  status: ('A' for Active; 'I' for Inactive)
REMARK    1  A    between atoms: C_1  and  C_2
REMARK    2  A    between atoms: C_7  and  C_8
REMARK    3  A    between atoms: C_8  and  C_10
REMARK    4  A    between atoms: C_13  and  C_14
REMARK    5  A    between atoms: N_16  and  C_17
REMARK    6  A    between atoms: C_17  and  C_18
REMARK    7  A    between atoms: C_18  and  C_19
REMARK                            x       y       z     vdW  Elec       q    Type
REMARK                         _______ _______ _______ _____ _____    ______ ____
ROOT
ATOM      1  C   UNL     1       1.495   8.764  19.021  0.00  0.00    +0.000 A 
ATOM      2  C   UNL     1       1.559   8.169  20.270  0.00  0.00    +0.000 A 
ATOM      3  N   UNL     1       2.429   7.112  20.214  0.00  0.00    +0.000 N 
ATOM      4  C   UNL     1       2.851   6.906  18.921  0.00  0.00    +0.000 A 
ATOM      5  C   UNL     1       2.258   7.904  18.158  0.00  0.00    +0.000 A 
ATOM      6  H   UNL     1       2.733   6.545  20.998  0.00  0.00    +0.000 HD
ENDROOT
BRANCH   4   7
ATOM      7  C   UNL     1       3.756   5.818  18.602  0.00  0.00    +0.000 C 
ATOM      8  O   UNL     1       4.829   5.679  19.179  0.00  0.00    +0.000 OA
ATOM      9  N   UNL     1       3.330   4.957  17.617  0.00  0.00    +0.000 N 
ATOM     10  H   UNL     1       2.423   5.113  17.193  0.00  0.00    +0.000 HD
BRANCH   9  11
ATOM     11  C   UNL     1       4.140   3.825  17.193  0.00  0.00    +0.000 C 
BRANCH  11  12
ATOM     12  C   UNL     1       3.601   2.500  17.727  0.00  0.00    +0.000 C 
BRANCH  12  13
ATOM     13  C   UNL     1       2.805   2.684  18.992  0.00  0.00    +0.000 A 
ATOM     14  C   UNL     1       3.406   2.530  20.240  0.00  0.00    +0.000 A 
ATOM     15  C   UNL     1       2.635   2.710  21.386  0.00  0.00    +0.000 A 
ATOM     16  C   UNL     1       1.291   3.034  21.259  0.00  0.00    +0.000 A 
ATOM     17  C   UNL     1       0.770   3.165  19.983  0.00  0.00    +0.000 A 
ATOM     18  N   UNL     1       1.494   2.995  18.853  0.00  0.00    +0.000 NA
ENDBRANCH  12  13
ENDBRANCH  11  12
ENDBRANCH   9  11
ENDBRANCH   4   7
BRANCH   1  19
ATOM     19  C   UNL     1       0.792  10.008  18.644  0.00  0.00    +0.000 C 
ATOM     20  O   UNL     1      -0.228   9.975  17.964  0.00  0.00    +0.000 OA
BRANCH  19  27
ATOM     21  C   UNL     1       0.187  11.476  21.305  0.00  0.00    +0.000 C 
ATOM     22  C   UNL     1       1.114  12.006  20.243  0.00  0.00    +0.000 A 
ATOM     23  C   UNL     1       1.710  13.263  20.489  0.00  0.00    +0.000 A 
ATOM     24  C   UNL     1       2.581  13.847  19.571  0.00  0.00    +0.000 A 
ATOM     25  C   UNL     1       2.851  13.204  18.376  0.00  0.00    +0.000 A 
ATOM     26  C   UNL     1       2.244  11.979  18.099  0.00  0.00    +0.000 A 
ATOM     27  C   UNL     1       1.399  11.341  19.028  0.00  0.00    +0.000 A 
ENDBRANCH  19  27
ENDBRANCH   1  19
TORSDOF 6
ENDMDL
MODEL 7
REMARK VINA RESULT:      -7.6      2.130      3.473
REMARK  Name = 
REMARK  7 active torsions:
REMARK  status: ('A' for Active; 'I' for Inactive)
REMARK    1  A    between atoms: C_1  and  C_2
REMARK    2  A    between atoms: C_7  and  C_8
REMARK    3  A    between atoms: C_8  and  C_10
REMARK    4  A    between atoms: C_13  and  C_14
REMARK    5  A    between atoms: N_16  and  C_17
REMARK    6  A    between atoms: C_17  and  C_18
REMARK    7  A    between atoms: C_18  and  C_19
REMARK                            x       y       z     vdW  Elec       q    Type
REMARK                         _______ _______ _______ _____ _____    ______ ____
ROOT
ATOM      1  C   UNL     1       2.724   7.073  18.966  0.00  0.00    +0.000 A 
ATOM      2  C   UNL     1       2.744   7.741  17.753  0.00  0.00    +0.000 A 
ATOM      3  N   UNL     1       2.133   8.958  17.907  0.00  0.00    +0.000 N 
ATOM      4  C   UNL     1       1.588   9.065  19.166  0.00  0.00    +0.000 A 
ATOM      5  C   UNL     1       1.918   7.891  19.830  0.00  0.00    +0.000 A 
ATOM      6  H   UNL     1       2.074   9.691  17.208  0.00  0.00    +0.000 HD
ENDROOT
BRANCH   4   7
ATOM      7  C   UNL     1       0.858  10.256  19.557  0.00  0.00    +0.000 C 
ATOM      8  O   UNL     1       0.727  10.579  20.733  0.00  0.00    +0.000 OA
ATOM      9  N   UNL     1       0.328  10.996  18.525  0.00  0.00    +0.000 N 
ATOM     10  H   UNL     1       0.489  10.689  17.572  0.00  0.00    +0.000 HD
BRANCH   9  11
ATOM     11  C   UNL     1      -0.433  12.212  18.772  0.00  0.00    +0.000 C 
BRANCH  11  12
ATOM     12  C   UNL     1      -1.886  11.916  19.137  0.00  0.00    +0.000 C 
BRANCH  12  13
ATOM     13  C   UNL     1      -2.701  11.521  17.934  0.00  0.00    +0.000 A 
ATOM     14  C   UNL     1      -4.060  11.824  17.864  0.00  0.00    +0.000 A 
ATOM     15  C   UNL     1      -4.777  11.442  16.733  0.00  0.00    +0.000 A 
ATOM     16  C   UNL     1      -4.127  10.770  15.708  0.00  0.00    +0.000 A 
ATOM     17  C   UNL     1      -2.776  10.504  15.857  0.00  0.00    +0.000 A 
ATOM     18  N   UNL     1      -2.054  10.861  16.943  0.00  0.00    +0.000 NA
ENDBRANCH  12  13
ENDBRANCH  11  12
ENDBRANCH   9  11
ENDBRANCH   4   7
BRANCH   1  19
ATOM     19  C   UNL     1       3.379   5.792  19.306  0.00  0.00    +0.000 C 
ATOM     20  O   UNL     1       4.560   5.755  19.634  0.00  0.00    +0.000 OA
BRANCH  19  27
ATOM     21  C   UNL     1       3.809   3.780  16.989  0.00  0.00    +0.000 C 
ATOM     22  C   UNL     1       2.799   3.593  18.090  0.00  0.00    +0.000 A 
ATOM     23  C   UNL     1       1.993   2.435  18.023  0.00  0.00    +0.000 A 
ATOM     24  C   UNL     1       1.025   2.165  18.987  0.00  0.00    +0.000 A 
ATOM     25  C   UNL     1       0.818   3.061  20.022  0.00  0.00    +0.000 A 
ATOM     26  C   UNL     1       1.578   4.229  20.085  0.00  0.00    +0.000 A 
ATOM     27  C   UNL     1       2.598   4.504  19.153  0.00  0.00    +0.000 A 
ENDBRANCH  19  27
ENDBRANCH   1  19
TORSDOF 6
ENDMDL
MODEL 8
REMARK VINA RESULT:      -7.5      2.644      8.152
REMARK  Name = 
REMARK  7 active torsions:
REMARK  status: ('A' for Active; 'I' for Inactive)
REMARK    1  A    between atoms: C_1  and  C_2
REMARK    2  A    between atoms: C_7  and  C_8
REMARK    3  A    between atoms: C_8  and  C_10
REMARK    4  A    between atoms: C_13  and  C_14
REMARK    5  A    between atoms: N_16  and  C_17
REMARK    6  A    between atoms: C_17  and  C_18
REMARK    7  A    between atoms: C_18  and  C_19
REMARK                            x       y       z     vdW  Elec       q    Type
REMARK                         _______ _______ _______ _____ _____    ______ ____
ROOT
ATOM      1  C   UNL     1       1.761   8.539  19.120  0.00  0.00    +0.000 A 
ATOM      2  C   UNL     1       2.333   8.864  17.901  0.00  0.00    +0.000 A 
ATOM      3  N   UNL     1       3.128   7.825  17.493  0.00  0.00    +0.000 N 
ATOM      4  C   UNL     1       3.203   6.864  18.476  0.00  0.00    +0.000 A 
ATOM      5  C   UNL     1       2.385   7.304  19.508  0.00  0.00    +0.000 A 
ATOM      6  H   UNL     1       3.606   7.751  16.602  0.00  0.00    +0.000 HD
ENDROOT
BRANCH   4   7
ATOM      7  C   UNL     1       4.017   5.678  18.289  0.00  0.00    +0.000 C 
ATOM      8  O   UNL     1       5.119   5.559  18.813  0.00  0.00    +0.000 OA
ATOM      9  N   UNL     1       3.469   4.699  17.492  0.00  0.00    +0.000 N 
ATOM     10  H   UNL     1       2.543   4.846  17.106  0.00  0.00    +0.000 HD
BRANCH   9  11
ATOM     11  C   UNL     1       4.177   3.458  17.215  0.00  0.00    +0.000 C 
BRANCH  11  12
ATOM     12  C   UNL     1       3.444   2.240  17.773  0.00  0.00    +0.000 C 
BRANCH  12  13
ATOM     13  C   UNL     1       2.709   2.560  19.048  0.00  0.00    +0.000 A 
ATOM     14  C   UNL     1       3.349   2.460  20.282  0.00  0.00    +0.000 A 
ATOM     15  C   UNL     1       2.634   2.766  21.438  0.00  0.00    +0.000 A 
ATOM     16  C   UNL     1       1.306   3.158  21.334  0.00  0.00    +0.000 A 
ATOM     17  C   UNL     1       0.744   3.228  20.070  0.00  0.00    +0.000 A 
ATOM     18  N   UNL     1       1.413   2.936  18.932  0.00  0.00    +0.000 NA
ENDBRANCH  12  13
ENDBRANCH  11  12
ENDBRANCH   9  11
ENDBRANCH   4   7
BRANCH   1  19
ATOM     19  C   UNL     1       0.737   9.295  19.871  0.00  0.00    +0.000 C 
ATOM     20  O   UNL     1       0.550   9.089  21.065  0.00  0.00    +0.000 OA
BRANCH  19  27
ATOM     21  C   UNL     1       1.201  12.358  19.810  0.00  0.00    +0.000 C 
ATOM     22  C   UNL     1       0.065  11.665  19.107  0.00  0.00    +0.000 A 
ATOM     23  C   UNL     1      -0.846  12.487  18.406  0.00  0.00    +0.000 A 
ATOM     24  C   UNL     1      -1.935  11.950  17.723  0.00  0.00    +0.000 A 
ATOM     25  C   UNL     1      -2.156  10.584  17.751  0.00  0.00    +0.000 A 
ATOM     26  C   UNL     1      -1.289   9.759  18.468  0.00  0.00    +0.000 A 
ATOM     27  C   UNL     1      -0.152  10.268  19.126  0.00  0.00    +0.000 A 
ENDBRANCH  19  27
ENDBRANCH   1  19
TORSDOF 6
ENDMDL
MODEL 9
REMARK VINA RESULT:      -7.5      2.893      3.411
REMARK  Name = 
REMARK  7 active torsions:
REMARK  status: ('A' for Active; 'I' for Inactive)
REMARK    1  A    between atoms: C_1  and  C_2
REMARK    2  A    between atoms: C_7  and  C_8
REMARK    3  A    between atoms: C_8  and  C_10
REMARK    4  A    between atoms: C_13  and  C_14
REMARK    5  A    between atoms: N_16  and  C_17
REMARK    6  A    between atoms: C_17  and  C_18
REMARK    7  A    between atoms: C_18  and  C_19
REMARK                            x       y       z     vdW  Elec       q    Type
REMARK                         _______ _______ _______ _____ _____    ______ ____
ROOT
ATOM      1  C   UNL     1       3.793   4.963  19.504  0.00  0.00    +0.000 A 
ATOM      2  C   UNL     1       2.811   4.681  20.439  0.00  0.00    +0.000 A 
ATOM      3  N   UNL     1       1.968   5.757  20.535  0.00  0.00    +0.000 N 
ATOM      4  C   UNL     1       2.441   6.806  19.780  0.00  0.00    +0.000 A 
ATOM      5  C   UNL     1       3.592   6.343  19.155  0.00  0.00    +0.000 A 
ATOM      6  H   UNL     1       1.114   5.802  21.080  0.00  0.00    +0.000 HD
ENDROOT
BRANCH   4   7
ATOM      7  C   UNL     1       1.734   8.072  19.748  0.00  0.00    +0.000 C 
ATOM      8  O   UNL     1       1.715   8.778  18.745  0.00  0.00    +0.000 OA
ATOM      9  N   UNL     1       1.087   8.423  20.910  0.00  0.00    +0.000 N 
ATOM     10  H   UNL     1       1.121   7.786  21.699  0.00  0.00    +0.000 HD
BRANCH   9  11
ATOM     11  C   UNL     1       0.343   9.669  21.021  0.00  0.00    +0.000 C 
BRANCH  11  12
ATOM     12  C   UNL     1      -0.161   9.914  22.441  0.00  0.00    +0.000 C 
BRANCH  12  13
ATOM     13  C   UNL     1      -0.737  11.296  22.606  0.00  0.00    +0.000 A 
ATOM     14  C   UNL     1      -1.956  11.487  23.254  0.00  0.00    +0.000 A 
ATOM     15  C   UNL     1      -2.452  12.781  23.387  0.00  0.00    +0.000 A 
ATOM     16  C   UNL     1      -1.726  13.846  22.870  0.00  0.00    +0.000 A 
ATOM     17  C   UNL     1      -0.526  13.570  22.238  0.00  0.00    +0.000 A 
ATOM     18  N   UNL     1      -0.020  12.324  22.093  0.00  0.00    +0.000 NA
ENDBRANCH  12  13
ENDBRANCH  11  12
ENDBRANCH   9  11
ENDBRANCH   4   7
BRANCH   1  19
ATOM     19  C   UNL     1       4.833   4.053  18.980  0.00  0.00    +0.000 C 
ATOM     20  O   UNL     1       5.221   3.093  19.637  0.00  0.00    +0.000 OA
BRANCH  19  27
ATOM     21  C   UNL     1       7.549   5.521  18.709  0.00  0.00    +0.000 C 
ATOM     22  C   UNL     1       6.728   5.047  17.539  0.00  0.00    +0.000 A 
ATOM     23  C   UNL     1       7.237   5.326  16.252  0.00  0.00    +0.000 A 
ATOM     24  C   UNL     1       6.556   4.935  15.100  0.00  0.00    +0.000 A 
ATOM     25  C   UNL     1       5.339   4.287  15.209  0.00  0.00    +0.000 A 
ATOM     26  C   UNL     1       4.801   4.036  16.472  0.00  0.00    +0.000 A 
ATOM     27  C   UNL     1       5.490   4.374  17.654  0.00  0.00    +0.000 A 
ENDBRANCH  19  27
ENDBRANCH   1  19
TORSDOF 6
ENDMDL
