MODEL 1
REMARK VINA RESULT:      -7.9      0.000      0.000
REMARK  Name = 
REMARK  5 active torsions:
REMARK  status: ('A' for Active; 'I' for Inactive)
REMARK    1  A    between atoms: C_2  and  OXT_3
REMARK    2  A    between atoms: C_2  and  CA_4
REMARK    3  A    between atoms: C_8  and  N_9
REMARK    4  A    between atoms: N_9  and  C_10
REMARK    5  A    between atoms: C_10  and  C_11
REMARK                            x       y       z     vdW  Elec       q    Type
REMARK                         _______ _______ _______ _____ _____    ______ ____
ROOT
ATOM      1  CA  UNL     1       6.470   4.475  15.104  0.00  0.00    +0.000 C 
ATOM      2  C   UNL     1       5.577   5.694  15.339  0.00  0.00    +0.000 C 
ATOM      3  C   UNL     1       5.096   5.765  16.790  0.00  0.00    +0.000 C 
ATOM      4  C   UNL     1       4.045   4.680  17.114  0.00  0.00    +0.000 C 
ATOM      5  C   UNL     1       4.093   3.959  18.483  0.00  0.00    +0.000 C 
ATOM      6  C   UNL     1       5.091   4.511  19.521  0.00  0.00    +0.000 C 
ATOM      7  C   UNL     1       5.825   5.790  19.157  0.00  0.00    +0.000 C 
ATOM      8  C   UNL     1       6.314   5.787  17.711  0.00  0.00    +0.000 C 
ATOM      9  C   UNL     1       7.311   4.653  17.408  0.00  0.00    +0.000 C 
ATOM     10  N   UNL     1       7.677   4.500  15.989  0.00  0.00    +0.000 NA
ATOM     11  H   UNL     1       8.109   3.568  15.921  0.00  0.00    +0.000 HD
ENDROOT
BRANCH   1  13
ATOM     12  O   UNL     1       7.635   5.318  13.119  0.00  0.00    +0.000 OA
ATOM     13  C   UNL     1       6.926   4.473  13.634  0.00  0.00    +0.000 C 
BRANCH  13  14
ATOM     14  OXT UNL     1       6.451   3.391  12.960  0.00  0.00    +0.000 OA
ATOM     15  HXT UNL     1       5.510   3.596  12.738  0.00  0.00    +0.000 HD
ENDBRANCH  13  14
ENDBRANCH   1  13
BRANCH   5  16
ATOM     16  N   UNL     1       4.269   2.491  18.283  0.00  0.00    +0.000 NA
ATOM     17  H   UNL     1       4.748   2.320  17.396  0.00  0.00    +0.000 HD
BRANCH  16  18
ATOM     18  C   UNL     1       2.968   1.791  18.218  0.00  0.00    +0.000 C 
BRANCH  18  19
ATOM     19  C   UNL     1       1.994   2.239  19.258  0.00  0.00    +0.000 A 
ATOM     20  N   UNL     1       2.351   2.308  20.584  0.00  0.00    +0.000 NA
ATOM     21  N   UNL     1       1.348   2.902  21.212  0.00  0.00    +0.000 NA
ATOM     22  N   UNL     1       0.450   3.158  20.253  0.00  0.00    +0.000 N 
ATOM     23  N   UNL     1       0.790   2.778  19.008  0.00  0.00    +0.000 NA
ATOM     24  H   UNL     1      -0.420   3.636  20.461  0.00  0.00    +0.000 HD
ENDBRANCH  18  19
ENDBRANCH  16  18
ENDBRANCH   5  16
TORSDOF 5
ENDMDL
MODEL 2
REMARK VINA RESULT:      -7.8      0.444      1.184
REMARK  Name = 
REMARK  5 active torsions:
REMARK  status: ('A' for Active; 'I' for Inactive)
REMARK    1  A    between atoms: C_2  and  OXT_3
REMARK    2  A    between atoms: C_2  and  CA_4
REMARK    3  A    between atoms: C_8  and  N_9
REMARK    4  A    between atoms: N_9  and  C_10
REMARK    5  A    between atoms: C_10  and  C_11
REMARK                            x       y       z     vdW  Elec       q    Type
REMARK                         _______ _______ _______ _____ _____    ______ ____
ROOT
ATOM      1  CA  UNL     1       6.567   4.561  15.051  0.00  0.00    +0.000 C 
ATOM      2  C   UNL     1       5.603   5.717  15.321  0.00  0.00    +0.000 C 
ATOM      3  C   UNL     1       5.067   5.676  16.755  0.00  0.00    +0.000 C 
ATOM      4  C   UNL     1       4.063   4.521  16.972  0.00  0.00    +0.000 C 
ATOM      5  C   UNL     1       4.099   3.722  18.298  0.00  0.00    +0.000 C 
ATOM      6  C   UNL     1       5.028   4.259  19.405  0.00  0.00    +0.000 C 
ATOM      7  C   UNL     1       5.707   5.593  19.146  0.00  0.00    +0.000 C 
ATOM      8  C   UNL     1       6.248   5.703  17.722  0.00  0.00    +0.000 C 
ATOM      9  C   UNL     1       7.313   4.640  17.393  0.00  0.00    +0.000 C 
ATOM     10  N   UNL     1       7.738   4.592  15.983  0.00  0.00    +0.000 NA
ATOM     11  H   UNL     1       8.221   3.689  15.878  0.00  0.00    +0.000 HD
ENDROOT
BRANCH   1  13
ATOM     12  O   UNL     1       6.670   4.008  12.665  0.00  0.00    +0.000 OA
ATOM     13  C   UNL     1       7.076   4.670  13.602  0.00  0.00    +0.000 C 
BRANCH  13  14
ATOM     14  OXT UNL     1       8.042   5.620  13.478  0.00  0.00    +0.000 OA
ATOM     15  HXT UNL     1       8.898   5.171  13.688  0.00  0.00    +0.000 HD
ENDBRANCH  13  14
ENDBRANCH   1  13
BRANCH   5  16
ATOM     16  N   UNL     1       4.359   2.280  18.019  0.00  0.00    +0.000 NA
ATOM     17  H   UNL     1       4.255   2.099  17.018  0.00  0.00    +0.000 HD
BRANCH  16  18
ATOM     18  C   UNL     1       3.393   1.407  18.721  0.00  0.00    +0.000 C 
BRANCH  18  19
ATOM     19  C   UNL     1       2.160   2.121  19.173  0.00  0.00    +0.000 A 
ATOM     20  N   UNL     1       1.085   2.283  18.332  0.00  0.00    +0.000 NA
ATOM     21  N   UNL     1       0.104   2.781  19.070  0.00  0.00    +0.000 NA
ATOM     22  N   UNL     1       0.625   2.894  20.298  0.00  0.00    +0.000 N 
ATOM     23  N   UNL     1       1.903   2.493  20.437  0.00  0.00    +0.000 NA
ATOM     24  H   UNL     1       0.071   3.236  21.075  0.00  0.00    +0.000 HD
ENDBRANCH  18  19
ENDBRANCH  16  18
ENDBRANCH   5  16
TORSDOF 5
ENDMDL
MODEL 3
REMARK VINA RESULT:      -7.8      3.409      6.017
REMARK  Name = 
REMARK  5 active torsions:
REMARK  status: ('A' for Active; 'I' for Inactive)
REMARK    1  A    between atoms: C_2  and  OXT_3
REMARK    2  A    between atoms: C_2  and  CA_4
REMARK    3  A    between atoms: C_8  and  N_9
REMARK    4  A    between atoms: N_9  and  C_10
REMARK    5  A    between atoms: C_10  and  C_11
REMARK                            x       y       z     vdW  Elec       q    Type
REMARK                         _______ _______ _______ _____ _____    ______ ____
ROOT
ATOM      1  CA  UNL     1       2.521   6.732  18.814  0.00  0.00    +0.000 C 
ATOM      2  C   UNL     1       1.704   5.770  17.951  0.00  0.00    +0.000 C 
ATOM      3  C   UNL     1       1.965   4.312  18.335  0.00  0.00    +0.000 C 
ATOM      4  C   UNL     1       3.368   3.832  17.899  0.00  0.00    +0.000 C 
ATOM      5  C   UNL     1       4.185   2.915  18.841  0.00  0.00    +0.000 C 
ATOM      6  C   UNL     1       3.457   2.384  20.092  0.00  0.00    +0.000 C 
ATOM      7  C   UNL     1       1.974   2.690  20.208  0.00  0.00    +0.000 C 
ATOM      8  C   UNL     1       1.647   4.130  19.818  0.00  0.00    +0.000 C 
ATOM      9  C   UNL     1       2.343   5.175  20.709  0.00  0.00    +0.000 C 
ATOM     10  N   UNL     1       2.200   6.574  20.268  0.00  0.00    +0.000 NA
ATOM     11  H   UNL     1       2.921   7.094  20.786  0.00  0.00    +0.000 HD
ENDROOT
BRANCH   1  13
ATOM     12  O   UNL     1       2.496   8.668  17.311  0.00  0.00    +0.000 OA
ATOM     13  C   UNL     1       2.202   8.175  18.385  0.00  0.00    +0.000 C 
BRANCH  13  14
ATOM     14  OXT UNL     1       1.527   8.852  19.353  0.00  0.00    +0.000 OA
ATOM     15  HXT UNL     1       1.862   9.781  19.324  0.00  0.00    +0.000 HD
ENDBRANCH  13  14
ENDBRANCH   1  13
BRANCH   5  16
ATOM     16  N   UNL     1       5.477   3.569  19.197  0.00  0.00    +0.000 NA
ATOM     17  H   UNL     1       5.615   3.529  20.210  0.00  0.00    +0.000 HD
BRANCH  16  18
ATOM     18  C   UNL     1       5.489   4.997  18.814  0.00  0.00    +0.000 C 
BRANCH  18  19
ATOM     19  C   UNL     1       6.452   5.315  17.716  0.00  0.00    +0.000 A 
ATOM     20  N   UNL     1       6.867   4.346  16.833  0.00  0.00    +0.000 NA
ATOM     21  N   UNL     1       7.558   4.970  15.891  0.00  0.00    +0.000 NA
ATOM     22  N   UNL     1       7.528   6.260  16.244  0.00  0.00    +0.000 N 
ATOM     23  N   UNL     1       6.849   6.550  17.370  0.00  0.00    +0.000 NA
ATOM     24  H   UNL     1       7.972   6.972  15.675  0.00  0.00    +0.000 HD
ENDBRANCH  18  19
ENDBRANCH  16  18
ENDBRANCH   5  16
TORSDOF 5
ENDMDL
MODEL 4
REMARK VINA RESULT:      -7.8      3.631      6.049
REMARK  Name = 
REMARK  5 active torsions:
REMARK  status: ('A' for Active; 'I' for Inactive)
REMARK    1  A    between atoms: C_2  and  OXT_3
REMARK    2  A    between atoms: C_2  and  CA_4
REMARK    3  A    between atoms: C_8  and  N_9
REMARK    4  A    between atoms: N_9  and  C_10
REMARK    5  A    between atoms: C_10  and  C_11
REMARK                            x       y       z     vdW  Elec       q    Type
REMARK                         _______ _______ _______ _____ _____    ______ ____
ROOT
ATOM      1  CA  UNL     1       4.493   2.027  20.094  0.00  0.00    +0.000 C 
ATOM      2  C   UNL     1       3.231   2.305  20.912  0.00  0.00    +0.000 C 
ATOM      3  C   UNL     1       2.319   3.313  20.209  0.00  0.00    +0.000 C 
ATOM      4  C   UNL     1       2.897   4.746  20.236  0.00  0.00    +0.000 C 
ATOM      5  C   UNL     1       2.759   5.646  18.984  0.00  0.00    +0.000 C 
ATOM      6  C   UNL     1       1.878   5.107  17.838  0.00  0.00    +0.000 C 
ATOM      7  C   UNL     1       1.117   3.820  18.103  0.00  0.00    +0.000 C 
ATOM      8  C   UNL     1       1.971   2.778  18.822  0.00  0.00    +0.000 C 
ATOM      9  C   UNL     1       3.214   2.352  18.019  0.00  0.00    +0.000 C 
ATOM     10  N   UNL     1       4.161   1.483  18.740  0.00  0.00    +0.000 NA
ATOM     11  H   UNL     1       5.030   1.516  18.190  0.00  0.00    +0.000 HD
ENDROOT
BRANCH   1  13
ATOM     12  O   UNL     1       5.768   1.133  21.987  0.00  0.00    +0.000 OA
ATOM     13  C   UNL     1       5.355   1.000  20.850  0.00  0.00    +0.000 C 
BRANCH  13  14
ATOM     14  OXT UNL     1       5.600  -0.105  20.096  0.00  0.00    +0.000 OA
ATOM     15  HXT UNL     1       6.583  -0.170  20.014  0.00  0.00    +0.000 HD
ENDBRANCH  13  14
ENDBRANCH   1  13
BRANCH   5  16
ATOM     16  N   UNL     1       4.108   6.048  18.492  0.00  0.00    +0.000 NA
ATOM     17  H   UNL     1       4.182   5.850  17.491  0.00  0.00    +0.000 HD
BRANCH  16  18
ATOM     18  C   UNL     1       5.182   5.289  19.166  0.00  0.00    +0.000 C 
BRANCH  18  19
ATOM     19  C   UNL     1       6.323   4.937  18.267  0.00  0.00    +0.000 A 
ATOM     20  N   UNL     1       7.578   4.693  18.772  0.00  0.00    +0.000 NA
ATOM     21  N   UNL     1       8.306   4.240  17.764  0.00  0.00    +0.000 NA
ATOM     22  N   UNL     1       7.472   4.232  16.717  0.00  0.00    +0.000 N 
ATOM     23  N   UNL     1       6.215   4.649  16.960  0.00  0.00    +0.000 NA
ATOM     24  H   UNL     1       7.773   3.904  15.806  0.00  0.00    +0.000 HD
ENDBRANCH  18  19
ENDBRANCH  16  18
ENDBRANCH   5  16
TORSDOF 5
ENDMDL
MODEL 5
REMARK VINA RESULT:      -7.8      3.463      6.230
REMARK  Name = 
REMARK  5 active torsions:
REMARK  status: ('A' for Active; 'I' for Inactive)
REMARK    1  A    between atoms: C_2  and  OXT_3
REMARK    2  A    between atoms: C_2  and  CA_4
REMARK    3  A    between atoms: C_8  and  N_9
REMARK    4  A    between atoms: N_9  and  C_10
REMARK    5  A    between atoms: C_10  and  C_11
REMARK                            x       y       z     vdW  Elec       q    Type
REMARK                         _______ _______ _______ _____ _____    ______ ____
ROOT
ATOM      1  CA  UNL     1       4.520   2.063  20.051  0.00  0.00    +0.000 C 
ATOM      2  C   UNL     1       3.282   2.439  20.867  0.00  0.00    +0.000 C 
ATOM      3  C   UNL     1       2.436   3.494  20.148  0.00  0.00    +0.000 C 
ATOM      4  C   UNL     1       3.109   4.885  20.149  0.00  0.00    +0.000 C 
ATOM      5  C   UNL     1       3.026   5.770  18.882  0.00  0.00    +0.000 C 
ATOM      6  C   UNL     1       2.107   5.272  17.748  0.00  0.00    +0.000 C 
ATOM      7  C   UNL     1       1.263   4.042  18.037  0.00  0.00    +0.000 C 
ATOM      8  C   UNL     1       2.048   2.958  18.772  0.00  0.00    +0.000 C 
ATOM      9  C   UNL     1       3.257   2.436  17.973  0.00  0.00    +0.000 C 
ATOM     10  N   UNL     1       4.147   1.519  18.707  0.00  0.00    +0.000 NA
ATOM     11  H   UNL     1       5.014   1.485  18.154  0.00  0.00    +0.000 HD
ENDROOT
BRANCH   1  13
ATOM     12  O   UNL     1       5.684   1.094  21.977  0.00  0.00    +0.000 OA
ATOM     13  C   UNL     1       5.314   0.994  20.822  0.00  0.00    +0.000 C 
BRANCH  13  14
ATOM     14  OXT UNL     1       5.552  -0.106  20.058  0.00  0.00    +0.000 OA
ATOM     15  HXT UNL     1       4.747  -0.674  20.135  0.00  0.00    +0.000 HD
ENDBRANCH  13  14
ENDBRANCH   1  13
BRANCH   5  16
ATOM     16  N   UNL     1       4.397   6.073  18.379  0.00  0.00    +0.000 NA
ATOM     17  H   UNL     1       4.624   7.052  18.569  0.00  0.00    +0.000 HD
BRANCH  16  18
ATOM     18  C   UNL     1       4.495   5.880  16.916  0.00  0.00    +0.000 C 
BRANCH  18  19
ATOM     19  C   UNL     1       5.817   5.343  16.470  0.00  0.00    +0.000 A 
ATOM     20  N   UNL     1       6.389   5.754  15.289  0.00  0.00    +0.000 NA
ATOM     21  N   UNL     1       7.612   5.247  15.269  0.00  0.00    +0.000 NA
ATOM     22  N   UNL     1       7.718   4.567  16.418  0.00  0.00    +0.000 N 
ATOM     23  N   UNL     1       6.637   4.590  17.220  0.00  0.00    +0.000 NA
ATOM     24  H   UNL     1       8.577   4.090  16.670  0.00  0.00    +0.000 HD
ENDBRANCH  18  19
ENDBRANCH  16  18
ENDBRANCH   5  16
TORSDOF 5
ENDMDL
MODEL 6
REMARK VINA RESULT:      -7.7      3.674      5.984
REMARK  Name = 
REMARK  5 active torsions:
REMARK  status: ('A' for Active; 'I' for Inactive)
REMARK    1  A    between atoms: C_2  and  OXT_3
REMARK    2  A    between atoms: C_2  and  CA_4
REMARK    3  A    between atoms: C_8  and  N_9
REMARK    4  A    between atoms: N_9  and  C_10
REMARK    5  A    between atoms: C_10  and  C_11
REMARK                            x       y       z     vdW  Elec       q    Type
REMARK                         _______ _______ _______ _____ _____    ______ ____
ROOT
ATOM      1  CA  UNL     1       2.489   6.652  18.746  0.00  0.00    +0.000 C 
ATOM      2  C   UNL     1       1.547   5.751  17.946  0.00  0.00    +0.000 C 
ATOM      3  C   UNL     1       1.738   4.276  18.310  0.00  0.00    +0.000 C 
ATOM      4  C   UNL     1       3.070   3.707  17.771  0.00  0.00    +0.000 C 
ATOM      5  C   UNL     1       3.892   2.733  18.649  0.00  0.00    +0.000 C 
ATOM      6  C   UNL     1       3.225   2.245  19.952  0.00  0.00    +0.000 C 
ATOM      7  C   UNL     1       1.779   2.649  20.177  0.00  0.00    +0.000 C 
ATOM      8  C   UNL     1       1.520   4.109  19.812  0.00  0.00    +0.000 C 
ATOM      9  C   UNL     1       2.348   5.101  20.650  0.00  0.00    +0.000 C 
ATOM     10  N   UNL     1       2.267   6.508  20.219  0.00  0.00    +0.000 NA
ATOM     11  H   UNL     1       3.057   6.977  20.682  0.00  0.00    +0.000 HD
ENDROOT
BRANCH   1  13
ATOM     12  O   UNL     1       2.552   8.612  17.276  0.00  0.00    +0.000 OA
ATOM     13  C   UNL     1       2.235   8.115  18.341  0.00  0.00    +0.000 C 
BRANCH  13  14
ATOM     14  OXT UNL     1       1.590   8.804  19.320  0.00  0.00    +0.000 OA
ATOM     15  HXT UNL     1       1.290   9.651  18.909  0.00  0.00    +0.000 HD
ENDBRANCH  13  14
ENDBRANCH   1  13
BRANCH   5  16
ATOM     16  N   UNL     1       5.248   3.298  18.909  0.00  0.00    +0.000 NA
ATOM     17  H   UNL     1       5.350   3.501  19.906  0.00  0.00    +0.000 HD
BRANCH  16  18
ATOM     18  C   UNL     1       5.456   4.569  18.183  0.00  0.00    +0.000 C 
BRANCH  18  19
ATOM     19  C   UNL     1       6.685   5.306  18.606  0.00  0.00    +0.000 A 
ATOM     20  N   UNL     1       7.199   6.328  17.844  0.00  0.00    +0.000 NA
ATOM     21  N   UNL     1       8.159   6.886  18.564  0.00  0.00    +0.000 NA
ATOM     22  N   UNL     1       8.179   6.188  19.706  0.00  0.00    +0.000 N 
ATOM     23  N   UNL     1       7.280   5.191  19.804  0.00  0.00    +0.000 NA
ATOM     24  H   UNL     1       8.819   6.424  20.456  0.00  0.00    +0.000 HD
ENDBRANCH  18  19
ENDBRANCH  16  18
ENDBRANCH   5  16
TORSDOF 5
ENDMDL
MODEL 7
REMARK VINA RESULT:      -7.7      3.640      6.363
REMARK  Name = 
REMARK  5 active torsions:
REMARK  status: ('A' for Active; 'I' for Inactive)
REMARK    1  A    between atoms: C_2  and  OXT_3
REMARK    2  A    between atoms: C_2  and  CA_4
REMARK    3  A    between atoms: C_8  and  N_9
REMARK    4  A    between atoms: N_9  and  C_10
REMARK    5  A    between atoms: C_10  and  C_11
REMARK                            x       y       z     vdW  Elec       q    Type
REMARK                         _______ _______ _______ _____ _____    ______ ____
ROOT
ATOM      1  CA  UNL     1       2.366   6.401  19.718  0.00  0.00    +0.000 C 
ATOM      2  C   UNL     1       1.673   5.890  18.453  0.00  0.00    +0.000 C 
ATOM      3  C   UNL     1       2.028   4.428  18.172  0.00  0.00    +0.000 C 
ATOM      4  C   UNL     1       3.485   4.260  17.686  0.00  0.00    +0.000 C 
ATOM      5  C   UNL     1       4.321   3.058  18.188  0.00  0.00    +0.000 C 
ATOM      6  C   UNL     1       3.572   1.989  19.010  0.00  0.00    +0.000 C 
ATOM      7  C   UNL     1       2.065   2.142  19.126  0.00  0.00    +0.000 C 
ATOM      8  C   UNL     1       1.646   3.587  19.388  0.00  0.00    +0.000 C 
ATOM      9  C   UNL     1       2.210   4.153  20.705  0.00  0.00    +0.000 C 
ATOM     10  N   UNL     1       1.981   5.593  20.919  0.00  0.00    +0.000 NA
ATOM     11  H   UNL     1       2.630   5.860  21.671  0.00  0.00    +0.000 HD
ENDROOT
BRANCH   1  13
ATOM     12  O   UNL     1       1.795   8.694  19.070  0.00  0.00    +0.000 OA
ATOM     13  C   UNL     1       1.957   7.867  19.947  0.00  0.00    +0.000 C 
BRANCH  13  14
ATOM     14  OXT UNL     1       1.779   8.139  21.268  0.00  0.00    +0.000 OA
ATOM     15  HXT UNL     1       1.782   7.267  21.732  0.00  0.00    +0.000 HD
ENDBRANCH  13  14
ENDBRANCH   1  13
BRANCH   5  16
ATOM     16  N   UNL     1       5.537   3.542  18.903  0.00  0.00    +0.000 NA
ATOM     17  H   UNL     1       5.408   3.435  19.912  0.00  0.00    +0.000 HD
BRANCH  16  18
ATOM     18  C   UNL     1       5.783   4.978  18.647  0.00  0.00    +0.000 C 
BRANCH  18  19
ATOM     19  C   UNL     1       6.548   5.239  17.389  0.00  0.00    +0.000 A 
ATOM     20  N   UNL     1       7.466   4.333  16.915  0.00  0.00    +0.000 NA
ATOM     21  N   UNL     1       7.830   4.761  15.716  0.00  0.00    +0.000 NA
ATOM     22  N   UNL     1       7.127   5.884  15.527  0.00  0.00    +0.000 N 
ATOM     23  N   UNL     1       6.300   6.239  16.529  0.00  0.00    +0.000 NA
ATOM     24  H   UNL     1       7.201   6.413  14.665  0.00  0.00    +0.000 HD
ENDBRANCH  18  19
ENDBRANCH  16  18
ENDBRANCH   5  16
TORSDOF 5
ENDMDL
MODEL 8
REMARK VINA RESULT:      -7.6      0.575      1.049
REMARK  Name = 
REMARK  5 active torsions:
REMARK  status: ('A' for Active; 'I' for Inactive)
REMARK    1  A    between atoms: C_2  and  OXT_3
REMARK    2  A    between atoms: C_2  and  CA_4
REMARK    3  A    between atoms: C_8  and  N_9
REMARK    4  A    between atoms: N_9  and  C_10
REMARK    5  A    between atoms: C_10  and  C_11
REMARK                            x       y       z     vdW  Elec       q    Type
REMARK                         _______ _______ _______ _____ _____    ______ ____
ROOT
ATOM      1  CA  UNL     1       6.463   4.389  14.939  0.00  0.00    +0.000 C 
ATOM      2  C   UNL     1       5.521   5.581  15.115  0.00  0.00    +0.000 C 
ATOM      3  C   UNL     1       5.090   5.744  16.575  0.00  0.00    +0.000 C 
ATOM      4  C   UNL     1       4.106   4.640  17.023  0.00  0.00    +0.000 C 
ATOM      5  C   UNL     1       4.238   4.032  18.440  0.00  0.00    +0.000 C 
ATOM      6  C   UNL     1       5.245   4.709  19.392  0.00  0.00    +0.000 C 
ATOM      7  C   UNL     1       5.903   5.987  18.902  0.00  0.00    +0.000 C 
ATOM      8  C   UNL     1       6.339   5.893  17.441  0.00  0.00    +0.000 C 
ATOM      9  C   UNL     1       7.377   4.785  17.187  0.00  0.00    +0.000 C 
ATOM     10  N   UNL     1       7.699   4.537  15.770  0.00  0.00    +0.000 NA
ATOM     11  H   UNL     1       8.172   3.624  15.757  0.00  0.00    +0.000 HD
ENDROOT
BRANCH   1  13
ATOM     12  O   UNL     1       7.573   5.088  12.869  0.00  0.00    +0.000 OA
ATOM     13  C   UNL     1       6.865   4.291  13.456  0.00  0.00    +0.000 C 
BRANCH  13  14
ATOM     14  OXT UNL     1       6.340   3.185  12.863  0.00  0.00    +0.000 OA
ATOM     15  HXT UNL     1       6.279   2.497  13.570  0.00  0.00    +0.000 HD
ENDBRANCH  13  14
ENDBRANCH   1  13
BRANCH   5  16
ATOM     16  N   UNL     1       4.478   2.563  18.347  0.00  0.00    +0.000 NA
ATOM     17  H   UNL     1       4.635   2.302  17.371  0.00  0.00    +0.000 HD
BRANCH  16  18
ATOM     18  C   UNL     1       3.310   1.790  18.822  0.00  0.00    +0.000 C 
BRANCH  18  19
ATOM     19  C   UNL     1       2.695   2.339  20.069  0.00  0.00    +0.000 A 
ATOM     20  N   UNL     1       1.366   2.689  20.111  0.00  0.00    +0.000 NA
ATOM     21  N   UNL     1       1.091   2.962  21.377  0.00  0.00    +0.000 NA
ATOM     22  N   UNL     1       2.246   2.769  22.026  0.00  0.00    +0.000 N 
ATOM     23  N   UNL     1       3.288   2.372  21.272  0.00  0.00    +0.000 NA
ATOM     24  H   UNL     1       2.312   2.890  23.031  0.00  0.00    +0.000 HD
ENDBRANCH  18  19
ENDBRANCH  16  18
ENDBRANCH   5  16
TORSDOF 5
ENDMDL
MODEL 9
REMARK VINA RESULT:      -7.6      3.383      6.133
REMARK  Name = 
REMARK  5 active torsions:
REMARK  status: ('A' for Active; 'I' for Inactive)
REMARK    1  A    between atoms: C_2  and  OXT_3
REMARK    2  A    between atoms: C_2  and  CA_4
REMARK    3  A    between atoms: C_8  and  N_9
REMARK    4  A    between atoms: N_9  and  C_10
REMARK    5  A    between atoms: C_10  and  C_11
REMARK                            x       y       z     vdW  Elec       q    Type
REMARK                         _______ _______ _______ _____ _____    ______ ____
ROOT
ATOM      1  CA  UNL     1       2.516   6.687  18.707  0.00  0.00    +0.000 C 
ATOM      2  C   UNL     1       1.516   5.834  17.925  0.00  0.00    +0.000 C 
ATOM      3  C   UNL     1       1.819   4.340  18.070  0.00  0.00    +0.000 C 
ATOM      4  C   UNL     1       3.089   3.922  17.296  0.00  0.00    +0.000 C 
ATOM      5  C   UNL     1       4.064   2.900  17.931  0.00  0.00    +0.000 C 
ATOM      6  C   UNL     1       3.601   2.218  19.234  0.00  0.00    +0.000 C 
ATOM      7  C   UNL     1       2.182   2.504  19.692  0.00  0.00    +0.000 C 
ATOM      8  C   UNL     1       1.812   3.979  19.554  0.00  0.00    +0.000 C 
ATOM      9  C   UNL     1       2.701   4.911  20.398  0.00  0.00    +0.000 C 
ATOM     10  N   UNL     1       2.501   6.352  20.166  0.00  0.00    +0.000 NA
ATOM     11  H   UNL     1       3.325   6.809  20.580  0.00  0.00    +0.000 HD
ENDROOT
BRANCH   1  13
ATOM     12  O   UNL     1       1.594   8.860  19.365  0.00  0.00    +0.000 OA
ATOM     13  C   UNL     1       2.146   8.170  18.528  0.00  0.00    +0.000 C 
BRANCH  13  14
ATOM     14  OXT UNL     1       2.526   8.641  17.310  0.00  0.00    +0.000 OA
ATOM     15  HXT UNL     1       1.764   8.477  16.702  0.00  0.00    +0.000 HD
ENDBRANCH  13  14
ENDBRANCH   1  13
BRANCH   5  16
ATOM     16  N   UNL     1       5.417   3.510  18.085  0.00  0.00    +0.000 NA
ATOM     17  H   UNL     1       5.618   3.653  19.077  0.00  0.00    +0.000 HD
BRANCH  16  18
ATOM     18  C   UNL     1       5.494   4.834  17.431  0.00  0.00    +0.000 C 
BRANCH  18  19
ATOM     19  C   UNL     1       6.345   4.847  16.202  0.00  0.00    +0.000 A 
ATOM     20  N   UNL     1       6.037   4.061  15.117  0.00  0.00    +0.000 NA
ATOM     21  N   UNL     1       6.857   4.427  14.144  0.00  0.00    +0.000 NA
ATOM     22  N   UNL     1       7.608   5.398  14.679  0.00  0.00    +0.000 N 
ATOM     23  N   UNL     1       7.337   5.717  15.959  0.00  0.00    +0.000 NA
ATOM     24  H   UNL     1       8.316   5.877  14.134  0.00  0.00    +0.000 HD
ENDBRANCH  18  19
ENDBRANCH  16  18
ENDBRANCH   5  16
TORSDOF 5
ENDMDL
