MODEL 1
REMARK VINA RESULT:      -8.3      0.000      0.000
REMARK  Name = 
REMARK  8 active torsions:
REMARK  status: ('A' for Active; 'I' for Inactive)
REMARK    1  A    between atoms: C_1  and  O_2
REMARK    2  A    between atoms: O_2  and  C_3
REMARK    3  A    between atoms: C_3  and  C_5
REMARK    4  A    between atoms: C_5  and  C_6
REMARK    5  A    between atoms: C_11  and  N_12
REMARK    6  A    between atoms: N_15  and  C_16
REMARK    7  A    between atoms: C_28  and  C_29
REMARK    8  A    between atoms: C_29  and  O_30
REMARK                            x       y       z     vdW  Elec       q    Type
REMARK                         _______ _______ _______ _____ _____    ______ ____
ROOT
ATOM      1  C   UNL     1       2.312   4.454  18.097  0.00  0.00    +0.000 C 
ATOM      2  C   UNL     1       3.362   5.565  18.006  0.00  0.00    +0.000 C 
ATOM      3  C   UNL     1       4.553   5.121  17.158  0.00  0.00    +0.000 C 
ATOM      4  C   UNL     1       5.787   5.880  17.499  0.00  0.00    +0.000 A 
ATOM      5  C   UNL     1       6.152   7.172  17.171  0.00  0.00    +0.000 A 
ATOM      6  C   UNL     1       7.351   7.696  17.684  0.00  0.00    +0.000 A 
ATOM      7  C   UNL     1       8.172   6.882  18.491  0.00  0.00    +0.000 A 
ATOM      8  C   UNL     1       7.784   5.578  18.825  0.00  0.00    +0.000 A 
ATOM      9  C   UNL     1       6.596   5.102  18.311  0.00  0.00    +0.000 A 
ATOM     10  O   UNL     1       6.080   3.854  18.545  0.00  0.00    +0.000 OA
ATOM     11  C   UNL     1       5.061   3.714  17.506  0.00  0.00    +0.000 C 
ATOM     12  C   UNL     1       3.949   2.732  17.919  0.00  0.00    +0.000 C 
ATOM     13  O   UNL     1       2.941   3.340  18.748  0.00  0.00    +0.000 OA
ENDROOT
BRANCH   6  14
ATOM     14  N   UNL     1       7.768   9.020  17.416  0.00  0.00    +0.000 N 
ATOM     15  C   UNL     1       8.615   9.745  18.235  0.00  0.00    +0.000 C 
ATOM     16  O   UNL     1       9.180   9.282  19.226  0.00  0.00    +0.000 OA
ATOM     17  N   UNL     1       8.745  11.065  17.831  0.00  0.00    +0.000 N 
ATOM     18  H   UNL     1       7.692   9.349  16.463  0.00  0.00    +0.000 HD
ATOM     19  H   UNL     1       7.889  11.466  17.471  0.00  0.00    +0.000 HD
BRANCH  17  20
ATOM     20  C   UNL     1       9.574  11.931  18.589  0.00  0.00    +0.000 A 
ATOM     21  C   UNL     1       9.029  12.742  19.596  0.00  0.00    +0.000 A 
ATOM     22  C   UNL     1       9.811  13.712  20.218  0.00  0.00    +0.000 A 
ATOM     23  C   UNL     1      11.134  13.866  19.832  0.00  0.00    +0.000 A 
ATOM     24  F   UNL     1      11.873  14.839  20.382  0.00  0.00    +0.000 F 
ATOM     25  C   UNL     1      11.703  13.034  18.871  0.00  0.00    +0.000 A 
ATOM     26  C   UNL     1      10.928  12.041  18.264  0.00  0.00    +0.000 A 
ENDBRANCH  17  20
ENDBRANCH   6  14
BRANCH   1  27
ATOM     27  C   UNL     1       1.128   4.953  18.924  0.00  0.00    +0.000 C 
BRANCH  27  28
ATOM     28  C   UNL     1       1.279   4.715  20.407  0.00  0.00    +0.000 C 
ATOM     29  O   UNL     1       1.877   5.439  21.190  0.00  0.00    +0.000 OA
BRANCH  28  31
ATOM     30  C   UNL     1       1.463   2.716  21.651  0.00  0.00    +0.000 C 
ATOM     31  O   UNL     1       0.726   3.503  20.717  0.00  0.00    +0.000 OA
ENDBRANCH  28  31
ENDBRANCH  27  28
ENDBRANCH   1  27
BRANCH  12  32
ATOM     32  C   UNL     1       4.524   1.511  18.647  0.00  0.00    +0.000 C 
BRANCH  32  33
ATOM     33  O   UNL     1       4.957   1.846  19.965  0.00  0.00    +0.000 OA
ATOM     34  H   UNL     1       5.886   2.129  19.890  0.00  0.00    +0.000 HD
ENDBRANCH  32  33
ENDBRANCH  12  32
TORSDOF 7
ENDMDL
MODEL 2
REMARK VINA RESULT:      -8.0      0.753      1.176
REMARK  Name = 
REMARK  8 active torsions:
REMARK  status: ('A' for Active; 'I' for Inactive)
REMARK    1  A    between atoms: C_1  and  O_2
REMARK    2  A    between atoms: O_2  and  C_3
REMARK    3  A    between atoms: C_3  and  C_5
REMARK    4  A    between atoms: C_5  and  C_6
REMARK    5  A    between atoms: C_11  and  N_12
REMARK    6  A    between atoms: N_15  and  C_16
REMARK    7  A    between atoms: C_28  and  C_29
REMARK    8  A    between atoms: C_29  and  O_30
REMARK                            x       y       z     vdW  Elec       q    Type
REMARK                         _______ _______ _______ _____ _____    ______ ____
ROOT
ATOM      1  C   UNL     1       2.310   4.685  18.418  0.00  0.00    +0.000 C 
ATOM      2  C   UNL     1       3.393   5.757  18.269  0.00  0.00    +0.000 C 
ATOM      3  C   UNL     1       4.516   5.273  17.353  0.00  0.00    +0.000 C 
ATOM      4  C   UNL     1       5.795   5.984  17.624  0.00  0.00    +0.000 A 
ATOM      5  C   UNL     1       6.187   7.263  17.277  0.00  0.00    +0.000 A 
ATOM      6  C   UNL     1       7.433   7.741  17.721  0.00  0.00    +0.000 A 
ATOM      7  C   UNL     1       8.268   6.895  18.478  0.00  0.00    +0.000 A 
ATOM      8  C   UNL     1       7.852   5.604  18.831  0.00  0.00    +0.000 A 
ATOM      9  C   UNL     1       6.619   5.174  18.386  0.00  0.00    +0.000 A 
ATOM     10  O   UNL     1       6.072   3.946  18.647  0.00  0.00    +0.000 OA
ATOM     11  C   UNL     1       4.991   3.847  17.669  0.00  0.00    +0.000 C 
ATOM     12  C   UNL     1       3.868   2.905  18.143  0.00  0.00    +0.000 C 
ATOM     13  O   UNL     1       2.933   3.547  19.030  0.00  0.00    +0.000 OA
ENDROOT
BRANCH   6  14
ATOM     14  N   UNL     1       7.883   9.050  17.432  0.00  0.00    +0.000 N 
ATOM     15  C   UNL     1       8.674   9.801  18.281  0.00  0.00    +0.000 C 
ATOM     16  O   UNL     1       9.161   9.375  19.328  0.00  0.00    +0.000 OA
ATOM     17  N   UNL     1       8.848  11.102  17.835  0.00  0.00    +0.000 N 
ATOM     18  H   UNL     1       7.879   9.341  16.463  0.00  0.00    +0.000 HD
ATOM     19  H   UNL     1       8.025  11.495  17.398  0.00  0.00    +0.000 HD
BRANCH  17  20
ATOM     20  C   UNL     1       9.628  11.992  18.617  0.00  0.00    +0.000 A 
ATOM     21  C   UNL     1       9.015  12.900  19.494  0.00  0.00    +0.000 A 
ATOM     22  C   UNL     1       9.769  13.884  20.128  0.00  0.00    +0.000 A 
ATOM     23  C   UNL     1      11.133  13.957  19.884  0.00  0.00    +0.000 A 
ATOM     24  F   UNL     1      11.851  14.939  20.441  0.00  0.00    +0.000 F 
ATOM     25  C   UNL     1      11.763  13.030  19.057  0.00  0.00    +0.000 A 
ATOM     26  C   UNL     1      11.014  12.024  18.440  0.00  0.00    +0.000 A 
ENDBRANCH  17  20
ENDBRANCH   6  14
BRANCH   1  27
ATOM     27  C   UNL     1       1.194   5.224  19.313  0.00  0.00    +0.000 C 
BRANCH  27  28
ATOM     28  C   UNL     1       1.659   5.617  20.694  0.00  0.00    +0.000 C 
ATOM     29  O   UNL     1       2.383   4.952  21.421  0.00  0.00    +0.000 OA
BRANCH  28  31
ATOM     30  C   UNL     1       1.645   7.971  20.491  0.00  0.00    +0.000 C 
ATOM     31  O   UNL     1       1.057   6.794  21.044  0.00  0.00    +0.000 OA
ENDBRANCH  28  31
ENDBRANCH  27  28
ENDBRANCH   1  27
BRANCH  12  32
ATOM     32  C   UNL     1       4.439   1.661  18.835  0.00  0.00    +0.000 C 
BRANCH  32  33
ATOM     33  O   UNL     1       4.963   1.976  20.123  0.00  0.00    +0.000 OA
ATOM     34  H   UNL     1       4.797   1.201  20.691  0.00  0.00    +0.000 HD
ENDBRANCH  32  33
ENDBRANCH  12  32
TORSDOF 7
ENDMDL
MODEL 3
REMARK VINA RESULT:      -7.6      6.976     10.729
REMARK  Name = 
REMARK  8 active torsions:
REMARK  status: ('A' for Active; 'I' for Inactive)
REMARK    1  A    between atoms: C_1  and  O_2
REMARK    2  A    between atoms: O_2  and  C_3
REMARK    3  A    between atoms: C_3  and  C_5
REMARK    4  A    between atoms: C_5  and  C_6
REMARK    5  A    between atoms: C_11  and  N_12
REMARK    6  A    between atoms: N_15  and  C_16
REMARK    7  A    between atoms: C_28  and  C_29
REMARK    8  A    between atoms: C_29  and  O_30
REMARK                            x       y       z     vdW  Elec       q    Type
REMARK                         _______ _______ _______ _____ _____    ______ ____
ROOT
ATOM      1  C   UNL     1       1.908  14.221  18.316  0.00  0.00    +0.000 C 
ATOM      2  C   UNL     1       1.999  12.800  18.879  0.00  0.00    +0.000 C 
ATOM      3  C   UNL     1       0.624  12.135  18.907  0.00  0.00    +0.000 C 
ATOM      4  C   UNL     1       0.556  11.050  19.923  0.00  0.00    +0.000 A 
ATOM      5  C   UNL     1       1.074   9.769  19.888  0.00  0.00    +0.000 A 
ATOM      6  C   UNL     1       0.942   8.946  21.019  0.00  0.00    +0.000 A 
ATOM      7  C   UNL     1       0.255   9.430  22.151  0.00  0.00    +0.000 A 
ATOM      8  C   UNL     1      -0.255  10.735  22.176  0.00  0.00    +0.000 A 
ATOM      9  C   UNL     1      -0.097  11.517  21.051  0.00  0.00    +0.000 A 
ATOM     10  O   UNL     1      -0.536  12.808  20.921  0.00  0.00    +0.000 OA
ATOM     11  C   UNL     1      -0.479  13.036  19.479  0.00  0.00    +0.000 C 
ATOM     12  C   UNL     1      -0.307  14.528  19.138  0.00  0.00    +0.000 C 
ATOM     13  O   UNL     1       1.063  14.966  19.205  0.00  0.00    +0.000 OA
ENDROOT
BRANCH   6  14
ATOM     14  N   UNL     1       1.477   7.637  21.064  0.00  0.00    +0.000 N 
ATOM     15  C   UNL     1       2.215   7.068  20.042  0.00  0.00    +0.000 C 
ATOM     16  O   UNL     1       2.577   7.673  19.033  0.00  0.00    +0.000 OA
ATOM     17  N   UNL     1       2.490   5.728  20.267  0.00  0.00    +0.000 N 
ATOM     18  H   UNL     1       1.581   7.207  21.973  0.00  0.00    +0.000 HD
ATOM     19  H   UNL     1       1.732   5.227  20.712  0.00  0.00    +0.000 HD
BRANCH  17  20
ATOM     20  C   UNL     1       3.230   5.011  19.292  0.00  0.00    +0.000 A 
ATOM     21  C   UNL     1       4.633   5.014  19.314  0.00  0.00    +0.000 A 
ATOM     22  C   UNL     1       5.355   4.455  18.262  0.00  0.00    +0.000 A 
ATOM     23  C   UNL     1       4.671   3.895  17.193  0.00  0.00    +0.000 A 
ATOM     24  F   UNL     1       5.358   3.413  16.150  0.00  0.00    +0.000 F 
ATOM     25  C   UNL     1       3.279   3.838  17.182  0.00  0.00    +0.000 A 
ATOM     26  C   UNL     1       2.552   4.375  18.249  0.00  0.00    +0.000 A 
ENDBRANCH  17  20
ENDBRANCH   6  14
BRANCH   1  27
ATOM     27  C   UNL     1       3.307  14.834  18.276  0.00  0.00    +0.000 C 
BRANCH  27  28
ATOM     28  C   UNL     1       3.310  16.343  18.251  0.00  0.00    +0.000 C 
ATOM     29  O   UNL     1       2.993  17.042  17.300  0.00  0.00    +0.000 OA
BRANCH  28  31
ATOM     30  C   UNL     1       5.104  16.282  19.786  0.00  0.00    +0.000 C 
ATOM     31  O   UNL     1       3.823  16.802  19.432  0.00  0.00    +0.000 OA
ENDBRANCH  28  31
ENDBRANCH  27  28
ENDBRANCH   1  27
BRANCH  12  32
ATOM     32  C   UNL     1      -1.159  15.413  20.056  0.00  0.00    +0.000 C 
BRANCH  32  33
ATOM     33  O   UNL     1      -2.479  14.893  20.202  0.00  0.00    +0.000 OA
ATOM     34  H   UNL     1      -2.862  14.847  19.307  0.00  0.00    +0.000 HD
ENDBRANCH  32  33
ENDBRANCH  12  32
TORSDOF 7
ENDMDL
MODEL 4
REMARK VINA RESULT:      -7.5      7.678     10.922
REMARK  Name = 
REMARK  8 active torsions:
REMARK  status: ('A' for Active; 'I' for Inactive)
REMARK    1  A    between atoms: C_1  and  O_2
REMARK    2  A    between atoms: O_2  and  C_3
REMARK    3  A    between atoms: C_3  and  C_5
REMARK    4  A    between atoms: C_5  and  C_6
REMARK    5  A    between atoms: C_11  and  N_12
REMARK    6  A    between atoms: N_15  and  C_16
REMARK    7  A    between atoms: C_28  and  C_29
REMARK    8  A    between atoms: C_29  and  O_30
REMARK                            x       y       z     vdW  Elec       q    Type
REMARK                         _______ _______ _______ _____ _____    ______ ____
ROOT
ATOM      1  C   UNL     1      -0.365  14.244  19.087  0.00  0.00    +0.000 C 
ATOM      2  C   UNL     1       0.250  12.897  19.479  0.00  0.00    +0.000 C 
ATOM      3  C   UNL     1      -0.838  11.858  19.743  0.00  0.00    +0.000 C 
ATOM      4  C   UNL     1      -0.359  10.773  20.643  0.00  0.00    +0.000 A 
ATOM      5  C   UNL     1       0.472   9.702  20.375  0.00  0.00    +0.000 A 
ATOM      6  C   UNL     1       0.846   8.846  21.425  0.00  0.00    +0.000 A 
ATOM      7  C   UNL     1       0.338   9.076  22.720  0.00  0.00    +0.000 A 
ATOM      8  C   UNL     1      -0.494  10.174  22.979  0.00  0.00    +0.000 A 
ATOM      9  C   UNL     1      -0.831  10.998  21.925  0.00  0.00    +0.000 A 
ATOM     10  O   UNL     1      -1.630  12.107  22.017  0.00  0.00    +0.000 OA
ATOM     11  C   UNL     1      -1.981  12.381  20.625  0.00  0.00    +0.000 C 
ATOM     12  C   UNL     1      -2.317  13.866  20.397  0.00  0.00    +0.000 C 
ATOM     13  O   UNL     1      -1.148  14.684  20.205  0.00  0.00    +0.000 OA
ENDROOT
BRANCH   6  14
ATOM     14  N   UNL     1       1.718   7.751  21.228  0.00  0.00    +0.000 N 
ATOM     15  C   UNL     1       2.176   7.339  19.989  0.00  0.00    +0.000 C 
ATOM     16  O   UNL     1       1.960   7.943  18.939  0.00  0.00    +0.000 OA
ATOM     17  N   UNL     1       2.891   6.154  20.053  0.00  0.00    +0.000 N 
ATOM     18  H   UNL     1       2.261   7.438  22.022  0.00  0.00    +0.000 HD
ATOM     19  H   UNL     1       2.524   5.493  20.725  0.00  0.00    +0.000 HD
BRANCH  17  20
ATOM     20  C   UNL     1       3.410   5.605  18.852  0.00  0.00    +0.000 A 
ATOM     21  C   UNL     1       2.764   4.533  18.219  0.00  0.00    +0.000 A 
ATOM     22  C   UNL     1       3.364   3.887  17.141  0.00  0.00    +0.000 A 
ATOM     23  C   UNL     1       4.608   4.316  16.700  0.00  0.00    +0.000 A 
ATOM     24  F   UNL     1       5.218   3.659  15.706  0.00  0.00    +0.000 F 
ATOM     25  C   UNL     1       5.237   5.412  17.286  0.00  0.00    +0.000 A 
ATOM     26  C   UNL     1       4.624   6.079  18.351  0.00  0.00    +0.000 A 
ENDBRANCH  17  20
ENDBRANCH   6  14
BRANCH   1  27
ATOM     27  C   UNL     1       0.758  15.240  18.800  0.00  0.00    +0.000 C 
BRANCH  27  28
ATOM     28  C   UNL     1       0.324  16.684  18.877  0.00  0.00    +0.000 C 
ATOM     29  O   UNL     1       0.679  17.493  19.722  0.00  0.00    +0.000 OA
BRANCH  28  31
ATOM     30  C   UNL     1      -0.564  18.208  17.306  0.00  0.00    +0.000 C 
ATOM     31  O   UNL     1      -0.612  16.915  17.908  0.00  0.00    +0.000 OA
ENDBRANCH  28  31
ENDBRANCH  27  28
ENDBRANCH   1  27
BRANCH  12  32
ATOM     32  C   UNL     1      -3.140  14.438  21.559  0.00  0.00    +0.000 C 
BRANCH  32  33
ATOM     33  O   UNL     1      -2.303  14.847  22.639  0.00  0.00    +0.000 OA
ATOM     34  H   UNL     1      -1.801  14.059  22.917  0.00  0.00    +0.000 HD
ENDBRANCH  32  33
ENDBRANCH  12  32
TORSDOF 7
ENDMDL
MODEL 5
REMARK VINA RESULT:      -7.5      5.687      7.995
REMARK  Name = 
REMARK  8 active torsions:
REMARK  status: ('A' for Active; 'I' for Inactive)
REMARK    1  A    between atoms: C_1  and  O_2
REMARK    2  A    between atoms: O_2  and  C_3
REMARK    3  A    between atoms: C_3  and  C_5
REMARK    4  A    between atoms: C_5  and  C_6
REMARK    5  A    between atoms: C_11  and  N_12
REMARK    6  A    between atoms: N_15  and  C_16
REMARK    7  A    between atoms: C_28  and  C_29
REMARK    8  A    between atoms: C_29  and  O_30
REMARK                            x       y       z     vdW  Elec       q    Type
REMARK                         _______ _______ _______ _____ _____    ______ ____
ROOT
ATOM      1  C   UNL     1       6.561   5.109  15.211  0.00  0.00    +0.000 C 
ATOM      2  C   UNL     1       5.287   5.858  15.612  0.00  0.00    +0.000 C 
ATOM      3  C   UNL     1       5.566   6.834  16.755  0.00  0.00    +0.000 C 
ATOM      4  C   UNL     1       4.334   7.136  17.535  0.00  0.00    +0.000 A 
ATOM      5  C   UNL     1       3.265   7.952  17.220  0.00  0.00    +0.000 A 
ATOM      6  C   UNL     1       2.169   8.015  18.099  0.00  0.00    +0.000 A 
ATOM      7  C   UNL     1       2.201   7.274  19.297  0.00  0.00    +0.000 A 
ATOM      8  C   UNL     1       3.288   6.441  19.598  0.00  0.00    +0.000 A 
ATOM      9  C   UNL     1       4.339   6.398  18.706  0.00  0.00    +0.000 A 
ATOM     10  O   UNL     1       5.468   5.635  18.855  0.00  0.00    +0.000 OA
ATOM     11  C   UNL     1       6.397   6.222  17.892  0.00  0.00    +0.000 C 
ATOM     12  C   UNL     1       7.453   5.206  17.417  0.00  0.00    +0.000 C 
ATOM     13  O   UNL     1       6.978   4.355  16.358  0.00  0.00    +0.000 OA
ENDROOT
BRANCH   6  14
ATOM     14  N   UNL     1       1.028   8.803  17.823  0.00  0.00    +0.000 N 
ATOM     15  C   UNL     1       0.761  10.016  18.430  0.00  0.00    +0.000 C 
ATOM     16  O   UNL     1       1.537  10.592  19.194  0.00  0.00    +0.000 OA
ATOM     17  N   UNL     1      -0.491  10.512  18.102  0.00  0.00    +0.000 N 
ATOM     18  H   UNL     1       0.542   8.631  16.953  0.00  0.00    +0.000 HD
ATOM     19  H   UNL     1      -1.202   9.797  18.019  0.00  0.00    +0.000 HD
BRANCH  17  20
ATOM     20  C   UNL     1      -0.906  11.746  18.665  0.00  0.00    +0.000 A 
ATOM     21  C   UNL     1      -0.257  12.942  18.323  0.00  0.00    +0.000 A 
ATOM     22  C   UNL     1      -0.551  14.122  19.003  0.00  0.00    +0.000 A 
ATOM     23  C   UNL     1      -1.492  14.101  20.022  0.00  0.00    +0.000 A 
ATOM     24  F   UNL     1      -1.732  15.217  20.720  0.00  0.00    +0.000 F 
ATOM     25  C   UNL     1      -2.181  12.932  20.337  0.00  0.00    +0.000 A 
ATOM     26  C   UNL     1      -1.908  11.752  19.638  0.00  0.00    +0.000 A 
ENDBRANCH  17  20
ENDBRANCH   6  14
BRANCH   1  27
ATOM     27  C   UNL     1       6.243   4.172  14.046  0.00  0.00    +0.000 C 
BRANCH  27  28
ATOM     28  C   UNL     1       7.079   4.427  12.815  0.00  0.00    +0.000 C 
ATOM     29  O   UNL     1       7.842   5.368  12.652  0.00  0.00    +0.000 OA
BRANCH  28  31
ATOM     30  C   UNL     1       5.415   3.032  11.884  0.00  0.00    +0.000 C 
ATOM     31  O   UNL     1       6.767   3.490  11.869  0.00  0.00    +0.000 OA
ENDBRANCH  28  31
ENDBRANCH  27  28
ENDBRANCH   1  27
BRANCH  12  32
ATOM     32  C   UNL     1       7.947   4.332  18.577  0.00  0.00    +0.000 C 
BRANCH  32  33
ATOM     33  O   UNL     1       8.098   5.092  19.775  0.00  0.00    +0.000 OA
ATOM     34  H   UNL     1       9.041   5.050  20.015  0.00  0.00    +0.000 HD
ENDBRANCH  32  33
ENDBRANCH  12  32
TORSDOF 7
ENDMDL
MODEL 6
REMARK VINA RESULT:      -7.4      4.527     10.242
REMARK  Name = 
REMARK  8 active torsions:
REMARK  status: ('A' for Active; 'I' for Inactive)
REMARK    1  A    between atoms: C_1  and  O_2
REMARK    2  A    between atoms: O_2  and  C_3
REMARK    3  A    between atoms: C_3  and  C_5
REMARK    4  A    between atoms: C_5  and  C_6
REMARK    5  A    between atoms: C_11  and  N_12
REMARK    6  A    between atoms: N_15  and  C_16
REMARK    7  A    between atoms: C_28  and  C_29
REMARK    8  A    between atoms: C_29  and  O_30
REMARK                            x       y       z     vdW  Elec       q    Type
REMARK                         _______ _______ _______ _____ _____    ______ ____
ROOT
ATOM      1  C   UNL     1       8.086  14.648  22.861  0.00  0.00    +0.000 C 
ATOM      2  C   UNL     1       8.118  13.319  22.101  0.00  0.00    +0.000 C 
ATOM      3  C   UNL     1       9.537  12.990  21.638  0.00  0.00    +0.000 C 
ATOM      4  C   UNL     1       9.536  12.076  20.463  0.00  0.00    +0.000 A 
ATOM      5  C   UNL     1       9.298  10.716  20.400  0.00  0.00    +0.000 A 
ATOM      6  C   UNL     1       9.278  10.082  19.146  0.00  0.00    +0.000 A 
ATOM      7  C   UNL     1       9.535  10.838  17.984  0.00  0.00    +0.000 A 
ATOM      8  C   UNL     1       9.763  12.219  18.063  0.00  0.00    +0.000 A 
ATOM      9  C   UNL     1       9.765  12.807  19.310  0.00  0.00    +0.000 A 
ATOM     10  O   UNL     1       9.969  14.140  19.552  0.00  0.00    +0.000 OA
ATOM     11  C   UNL     1      10.257  14.179  20.985  0.00  0.00    +0.000 C 
ATOM     12  C   UNL     1       9.902  15.542  21.607  0.00  0.00    +0.000 C 
ATOM     13  O   UNL     1       8.506  15.663  21.939  0.00  0.00    +0.000 OA
ENDROOT
BRANCH   6  14
ATOM     14  N   UNL     1       9.008   8.701  19.005  0.00  0.00    +0.000 N 
ATOM     15  C   UNL     1       8.036   8.184  18.168  0.00  0.00    +0.000 C 
ATOM     16  O   UNL     1       7.376   8.858  17.378  0.00  0.00    +0.000 OA
ATOM     17  N   UNL     1       7.868   6.817  18.328  0.00  0.00    +0.000 N 
ATOM     18  H   UNL     1       9.730   8.053  19.292  0.00  0.00    +0.000 HD
ATOM     19  H   UNL     1       7.958   6.506  19.287  0.00  0.00    +0.000 HD
BRANCH  17  20
ATOM     20  C   UNL     1       6.892   6.153  17.542  0.00  0.00    +0.000 A 
ATOM     21  C   UNL     1       5.557   6.085  17.967  0.00  0.00    +0.000 A 
ATOM     22  C   UNL     1       4.640   5.290  17.283  0.00  0.00    +0.000 A 
ATOM     23  C   UNL     1       5.062   4.568  16.176  0.00  0.00    +0.000 A 
ATOM     24  F   UNL     1       4.201   3.753  15.553  0.00  0.00    +0.000 F 
ATOM     25  C   UNL     1       6.372   4.666  15.712  0.00  0.00    +0.000 A 
ATOM     26  C   UNL     1       7.287   5.484  16.381  0.00  0.00    +0.000 A 
ENDBRANCH  17  20
ENDBRANCH   6  14
BRANCH   1  27
ATOM     27  C   UNL     1       6.658  14.918  23.333  0.00  0.00    +0.000 C 
BRANCH  27  28
ATOM     28  C   UNL     1       6.259  14.123  24.553  0.00  0.00    +0.000 C 
ATOM     29  O   UNL     1       5.125  13.760  24.830  0.00  0.00    +0.000 OA
BRANCH  28  31
ATOM     30  C   UNL     1       7.471  12.690  25.987  0.00  0.00    +0.000 C 
ATOM     31  O   UNL     1       7.357  13.963  25.352  0.00  0.00    +0.000 OA
ENDBRANCH  28  31
ENDBRANCH  27  28
ENDBRANCH   1  27
BRANCH  12  32
ATOM     32  C   UNL     1      10.296  16.699  20.679  0.00  0.00    +0.000 C 
BRANCH  32  33
ATOM     33  O   UNL     1       9.293  16.940  19.693  0.00  0.00    +0.000 OA
ATOM     34  H   UNL     1       8.442  16.989  20.166  0.00  0.00    +0.000 HD
ENDBRANCH  32  33
ENDBRANCH  12  32
TORSDOF 7
ENDMDL
MODEL 7
REMARK VINA RESULT:      -7.4      6.947     10.742
REMARK  Name = 
REMARK  8 active torsions:
REMARK  status: ('A' for Active; 'I' for Inactive)
REMARK    1  A    between atoms: C_1  and  O_2
REMARK    2  A    between atoms: O_2  and  C_3
REMARK    3  A    between atoms: C_3  and  C_5
REMARK    4  A    between atoms: C_5  and  C_6
REMARK    5  A    between atoms: C_11  and  N_12
REMARK    6  A    between atoms: N_15  and  C_16
REMARK    7  A    between atoms: C_28  and  C_29
REMARK    8  A    between atoms: C_29  and  O_30
REMARK                            x       y       z     vdW  Elec       q    Type
REMARK                         _______ _______ _______ _____ _____    ______ ____
ROOT
ATOM      1  C   UNL     1       1.767  14.314  19.050  0.00  0.00    +0.000 C 
ATOM      2  C   UNL     1       1.890  12.860  19.513  0.00  0.00    +0.000 C 
ATOM      3  C   UNL     1       0.570  12.115  19.326  0.00  0.00    +0.000 C 
ATOM      4  C   UNL     1       0.459  10.949  20.244  0.00  0.00    +0.000 A 
ATOM      5  C   UNL     1       1.064   9.708  20.176  0.00  0.00    +0.000 A 
ATOM      6  C   UNL     1       0.858   8.788  21.220  0.00  0.00    +0.000 A 
ATOM      7  C   UNL     1       0.012   9.137  22.292  0.00  0.00    +0.000 A 
ATOM      8  C   UNL     1      -0.585  10.404  22.353  0.00  0.00    +0.000 A 
ATOM      9  C   UNL     1      -0.351  11.282  21.315  0.00  0.00    +0.000 A 
ATOM     10  O   UNL     1      -0.859  12.552  21.230  0.00  0.00    +0.000 OA
ATOM     11  C   UNL     1      -0.651  12.900  19.825  0.00  0.00    +0.000 C 
ATOM     12  C   UNL     1      -0.543  14.422  19.619  0.00  0.00    +0.000 C 
ATOM     13  O   UNL     1       0.777  14.933  19.884  0.00  0.00    +0.000 OA
ENDROOT
BRANCH   6  14
ATOM     14  N   UNL     1       1.472   7.515  21.231  0.00  0.00    +0.000 N 
ATOM     15  C   UNL     1       2.175   6.985  20.165  0.00  0.00    +0.000 C 
ATOM     16  O   UNL     1       2.434   7.604  19.133  0.00  0.00    +0.000 OA
ATOM     17  N   UNL     1       2.544   5.665  20.373  0.00  0.00    +0.000 N 
ATOM     18  H   UNL     1       1.661   7.096  22.133  0.00  0.00    +0.000 HD
ATOM     19  H   UNL     1       1.848   5.122  20.867  0.00  0.00    +0.000 HD
BRANCH  17  20
ATOM     20  C   UNL     1       3.261   4.988  19.354  0.00  0.00    +0.000 A 
ATOM     21  C   UNL     1       4.660   5.073  19.287  0.00  0.00    +0.000 A 
ATOM     22  C   UNL     1       5.345   4.552  18.191  0.00  0.00    +0.000 A 
ATOM     23  C   UNL     1       4.628   3.949  17.168  0.00  0.00    +0.000 A 
ATOM     24  F   UNL     1       5.275   3.503  16.084  0.00  0.00    +0.000 F 
ATOM     25  C   UNL     1       3.244   3.811  17.246  0.00  0.00    +0.000 A 
ATOM     26  C   UNL     1       2.557   4.309  18.357  0.00  0.00    +0.000 A 
ENDBRANCH  17  20
ENDBRANCH   6  14
BRANCH   1  27
ATOM     27  C   UNL     1       3.117  15.010  19.225  0.00  0.00    +0.000 C 
BRANCH  27  28
ATOM     28  C   UNL     1       3.919  15.110  17.951  0.00  0.00    +0.000 C 
ATOM     29  O   UNL     1       5.104  14.833  17.828  0.00  0.00    +0.000 OA
BRANCH  28  31
ATOM     30  C   UNL     1       2.987  17.078  17.035  0.00  0.00    +0.000 C 
ATOM     31  O   UNL     1       3.133  15.660  16.977  0.00  0.00    +0.000 OA
ENDBRANCH  28  31
ENDBRANCH  27  28
ENDBRANCH   1  27
BRANCH  12  32
ATOM     32  C   UNL     1      -1.554  15.178  20.490  0.00  0.00    +0.000 C 
BRANCH  32  33
ATOM     33  O   UNL     1      -2.243  16.178  19.741  0.00  0.00    +0.000 OA
ATOM     34  H   UNL     1      -1.606  16.529  19.092  0.00  0.00    +0.000 HD
ENDBRANCH  32  33
ENDBRANCH  12  32
TORSDOF 7
ENDMDL
MODEL 8
REMARK VINA RESULT:      -7.4      4.648     10.246
REMARK  Name = 
REMARK  8 active torsions:
REMARK  status: ('A' for Active; 'I' for Inactive)
REMARK    1  A    between atoms: C_1  and  O_2
REMARK    2  A    between atoms: O_2  and  C_3
REMARK    3  A    between atoms: C_3  and  C_5
REMARK    4  A    between atoms: C_5  and  C_6
REMARK    5  A    between atoms: C_11  and  N_12
REMARK    6  A    between atoms: N_15  and  C_16
REMARK    7  A    between atoms: C_28  and  C_29
REMARK    8  A    between atoms: C_29  and  O_30
REMARK                            x       y       z     vdW  Elec       q    Type
REMARK                         _______ _______ _______ _____ _____    ______ ____
ROOT
ATOM      1  C   UNL     1       8.092  14.831  22.564  0.00  0.00    +0.000 C 
ATOM      2  C   UNL     1       8.103  13.453  21.896  0.00  0.00    +0.000 C 
ATOM      3  C   UNL     1       9.515  13.074  21.453  0.00  0.00    +0.000 C 
ATOM      4  C   UNL     1       9.498  12.082  20.343  0.00  0.00    +0.000 A 
ATOM      5  C   UNL     1       9.240  10.724  20.373  0.00  0.00    +0.000 A 
ATOM      6  C   UNL     1       9.207  10.007  19.164  0.00  0.00    +0.000 A 
ATOM      7  C   UNL     1       9.471  10.679  17.954  0.00  0.00    +0.000 A 
ATOM      8  C   UNL     1       9.719  12.059  17.938  0.00  0.00    +0.000 A 
ATOM      9  C   UNL     1       9.734  12.730  19.143  0.00  0.00    +0.000 A 
ATOM     10  O   UNL     1       9.958  14.073  19.293  0.00  0.00    +0.000 OA
ATOM     11  C   UNL     1      10.250  14.205  20.719  0.00  0.00    +0.000 C 
ATOM     12  C   UNL     1       9.917  15.612  21.248  0.00  0.00    +0.000 C 
ATOM     13  O   UNL     1       8.525  15.776  21.575  0.00  0.00    +0.000 OA
ENDROOT
BRANCH   6  14
ATOM     14  N   UNL     1       8.917   8.624  19.118  0.00  0.00    +0.000 N 
ATOM     15  C   UNL     1       8.113   8.034  18.161  0.00  0.00    +0.000 C 
ATOM     16  O   UNL     1       7.650   8.627  17.187  0.00  0.00    +0.000 OA
ATOM     17  N   UNL     1       7.863   6.696  18.426  0.00  0.00    +0.000 N 
ATOM     18  H   UNL     1       9.542   8.000  19.612  0.00  0.00    +0.000 HD
ATOM     19  H   UNL     1       7.747   6.492  19.410  0.00  0.00    +0.000 HD
BRANCH  17  20
ATOM     20  C   UNL     1       7.038   5.966  17.533  0.00  0.00    +0.000 A 
ATOM     21  C   UNL     1       7.600   5.067  16.614  0.00  0.00    +0.000 A 
ATOM     22  C   UNL     1       6.810   4.483  15.627  0.00  0.00    +0.000 A 
ATOM     23  C   UNL     1       5.461   4.799  15.564  0.00  0.00    +0.000 A 
ATOM     24  F   UNL     1       4.709   4.290  14.579  0.00  0.00    +0.000 F 
ATOM     25  C   UNL     1       4.879   5.649  16.501  0.00  0.00    +0.000 A 
ATOM     26  C   UNL     1       5.664   6.216  17.509  0.00  0.00    +0.000 A 
ENDBRANCH  17  20
ENDBRANCH   6  14
BRANCH   1  27
ATOM     27  C   UNL     1       6.670  15.153  23.020  0.00  0.00    +0.000 C 
BRANCH  27  28
ATOM     28  C   UNL     1       6.161  14.247  24.114  0.00  0.00    +0.000 C 
ATOM     29  O   UNL     1       5.055  13.728  24.156  0.00  0.00    +0.000 OA
BRANCH  28  31
ATOM     30  C   UNL     1       7.270  12.896  25.703  0.00  0.00    +0.000 C 
ATOM     31  O   UNL     1       7.102  14.180  25.104  0.00  0.00    +0.000 OA
ENDBRANCH  28  31
ENDBRANCH  27  28
ENDBRANCH   1  27
BRANCH  12  32
ATOM     32  C   UNL     1      10.325  16.698  20.243  0.00  0.00    +0.000 C 
BRANCH  32  33
ATOM     33  O   UNL     1      11.573  16.391  19.624  0.00  0.00    +0.000 OA
ATOM     34  H   UNL     1      12.270  16.698  20.232  0.00  0.00    +0.000 HD
ENDBRANCH  32  33
ENDBRANCH  12  32
TORSDOF 7
ENDMDL
MODEL 9
REMARK VINA RESULT:      -7.4      7.479     10.992
REMARK  Name = 
REMARK  8 active torsions:
REMARK  status: ('A' for Active; 'I' for Inactive)
REMARK    1  A    between atoms: C_1  and  O_2
REMARK    2  A    between atoms: O_2  and  C_3
REMARK    3  A    between atoms: C_3  and  C_5
REMARK    4  A    between atoms: C_5  and  C_6
REMARK    5  A    between atoms: C_11  and  N_12
REMARK    6  A    between atoms: N_15  and  C_16
REMARK    7  A    between atoms: C_28  and  C_29
REMARK    8  A    between atoms: C_29  and  O_30
REMARK                            x       y       z     vdW  Elec       q    Type
REMARK                         _______ _______ _______ _____ _____    ______ ____
ROOT
ATOM      1  C   UNL     1       0.356  14.629  19.324  0.00  0.00    +0.000 C 
ATOM      2  C   UNL     1       0.789  13.212  19.712  0.00  0.00    +0.000 C 
ATOM      3  C   UNL     1      -0.418  12.282  19.812  0.00  0.00    +0.000 C 
ATOM      4  C   UNL     1      -0.148  11.120  20.703  0.00  0.00    +0.000 A 
ATOM      5  C   UNL     1       0.597   9.980  20.470  0.00  0.00    +0.000 A 
ATOM      6  C   UNL     1       0.770   9.050  21.510  0.00  0.00    +0.000 A 
ATOM      7  C   UNL     1       0.151   9.283  22.755  0.00  0.00    +0.000 A 
ATOM      8  C   UNL     1      -0.592  10.450  22.980  0.00  0.00    +0.000 A 
ATOM      9  C   UNL     1      -0.731  11.343  21.939  0.00  0.00    +0.000 A 
ATOM     10  O   UNL     1      -1.422  12.525  22.001  0.00  0.00    +0.000 OA
ATOM     11  C   UNL     1      -1.593  12.886  20.595  0.00  0.00    +0.000 C 
ATOM     12  C   UNL     1      -1.754  14.405  20.406  0.00  0.00    +0.000 C 
ATOM     13  O   UNL     1      -0.496  15.105  20.376  0.00  0.00    +0.000 OA
ENDROOT
BRANCH   6  14
ATOM     14  N   UNL     1       1.546   7.880  21.351  0.00  0.00    +0.000 N 
ATOM     15  C   UNL     1       2.044   7.440  20.138  0.00  0.00    +0.000 C 
ATOM     16  O   UNL     1       1.956   8.073  19.086  0.00  0.00    +0.000 OA
ATOM     17  N   UNL     1       2.639   6.191  20.228  0.00  0.00    +0.000 N 
ATOM     18  H   UNL     1       2.004   7.508  22.174  0.00  0.00    +0.000 HD
ATOM     19  H   UNL     1       2.168   5.561  20.864  0.00  0.00    +0.000 HD
BRANCH  17  20
ATOM     20  C   UNL     1       3.182   5.608  19.054  0.00  0.00    +0.000 A 
ATOM     21  C   UNL     1       2.455   4.653  18.328  0.00  0.00    +0.000 A 
ATOM     22  C   UNL     1       3.054   3.959  17.280  0.00  0.00    +0.000 A 
ATOM     23  C   UNL     1       4.378   4.225  16.961  0.00  0.00    +0.000 A 
ATOM     24  F   UNL     1       4.979   3.517  15.996  0.00  0.00    +0.000 F 
ATOM     25  C   UNL     1       5.096   5.207  17.639  0.00  0.00    +0.000 A 
ATOM     26  C   UNL     1       4.488   5.924  18.674  0.00  0.00    +0.000 A 
ENDBRANCH  17  20
ENDBRANCH   6  14
BRANCH   1  27
ATOM     27  C   UNL     1       1.596  15.515  19.204  0.00  0.00    +0.000 C 
BRANCH  27  28
ATOM     28  C   UNL     1       1.369  16.773  18.402  0.00  0.00    +0.000 C 
ATOM     29  O   UNL     1       0.301  17.136  17.929  0.00  0.00    +0.000 OA
BRANCH  28  31
ATOM     30  C   UNL     1       3.722  16.613  18.528  0.00  0.00    +0.000 C 
ATOM     31  O   UNL     1       2.571  17.392  18.204  0.00  0.00    +0.000 OA
ENDBRANCH  28  31
ENDBRANCH  27  28
ENDBRANCH   1  27
BRANCH  12  32
ATOM     32  C   UNL     1      -2.637  15.014  21.503  0.00  0.00    +0.000 C 
BRANCH  32  33
ATOM     33  O   UNL     1      -3.698  14.132  21.866  0.00  0.00    +0.000 OA
ATOM     34  H   UNL     1      -3.734  14.124  22.840  0.00  0.00    +0.000 HD
ENDBRANCH  32  33
ENDBRANCH  12  32
TORSDOF 7
ENDMDL
