MODEL 1
REMARK VINA RESULT:      -7.1      0.000      0.000
REMARK  Name = 
REMARK  2 active torsions:
REMARK  status: ('A' for Active; 'I' for Inactive)
REMARK    1  A    between atoms: N_10  and  C_11
REMARK    2  A    between atoms: C_11  and  C_12
REMARK                            x       y       z     vdW  Elec       q    Type
REMARK                         _______ _______ _______ _____ _____    ______ ____
ROOT
ATOM      1  O   UNL     1       5.173   2.150  20.533  0.00  0.00    +0.000 OA
ATOM      2  S   UNL     1       3.954   2.456  19.800  0.00  0.00    +0.000 S 
ATOM      3  O   UNL     1       3.591   1.619  18.680  0.00  0.00    +0.000 OA
ATOM      4  C   UNL     1       2.646   2.459  21.005  0.00  0.00    +0.000 C 
ATOM      5  C   UNL     1       1.286   2.950  20.571  0.00  0.00    +0.000 C 
ATOM      6  O   UNL     1       0.933   2.543  19.262  0.00  0.00    +0.000 OA
ATOM      7  C   UNL     1       0.761   3.612  18.336  0.00  0.00    +0.000 C 
ATOM      8  C   UNL     1       2.067   4.169  17.767  0.00  0.00    +0.000 C 
ATOM      9  C   UNL     1       2.976   4.842  18.789  0.00  0.00    +0.000 C 
ATOM     10  N   UNL     1       4.153   4.046  19.232  0.00  0.00    +0.000 NA
ENDROOT
BRANCH  10  11
ATOM     11  C   UNL     1       5.269   4.079  18.219  0.00  0.00    +0.000 C 
BRANCH  11  12
ATOM     12  C   UNL     1       6.204   5.271  18.298  0.00  0.00    +0.000 A 
ATOM     13  C   UNL     1       7.134   5.322  19.354  0.00  0.00    +0.000 A 
ATOM     14  C   UNL     1       8.117   6.311  19.400  0.00  0.00    +0.000 A 
ATOM     15  C   UNL     1       8.194   7.266  18.390  0.00  0.00    +0.000 A 
ATOM     16  C   UNL     1       7.257   7.258  17.358  0.00  0.00    +0.000 A 
ATOM     17  C   UNL     1       6.257   6.279  17.319  0.00  0.00    +0.000 A 
ATOM     18 BR   UNL     1       4.995   6.415  15.904  0.00  0.00    +0.000 Br
ENDBRANCH  11  12
ENDBRANCH  10  11
TORSDOF 2
ENDMDL
MODEL 2
REMARK VINA RESULT:      -7.0      3.053      5.868
REMARK  Name = 
REMARK  2 active torsions:
REMARK  status: ('A' for Active; 'I' for Inactive)
REMARK    1  A    between atoms: N_10  and  C_11
REMARK    2  A    between atoms: C_11  and  C_12
REMARK                            x       y       z     vdW  Elec       q    Type
REMARK                         _______ _______ _______ _____ _____    ______ ____
ROOT
ATOM      1  O   UNL     1       5.385   5.560  19.616  0.00  0.00    +0.000 OA
ATOM      2  S   UNL     1       5.735   5.569  18.204  0.00  0.00    +0.000 S 
ATOM      3  O   UNL     1       5.739   6.831  17.500  0.00  0.00    +0.000 OA
ATOM      4  C   UNL     1       7.337   4.806  18.092  0.00  0.00    +0.000 C 
ATOM      5  C   UNL     1       7.875   4.488  16.717  0.00  0.00    +0.000 C 
ATOM      6  O   UNL     1       7.586   5.487  15.756  0.00  0.00    +0.000 OA
ATOM      7  C   UNL     1       6.752   5.055  14.686  0.00  0.00    +0.000 C 
ATOM      8  C   UNL     1       5.262   5.011  15.027  0.00  0.00    +0.000 C 
ATOM      9  C   UNL     1       4.878   3.991  16.094  0.00  0.00    +0.000 C 
ATOM     10  N   UNL     1       4.607   4.544  17.450  0.00  0.00    +0.000 NA
ENDROOT
BRANCH  10  11
ATOM     11  C   UNL     1       3.233   5.158  17.543  0.00  0.00    +0.000 C 
BRANCH  11  12
ATOM     12  C   UNL     1       2.252   4.454  18.461  0.00  0.00    +0.000 A 
ATOM     13  C   UNL     1       1.858   3.142  18.136  0.00  0.00    +0.000 A 
ATOM     14  C   UNL     1       1.077   2.387  19.014  0.00  0.00    +0.000 A 
ATOM     15  C   UNL     1       0.679   2.926  20.234  0.00  0.00    +0.000 A 
ATOM     16  C   UNL     1       1.024   4.238  20.555  0.00  0.00    +0.000 A 
ATOM     17  C   UNL     1       1.790   5.005  19.670  0.00  0.00    +0.000 A 
ATOM     18 BR   UNL     1       2.135   6.801  20.186  0.00  0.00    +0.000 Br
ENDBRANCH  11  12
ENDBRANCH  10  11
TORSDOF 2
ENDMDL
MODEL 3
REMARK VINA RESULT:      -6.5      3.349      6.088
REMARK  Name = 
REMARK  2 active torsions:
REMARK  status: ('A' for Active; 'I' for Inactive)
REMARK    1  A    between atoms: N_10  and  C_11
REMARK    2  A    between atoms: C_11  and  C_12
REMARK                            x       y       z     vdW  Elec       q    Type
REMARK                         _______ _______ _______ _____ _____    ______ ____
ROOT
ATOM      1  O   UNL     1       3.916   7.952  17.721  0.00  0.00    +0.000 OA
ATOM      2  S   UNL     1       4.761   6.955  17.083  0.00  0.00    +0.000 S 
ATOM      3  O   UNL     1       4.653   6.767  15.654  0.00  0.00    +0.000 OA
ATOM      4  C   UNL     1       6.433   7.383  17.513  0.00  0.00    +0.000 C 
ATOM      5  C   UNL     1       7.527   6.405  17.160  0.00  0.00    +0.000 C 
ATOM      6  O   UNL     1       7.342   5.785  15.900  0.00  0.00    +0.000 OA
ATOM      7  C   UNL     1       7.158   4.374  15.957  0.00  0.00    +0.000 C 
ATOM      8  C   UNL     1       5.742   3.938  16.334  0.00  0.00    +0.000 C 
ATOM      9  C   UNL     1       5.307   4.321  17.744  0.00  0.00    +0.000 C 
ATOM     10  N   UNL     1       4.381   5.482  17.842  0.00  0.00    +0.000 NA
ENDROOT
BRANCH  10  11
ATOM     11  C   UNL     1       2.961   5.100  17.509  0.00  0.00    +0.000 C 
BRANCH  11  12
ATOM     12  C   UNL     1       2.230   4.281  18.555  0.00  0.00    +0.000 A 
ATOM     13  C   UNL     1       1.996   2.918  18.292  0.00  0.00    +0.000 A 
ATOM     14  C   UNL     1       1.464   2.077  19.271  0.00  0.00    +0.000 A 
ATOM     15  C   UNL     1       1.158   2.580  20.532  0.00  0.00    +0.000 A 
ATOM     16  C   UNL     1       1.343   3.936  20.799  0.00  0.00    +0.000 A 
ATOM     17  C   UNL     1       1.858   4.787  19.814  0.00  0.00    +0.000 A 
ATOM     18 BR   UNL     1       1.996   6.626  20.271  0.00  0.00    +0.000 Br
ENDBRANCH  11  12
ENDBRANCH  10  11
TORSDOF 2
ENDMDL
MODEL 4
REMARK VINA RESULT:      -6.5      1.404      1.553
REMARK  Name = 
REMARK  2 active torsions:
REMARK  status: ('A' for Active; 'I' for Inactive)
REMARK    1  A    between atoms: N_10  and  C_11
REMARK    2  A    between atoms: C_11  and  C_12
REMARK                            x       y       z     vdW  Elec       q    Type
REMARK                         _______ _______ _______ _____ _____    ______ ____
ROOT
ATOM      1  O   UNL     1       3.512   1.472  17.802  0.00  0.00    +0.000 OA
ATOM      2  S   UNL     1       2.828   2.614  18.388  0.00  0.00    +0.000 S 
ATOM      3  O   UNL     1       1.915   3.372  17.564  0.00  0.00    +0.000 OA
ATOM      4  C   UNL     1       1.978   1.991  19.822  0.00  0.00    +0.000 C 
ATOM      5  C   UNL     1       1.342   2.992  20.756  0.00  0.00    +0.000 C 
ATOM      6  O   UNL     1       0.730   4.078  20.085  0.00  0.00    +0.000 OA
ATOM      7  C   UNL     1       1.311   5.348  20.362  0.00  0.00    +0.000 C 
ATOM      8  C   UNL     1       2.592   5.639  19.578  0.00  0.00    +0.000 C 
ATOM      9  C   UNL     1       3.768   4.728  19.911  0.00  0.00    +0.000 C 
ATOM     10  N   UNL     1       4.060   3.659  18.917  0.00  0.00    +0.000 NA
ENDROOT
BRANCH  10  11
ATOM     11  C   UNL     1       4.811   4.191  17.722  0.00  0.00    +0.000 C 
BRANCH  11  12
ATOM     12  C   UNL     1       5.865   5.242  18.013  0.00  0.00    +0.000 A 
ATOM     13  C   UNL     1       6.798   4.987  19.036  0.00  0.00    +0.000 A 
ATOM     14  C   UNL     1       7.879   5.842  19.254  0.00  0.00    +0.000 A 
ATOM     15  C   UNL     1       8.053   6.966  18.451  0.00  0.00    +0.000 A 
ATOM     16  C   UNL     1       7.118   7.258  17.460  0.00  0.00    +0.000 A 
ATOM     17  C   UNL     1       6.021   6.414  17.251  0.00  0.00    +0.000 A 
ATOM     18 BR   UNL     1       4.776   6.956  15.921  0.00  0.00    +0.000 Br
ENDBRANCH  11  12
ENDBRANCH  10  11
TORSDOF 2
ENDMDL
MODEL 5
REMARK VINA RESULT:      -6.5      2.417      3.220
REMARK  Name = 
REMARK  2 active torsions:
REMARK  status: ('A' for Active; 'I' for Inactive)
REMARK    1  A    between atoms: N_10  and  C_11
REMARK    2  A    between atoms: C_11  and  C_12
REMARK                            x       y       z     vdW  Elec       q    Type
REMARK                         _______ _______ _______ _____ _____    ______ ____
ROOT
ATOM      1  O   UNL     1       2.643   2.550  16.634  0.00  0.00    +0.000 OA
ATOM      2  S   UNL     1       2.233   3.319  17.798  0.00  0.00    +0.000 S 
ATOM      3  O   UNL     1       1.119   4.230  17.670  0.00  0.00    +0.000 OA
ATOM      4  C   UNL     1       1.899   2.129  19.078  0.00  0.00    +0.000 C 
ATOM      5  C   UNL     1       1.647   2.644  20.474  0.00  0.00    +0.000 C 
ATOM      6  O   UNL     1       0.878   3.832  20.505  0.00  0.00    +0.000 OA
ATOM      7  C   UNL     1       1.558   4.963  21.041  0.00  0.00    +0.000 C 
ATOM      8  C   UNL     1       2.506   5.652  20.059  0.00  0.00    +0.000 C 
ATOM      9  C   UNL     1       3.697   4.807  19.619  0.00  0.00    +0.000 C 
ATOM     10  N   UNL     1       3.602   4.216  18.256  0.00  0.00    +0.000 NA
ENDROOT
BRANCH  10  11
ATOM     11  C   UNL     1       3.921   5.224  17.181  0.00  0.00    +0.000 C 
BRANCH  11  12
ATOM     12  C   UNL     1       5.109   4.899  16.295  0.00  0.00    +0.000 A 
ATOM     13  C   UNL     1       4.862   4.337  15.028  0.00  0.00    +0.000 A 
ATOM     14  C   UNL     1       5.895   4.153  14.108  0.00  0.00    +0.000 A 
ATOM     15  C   UNL     1       7.195   4.530  14.434  0.00  0.00    +0.000 A 
ATOM     16  C   UNL     1       7.467   5.049  15.699  0.00  0.00    +0.000 A 
ATOM     17  C   UNL     1       6.436   5.218  16.631  0.00  0.00    +0.000 A 
ATOM     18 BR   UNL     1       6.942   5.866  18.345  0.00  0.00    +0.000 Br
ENDBRANCH  11  12
ENDBRANCH  10  11
TORSDOF 2
ENDMDL
MODEL 6
REMARK VINA RESULT:      -6.4      2.643      5.820
REMARK  Name = 
REMARK  2 active torsions:
REMARK  status: ('A' for Active; 'I' for Inactive)
REMARK    1  A    between atoms: N_10  and  C_11
REMARK    2  A    between atoms: C_11  and  C_12
REMARK                            x       y       z     vdW  Elec       q    Type
REMARK                         _______ _______ _______ _____ _____    ______ ____
ROOT
ATOM      1  O   UNL     1       4.531   4.378  15.631  0.00  0.00    +0.000 OA
ATOM      2  S   UNL     1       5.563   4.795  16.568  0.00  0.00    +0.000 S 
ATOM      3  O   UNL     1       6.788   4.032  16.632  0.00  0.00    +0.000 OA
ATOM      4  C   UNL     1       5.925   6.491  16.174  0.00  0.00    +0.000 C 
ATOM      5  C   UNL     1       6.819   7.261  17.116  0.00  0.00    +0.000 C 
ATOM      6  O   UNL     1       7.893   6.491  17.626  0.00  0.00    +0.000 OA
ATOM      7  C   UNL     1       7.867   6.301  19.037  0.00  0.00    +0.000 C 
ATOM      8  C   UNL     1       6.912   5.203  19.507  0.00  0.00    +0.000 C 
ATOM      9  C   UNL     1       5.436   5.484  19.248  0.00  0.00    +0.000 C 
ATOM     10  N   UNL     1       4.830   4.752  18.101  0.00  0.00    +0.000 NA
ENDROOT
BRANCH  10  11
ATOM     11  C   UNL     1       4.496   3.326  18.456  0.00  0.00    +0.000 C 
BRANCH  11  12
ATOM     12  C   UNL     1       3.345   3.134  19.425  0.00  0.00    +0.000 A 
ATOM     13  C   UNL     1       3.611   2.514  20.662  0.00  0.00    +0.000 A 
ATOM     14  C   UNL     1       2.633   2.442  21.655  0.00  0.00    +0.000 A 
ATOM     15  C   UNL     1       1.373   2.990  21.435  0.00  0.00    +0.000 A 
ATOM     16  C   UNL     1       1.077   3.570  20.203  0.00  0.00    +0.000 A 
ATOM     17  C   UNL     1       2.049   3.628  19.197  0.00  0.00    +0.000 A 
ATOM     18 BR   UNL     1       1.506   4.376  17.536  0.00  0.00    +0.000 Br
ENDBRANCH  11  12
ENDBRANCH  10  11
TORSDOF 2
ENDMDL
MODEL 7
REMARK VINA RESULT:      -6.4      2.267      3.264
REMARK  Name = 
REMARK  2 active torsions:
REMARK  status: ('A' for Active; 'I' for Inactive)
REMARK    1  A    between atoms: N_10  and  C_11
REMARK    2  A    between atoms: C_11  and  C_12
REMARK                            x       y       z     vdW  Elec       q    Type
REMARK                         _______ _______ _______ _____ _____    ______ ____
ROOT
ATOM      1  O   UNL     1       2.800   5.558  17.615  0.00  0.00    +0.000 OA
ATOM      2  S   UNL     1       2.660   4.765  18.827  0.00  0.00    +0.000 S 
ATOM      3  O   UNL     1       2.829   5.417  20.105  0.00  0.00    +0.000 OA
ATOM      4  C   UNL     1       1.050   4.014  18.737  0.00  0.00    +0.000 C 
ATOM      5  C   UNL     1       0.700   2.965  19.764  0.00  0.00    +0.000 C 
ATOM      6  O   UNL     1       1.181   3.266  21.061  0.00  0.00    +0.000 OA
ATOM      7  C   UNL     1       2.136   2.339  21.568  0.00  0.00    +0.000 C 
ATOM      8  C   UNL     1       3.556   2.544  21.039  0.00  0.00    +0.000 C 
ATOM      9  C   UNL     1       3.722   2.308  19.542  0.00  0.00    +0.000 C 
ATOM     10  N   UNL     1       3.824   3.533  18.701  0.00  0.00    +0.000 NA
ENDROOT
BRANCH  10  11
ATOM     11  C   UNL     1       5.203   4.141  18.757  0.00  0.00    +0.000 C 
BRANCH  11  12
ATOM     12  C   UNL     1       5.887   4.362  17.422  0.00  0.00    +0.000 A 
ATOM     13  C   UNL     1       5.401   3.665  16.299  0.00  0.00    +0.000 A 
ATOM     14  C   UNL     1       5.887   3.934  15.019  0.00  0.00    +0.000 A 
ATOM     15  C   UNL     1       6.864   4.909  14.834  0.00  0.00    +0.000 A 
ATOM     16  C   UNL     1       7.388   5.580  15.937  0.00  0.00    +0.000 A 
ATOM     17  C   UNL     1       6.917   5.300  17.225  0.00  0.00    +0.000 A 
ATOM     18 BR   UNL     1       7.758   6.227  18.655  0.00  0.00    +0.000 Br
ENDBRANCH  11  12
ENDBRANCH  10  11
TORSDOF 2
ENDMDL
MODEL 8
REMARK VINA RESULT:      -6.3      3.317      6.130
REMARK  Name = 
REMARK  2 active torsions:
REMARK  status: ('A' for Active; 'I' for Inactive)
REMARK    1  A    between atoms: N_10  and  C_11
REMARK    2  A    between atoms: C_11  and  C_12
REMARK                            x       y       z     vdW  Elec       q    Type
REMARK                         _______ _______ _______ _____ _____    ______ ____
ROOT
ATOM      1  O   UNL     1       3.717   7.786  17.423  0.00  0.00    +0.000 OA
ATOM      2  S   UNL     1       4.766   6.877  16.990  0.00  0.00    +0.000 S 
ATOM      3  O   UNL     1       4.790   6.456  15.608  0.00  0.00    +0.000 OA
ATOM      4  C   UNL     1       6.303   7.667  17.411  0.00  0.00    +0.000 C 
ATOM      5  C   UNL     1       7.574   6.865  17.265  0.00  0.00    +0.000 C 
ATOM      6  O   UNL     1       7.587   6.036  16.117  0.00  0.00    +0.000 OA
ATOM      7  C   UNL     1       7.651   4.641  16.395  0.00  0.00    +0.000 C 
ATOM      8  C   UNL     1       6.311   4.014  16.781  0.00  0.00    +0.000 C 
ATOM      9  C   UNL     1       5.720   4.521  18.092  0.00  0.00    +0.000 C 
ATOM     10  N   UNL     1       4.599   5.493  17.963  0.00  0.00    +0.000 NA
ENDROOT
BRANCH  10  11
ATOM     11  C   UNL     1       3.295   4.809  17.640  0.00  0.00    +0.000 C 
BRANCH  11  12
ATOM     12  C   UNL     1       2.575   4.164  18.809  0.00  0.00    +0.000 A 
ATOM     13  C   UNL     1       1.834   4.990  19.675  0.00  0.00    +0.000 A 
ATOM     14  C   UNL     1       1.030   4.444  20.678  0.00  0.00    +0.000 A 
ATOM     15  C   UNL     1       0.949   3.064  20.832  0.00  0.00    +0.000 A 
ATOM     16  C   UNL     1       1.707   2.230  20.012  0.00  0.00    +0.000 A 
ATOM     17  C   UNL     1       2.529   2.774  19.018  0.00  0.00    +0.000 A 
ATOM     18 BR   UNL     1       3.569   1.542  18.012  0.00  0.00    +0.000 Br
ENDBRANCH  11  12
ENDBRANCH  10  11
TORSDOF 2
ENDMDL
MODEL 9
REMARK VINA RESULT:      -6.3      1.035      1.131
REMARK  Name = 
REMARK  2 active torsions:
REMARK  status: ('A' for Active; 'I' for Inactive)
REMARK    1  A    between atoms: N_10  and  C_11
REMARK    2  A    between atoms: C_11  and  C_12
REMARK                            x       y       z     vdW  Elec       q    Type
REMARK                         _______ _______ _______ _____ _____    ______ ____
ROOT
ATOM      1  O   UNL     1       5.180   2.320  20.208  0.00  0.00    +0.000 OA
ATOM      2  S   UNL     1       3.806   2.420  19.740  0.00  0.00    +0.000 S 
ATOM      3  O   UNL     1       3.282   1.368  18.899  0.00  0.00    +0.000 OA
ATOM      4  C   UNL     1       2.803   2.586  21.200  0.00  0.00    +0.000 C 
ATOM      5  C   UNL     1       1.341   2.916  21.019  0.00  0.00    +0.000 C 
ATOM      6  O   UNL     1       0.746   2.251  19.920  0.00  0.00    +0.000 OA
ATOM      7  C   UNL     1       0.274   3.114  18.890  0.00  0.00    +0.000 C 
ATOM      8  C   UNL     1       1.364   3.617  17.942  0.00  0.00    +0.000 C 
ATOM      9  C   UNL     1       2.410   4.518  18.589  0.00  0.00    +0.000 C 
ATOM     10  N   UNL     1       3.725   3.881  18.874  0.00  0.00    +0.000 NA
ENDROOT
BRANCH  10  11
ATOM     11  C   UNL     1       4.581   3.776  17.637  0.00  0.00    +0.000 C 
BRANCH  11  12
ATOM     12  C   UNL     1       5.608   4.876  17.444  0.00  0.00    +0.000 A 
ATOM     13  C   UNL     1       6.050   5.584  18.578  0.00  0.00    +0.000 A 
ATOM     14  C   UNL     1       7.097   6.501  18.491  0.00  0.00    +0.000 A 
ATOM     15  C   UNL     1       7.727   6.728  17.270  0.00  0.00    +0.000 A 
ATOM     16  C   UNL     1       7.277   6.069  16.128  0.00  0.00    +0.000 A 
ATOM     17  C   UNL     1       6.214   5.161  16.207  0.00  0.00    +0.000 A 
ATOM     18 BR   UNL     1       5.643   4.380  14.571  0.00  0.00    +0.000 Br
ENDBRANCH  11  12
ENDBRANCH  10  11
TORSDOF 2
ENDMDL
