MODEL 1
REMARK VINA RESULT:      -8.8      0.000      0.000
REMARK  Name = 
REMARK  4 active torsions:
REMARK  status: ('A' for Active; 'I' for Inactive)
REMARK    1  A    between atoms: C_1  and  O_2
REMARK    2  A    between atoms: O_2  and  C_3
REMARK    3  A    between atoms: C_6  and  C_7
REMARK    4  A    between atoms: N_9  and  C_10
REMARK                            x       y       z     vdW  Elec       q    Type
REMARK                         _______ _______ _______ _____ _____    ______ ____
ROOT
ATOM      1  C   UNL     1       6.398   6.883  17.027  0.00  0.00    +0.000 A 
ATOM      2  C   UNL     1       7.029   5.705  16.634  0.00  0.00    +0.000 A 
ATOM      3  C   UNL     1       6.444   4.487  16.952  0.00  0.00    +0.000 A 
ATOM      4  C   UNL     1       5.214   4.465  17.572  0.00  0.00    +0.000 A 
ATOM      5  N   UNL     1       4.873   3.483  18.411  0.00  0.00    +0.000 NA
ATOM      6  C   UNL     1       3.651   3.582  18.960  0.00  0.00    +0.000 A 
ATOM      7  C   UNL     1       3.376   3.232  20.271  0.00  0.00    +0.000 A 
ATOM      8  C   UNL     1       2.073   3.285  20.758  0.00  0.00    +0.000 A 
ATOM      9  C   UNL     1       1.039   3.462  19.850  0.00  0.00    +0.000 A 
ATOM     10  C   UNL     1       1.341   3.939  18.578  0.00  0.00    +0.000 A 
ATOM     11  C   UNL     1       2.659   4.286  18.296  0.00  0.00    +0.000 A 
ATOM     12  N   UNL     1       3.038   5.379  17.593  0.00  0.00    +0.000 NA
ATOM     13  C   UNL     1       4.384   5.562  17.441  0.00  0.00    +0.000 A 
ATOM     14  C   UNL     1       5.038   6.811  17.360  0.00  0.00    +0.000 A 
ENDROOT
BRANCH   1  17
ATOM     15  C   UNL     1       8.068   8.327  18.180  0.00  0.00    +0.000 C 
ATOM     16  O   UNL     1       8.557   7.455  18.886  0.00  0.00    +0.000 OA
ATOM     17  N   UNL     1       7.123   8.098  17.175  0.00  0.00    +0.000 N 
ATOM     18  H   UNL     1       6.945   8.833  16.500  0.00  0.00    +0.000 HD
BRANCH  15  22
ATOM     19  C   UNL     1       9.496  12.301  18.899  0.00  0.00    +0.000 A 
ATOM     20  C   UNL     1       9.860  11.222  19.712  0.00  0.00    +0.000 A 
ATOM     21  C   UNL     1       9.420   9.935  19.432  0.00  0.00    +0.000 A 
ATOM     22  C   UNL     1       8.613   9.689  18.325  0.00  0.00    +0.000 A 
ATOM     23  C   UNL     1       8.218  10.771  17.503  0.00  0.00    +0.000 A 
ATOM     24  C   UNL     1       8.664  12.061  17.800  0.00  0.00    +0.000 A 
BRANCH  19  26
ATOM     25  C   UNL     1      11.022  13.478  20.254  0.00  0.00    +0.000 C 
ATOM     26  O   UNL     1       9.971  13.504  19.316  0.00  0.00    +0.000 OA
ENDBRANCH  19  26
ENDBRANCH  15  22
ENDBRANCH   1  17
TORSDOF 3
ENDMDL
MODEL 2
REMARK VINA RESULT:      -8.6      0.580      1.148
REMARK  Name = 
REMARK  4 active torsions:
REMARK  status: ('A' for Active; 'I' for Inactive)
REMARK    1  A    between atoms: C_1  and  O_2
REMARK    2  A    between atoms: O_2  and  C_3
REMARK    3  A    between atoms: C_6  and  C_7
REMARK    4  A    between atoms: N_9  and  C_10
REMARK                            x       y       z     vdW  Elec       q    Type
REMARK                         _______ _______ _______ _____ _____    ______ ____
ROOT
ATOM      1  C   UNL     1       6.314   6.917  17.052  0.00  0.00    +0.000 A 
ATOM      2  C   UNL     1       6.962   5.770  16.601  0.00  0.00    +0.000 A 
ATOM      3  C   UNL     1       6.402   4.528  16.867  0.00  0.00    +0.000 A 
ATOM      4  C   UNL     1       5.178   4.456  17.494  0.00  0.00    +0.000 A 
ATOM      5  N   UNL     1       4.861   3.430  18.290  0.00  0.00    +0.000 NA
ATOM      6  C   UNL     1       3.643   3.481  18.852  0.00  0.00    +0.000 A 
ATOM      7  C   UNL     1       3.386   3.067  20.149  0.00  0.00    +0.000 A 
ATOM      8  C   UNL     1       2.086   3.073  20.647  0.00  0.00    +0.000 A 
ATOM      9  C   UNL     1       1.041   3.273  19.756  0.00  0.00    +0.000 A 
ATOM     10  C   UNL     1       1.324   3.813  18.505  0.00  0.00    +0.000 A 
ATOM     11  C   UNL     1       2.633   4.197  18.229  0.00  0.00    +0.000 A 
ATOM     12  N   UNL     1       2.986   5.328  17.574  0.00  0.00    +0.000 NA
ATOM     13  C   UNL     1       4.327   5.542  17.421  0.00  0.00    +0.000 A 
ATOM     14  C   UNL     1       4.958   6.805  17.391  0.00  0.00    +0.000 A 
ENDROOT
BRANCH   1  17
ATOM     15  C   UNL     1       8.016   8.316  18.213  0.00  0.00    +0.000 C 
ATOM     16  O   UNL     1       8.567   7.408  18.820  0.00  0.00    +0.000 OA
ATOM     17  N   UNL     1       7.018   8.137  17.250  0.00  0.00    +0.000 N 
ATOM     18  H   UNL     1       6.782   8.916  16.645  0.00  0.00    +0.000 HD
BRANCH  15  22
ATOM     19  C   UNL     1       9.660  12.260  18.529  0.00  0.00    +0.000 A 
ATOM     20  C   UNL     1       8.670  11.939  17.593  0.00  0.00    +0.000 A 
ATOM     21  C   UNL     1       8.121  10.665  17.541  0.00  0.00    +0.000 A 
ATOM     22  C   UNL     1       8.538   9.679  18.429  0.00  0.00    +0.000 A 
ATOM     23  C   UNL     1       9.552   9.977  19.368  0.00  0.00    +0.000 A 
ATOM     24  C   UNL     1      10.099  11.262  19.406  0.00  0.00    +0.000 A 
BRANCH  19  26
ATOM     25  C   UNL     1      11.041  13.797  17.398  0.00  0.00    +0.000 C 
ATOM     26  O   UNL     1      10.128  13.531  18.439  0.00  0.00    +0.000 OA
ENDBRANCH  19  26
ENDBRANCH  15  22
ENDBRANCH   1  17
TORSDOF 3
ENDMDL
MODEL 3
REMARK VINA RESULT:      -8.6      5.121      7.357
REMARK  Name = 
REMARK  4 active torsions:
REMARK  status: ('A' for Active; 'I' for Inactive)
REMARK    1  A    between atoms: C_1  and  O_2
REMARK    2  A    between atoms: O_2  and  C_3
REMARK    3  A    between atoms: C_6  and  C_7
REMARK    4  A    between atoms: N_9  and  C_10
REMARK                            x       y       z     vdW  Elec       q    Type
REMARK                         _______ _______ _______ _____ _____    ______ ____
ROOT
ATOM      1  C   UNL     1       2.309   5.832  20.190  0.00  0.00    +0.000 A 
ATOM      2  C   UNL     1       1.695   4.611  19.923  0.00  0.00    +0.000 A 
ATOM      3  C   UNL     1       2.227   3.787  18.940  0.00  0.00    +0.000 A 
ATOM      4  C   UNL     1       3.396   4.151  18.309  0.00  0.00    +0.000 A 
ATOM      5  N   UNL     1       3.643   3.802  17.042  0.00  0.00    +0.000 NA
ATOM      6  C   UNL     1       4.811   4.227  16.537  0.00  0.00    +0.000 A 
ATOM      7  C   UNL     1       4.961   4.663  15.232  0.00  0.00    +0.000 A 
ATOM      8  C   UNL     1       6.217   5.018  14.745  0.00  0.00    +0.000 A 
ATOM      9  C   UNL     1       7.331   4.703  15.509  0.00  0.00    +0.000 A 
ATOM     10  C   UNL     1       7.152   4.394  16.855  0.00  0.00    +0.000 A 
ATOM     11  C   UNL     1       5.872   4.485  17.392  0.00  0.00    +0.000 A 
ATOM     12  N   UNL     1       5.577   5.000  18.609  0.00  0.00    +0.000 NA
ATOM     13  C   UNL     1       4.254   5.024  18.949  0.00  0.00    +0.000 A 
ATOM     14  C   UNL     1       3.633   6.001  19.759  0.00  0.00    +0.000 A 
ENDROOT
BRANCH   1  17
ATOM     15  C   UNL     1       1.486   8.182  20.239  0.00  0.00    +0.000 C 
ATOM     16  O   UNL     1       1.768   8.463  19.082  0.00  0.00    +0.000 OA
ATOM     17  N   UNL     1       1.597   6.904  20.796  0.00  0.00    +0.000 N 
ATOM     18  H   UNL     1       1.135   6.718  21.679  0.00  0.00    +0.000 HD
BRANCH  15  22
ATOM     19  C   UNL     1      -0.582  11.082  22.619  0.00  0.00    +0.000 A 
ATOM     20  C   UNL     1      -0.310   9.793  23.089  0.00  0.00    +0.000 A 
ATOM     21  C   UNL     1       0.402   8.885  22.316  0.00  0.00    +0.000 A 
ATOM     22  C   UNL     1       0.871   9.245  21.056  0.00  0.00    +0.000 A 
ATOM     23  C   UNL     1       0.588  10.538  20.555  0.00  0.00    +0.000 A 
ATOM     24  C   UNL     1      -0.134  11.438  21.342  0.00  0.00    +0.000 A 
BRANCH  19  26
ATOM     25  C   UNL     1      -2.662  12.073  23.111  0.00  0.00    +0.000 C 
ATOM     26  O   UNL     1      -1.317  11.846  23.468  0.00  0.00    +0.000 OA
ENDBRANCH  19  26
ENDBRANCH  15  22
ENDBRANCH   1  17
TORSDOF 3
ENDMDL
MODEL 4
REMARK VINA RESULT:      -8.5      1.616      1.920
REMARK  Name = 
REMARK  4 active torsions:
REMARK  status: ('A' for Active; 'I' for Inactive)
REMARK    1  A    between atoms: C_1  and  O_2
REMARK    2  A    between atoms: O_2  and  C_3
REMARK    3  A    between atoms: C_6  and  C_7
REMARK    4  A    between atoms: N_9  and  C_10
REMARK                            x       y       z     vdW  Elec       q    Type
REMARK                         _______ _______ _______ _____ _____    ______ ____
ROOT
ATOM      1  C   UNL     1       7.522   7.548  17.696  0.00  0.00    +0.000 A 
ATOM      2  C   UNL     1       8.173   6.707  18.596  0.00  0.00    +0.000 A 
ATOM      3  C   UNL     1       7.459   5.680  19.198  0.00  0.00    +0.000 A 
ATOM      4  C   UNL     1       6.150   5.458  18.834  0.00  0.00    +0.000 A 
ATOM      5  N   UNL     1       5.258   4.966  19.699  0.00  0.00    +0.000 NA
ATOM      6  C   UNL     1       4.013   4.806  19.226  0.00  0.00    +0.000 A 
ATOM      7  C   UNL     1       2.876   5.059  19.976  0.00  0.00    +0.000 A 
ATOM      8  C   UNL     1       1.612   4.799  19.453  0.00  0.00    +0.000 A 
ATOM      9  C   UNL     1       1.525   4.071  18.275  0.00  0.00    +0.000 A 
ATOM     10  C   UNL     1       2.662   3.947  17.481  0.00  0.00    +0.000 A 
ATOM     11  C   UNL     1       3.816   4.620  17.866  0.00  0.00    +0.000 A 
ATOM     12  N   UNL     1       4.646   5.280  17.024  0.00  0.00    +0.000 NA
ATOM     13  C   UNL     1       5.720   5.900  17.597  0.00  0.00    +0.000 A 
ATOM     14  C   UNL     1       6.318   7.094  17.138  0.00  0.00    +0.000 A 
ENDROOT
BRANCH   1  17
ATOM     15  C   UNL     1       8.687   9.650  18.349  0.00  0.00    +0.000 C 
ATOM     16  O   UNL     1       9.152   9.242  19.404  0.00  0.00    +0.000 OA
ATOM     17  N   UNL     1       8.009   8.856  17.419  0.00  0.00    +0.000 N 
ATOM     18  H   UNL     1       7.859   9.222  16.486  0.00  0.00    +0.000 HD
BRANCH  15  22
ATOM     19  C   UNL     1       9.652  13.758  17.609  0.00  0.00    +0.000 A 
ATOM     20  C   UNL     1      10.633  12.805  17.902  0.00  0.00    +0.000 A 
ATOM     21  C   UNL     1      10.300  11.471  18.093  0.00  0.00    +0.000 A 
ATOM     22  C   UNL     1       8.978  11.050  17.986  0.00  0.00    +0.000 A 
ATOM     23  C   UNL     1       7.968  12.003  17.712  0.00  0.00    +0.000 A 
ATOM     24  C   UNL     1       8.318  13.342  17.526  0.00  0.00    +0.000 A 
BRANCH  19  26
ATOM     25  C   UNL     1      11.519  15.180  17.414  0.00  0.00    +0.000 C 
ATOM     26  O   UNL     1      10.120  15.027  17.483  0.00  0.00    +0.000 OA
ENDBRANCH  19  26
ENDBRANCH  15  22
ENDBRANCH   1  17
TORSDOF 3
ENDMDL
MODEL 5
REMARK VINA RESULT:      -7.8      5.899      8.313
REMARK  Name = 
REMARK  4 active torsions:
REMARK  status: ('A' for Active; 'I' for Inactive)
REMARK    1  A    between atoms: C_1  and  O_2
REMARK    2  A    between atoms: O_2  and  C_3
REMARK    3  A    between atoms: C_6  and  C_7
REMARK    4  A    between atoms: N_9  and  C_10
REMARK                            x       y       z     vdW  Elec       q    Type
REMARK                         _______ _______ _______ _____ _____    ______ ____
ROOT
ATOM      1  C   UNL     1       2.066   8.103  18.420  0.00  0.00    +0.000 A 
ATOM      2  C   UNL     1       2.119   7.275  19.539  0.00  0.00    +0.000 A 
ATOM      3  C   UNL     1       2.998   6.201  19.544  0.00  0.00    +0.000 A 
ATOM      4  C   UNL     1       3.859   6.023  18.484  0.00  0.00    +0.000 A 
ATOM      5  N   UNL     1       4.266   4.805  18.112  0.00  0.00    +0.000 NA
ATOM      6  C   UNL     1       5.095   4.764  17.057  0.00  0.00    +0.000 A 
ATOM      7  C   UNL     1       5.039   3.780  16.084  0.00  0.00    +0.000 A 
ATOM      8  C   UNL     1       5.977   3.749  15.056  0.00  0.00    +0.000 A 
ATOM      9  C   UNL     1       7.093   4.568  15.159  0.00  0.00    +0.000 A 
ATOM     10  C   UNL     1       7.061   5.629  16.060  0.00  0.00    +0.000 A 
ATOM     11  C   UNL     1       5.886   5.865  16.765  0.00  0.00    +0.000 A 
ATOM     12  N   UNL     1       5.358   7.089  17.005  0.00  0.00    +0.000 NA
ATOM     13  C   UNL     1       4.181   7.113  17.698  0.00  0.00    +0.000 A 
ATOM     14  C   UNL     1       3.153   8.067  17.535  0.00  0.00    +0.000 A 
ENDROOT
BRANCH   1  17
ATOM     15  C   UNL     1       0.466   9.939  18.939  0.00  0.00    +0.000 C 
ATOM     16  O   UNL     1       1.122  10.462  19.830  0.00  0.00    +0.000 OA
ATOM     17  N   UNL     1       0.915   8.888  18.133  0.00  0.00    +0.000 N 
ATOM     18  H   UNL     1       0.402   8.673  17.286  0.00  0.00    +0.000 HD
BRANCH  15  22
ATOM     19  C   UNL     1      -3.430  11.605  18.309  0.00  0.00    +0.000 A 
ATOM     20  C   UNL     1      -2.601  12.026  19.354  0.00  0.00    +0.000 A 
ATOM     21  C   UNL     1      -1.325  11.503  19.510  0.00  0.00    +0.000 A 
ATOM     22  C   UNL     1      -0.837  10.553  18.619  0.00  0.00    +0.000 A 
ATOM     23  C   UNL     1      -1.667  10.098  17.568  0.00  0.00    +0.000 A 
ATOM     24  C   UNL     1      -2.951  10.630  17.427  0.00  0.00    +0.000 A 
BRANCH  19  26
ATOM     25  C   UNL     1      -5.419  12.033  17.122  0.00  0.00    +0.000 C 
ATOM     26  O   UNL     1      -4.662  12.176  18.302  0.00  0.00    +0.000 OA
ENDBRANCH  19  26
ENDBRANCH  15  22
ENDBRANCH   1  17
TORSDOF 3
ENDMDL
MODEL 6
REMARK VINA RESULT:      -7.7      1.606      2.150
REMARK  Name = 
REMARK  4 active torsions:
REMARK  status: ('A' for Active; 'I' for Inactive)
REMARK    1  A    between atoms: C_1  and  O_2
REMARK    2  A    between atoms: O_2  and  C_3
REMARK    3  A    between atoms: C_6  and  C_7
REMARK    4  A    between atoms: N_9  and  C_10
REMARK                            x       y       z     vdW  Elec       q    Type
REMARK                         _______ _______ _______ _____ _____    ______ ____
ROOT
ATOM      1  C   UNL     1       7.477   7.798  17.765  0.00  0.00    +0.000 A 
ATOM      2  C   UNL     1       8.195   6.862  18.506  0.00  0.00    +0.000 A 
ATOM      3  C   UNL     1       7.541   5.739  18.992  0.00  0.00    +0.000 A 
ATOM      4  C   UNL     1       6.221   5.526  18.664  0.00  0.00    +0.000 A 
ATOM      5  N   UNL     1       5.389   4.890  19.495  0.00  0.00    +0.000 NA
ATOM      6  C   UNL     1       4.125   4.756  19.064  0.00  0.00    +0.000 A 
ATOM      7  C   UNL     1       3.023   4.865  19.897  0.00  0.00    +0.000 A 
ATOM      8  C   UNL     1       1.740   4.639  19.404  0.00  0.00    +0.000 A 
ATOM      9  C   UNL     1       1.610   4.078  18.142  0.00  0.00    +0.000 A 
ATOM     10  C   UNL     1       2.706   4.103  17.284  0.00  0.00    +0.000 A 
ATOM     11  C   UNL     1       3.862   4.754  17.703  0.00  0.00    +0.000 A 
ATOM     12  N   UNL     1       4.629   5.551  16.922  0.00  0.00    +0.000 NA
ATOM     13  C   UNL     1       5.714   6.121  17.524  0.00  0.00    +0.000 A 
ATOM     14  C   UNL     1       6.257   7.386  17.208  0.00  0.00    +0.000 A 
ENDROOT
BRANCH   1  17
ATOM     15  C   UNL     1       8.746   9.780  18.578  0.00  0.00    +0.000 C 
ATOM     16  O   UNL     1       9.385   9.202  19.447  0.00  0.00    +0.000 OA
ATOM     17  N   UNL     1       7.913   9.147  17.650  0.00  0.00    +0.000 N 
ATOM     18  H   UNL     1       7.606   9.670  16.839  0.00  0.00    +0.000 HD
BRANCH  15  22
ATOM     19  C   UNL     1       9.424  13.941  17.816  0.00  0.00    +0.000 A 
ATOM     20  C   UNL     1       8.271  13.282  17.375  0.00  0.00    +0.000 A 
ATOM     21  C   UNL     1       8.053  11.944  17.673  0.00  0.00    +0.000 A 
ATOM     22  C   UNL     1       8.976  11.229  18.431  0.00  0.00    +0.000 A 
ATOM     23  C   UNL     1      10.158  11.872  18.869  0.00  0.00    +0.000 A 
ATOM     24  C   UNL     1      10.366  13.218  18.556  0.00  0.00    +0.000 A 
BRANCH  19  26
ATOM     25  C   UNL     1      10.817  15.777  17.331  0.00  0.00    +0.000 C 
ATOM     26  O   UNL     1       9.519  15.236  17.419  0.00  0.00    +0.000 OA
ENDBRANCH  19  26
ENDBRANCH  15  22
ENDBRANCH   1  17
TORSDOF 3
ENDMDL
MODEL 7
REMARK VINA RESULT:      -7.6      5.846      8.389
REMARK  Name = 
REMARK  4 active torsions:
REMARK  status: ('A' for Active; 'I' for Inactive)
REMARK    1  A    between atoms: C_1  and  O_2
REMARK    2  A    between atoms: O_2  and  C_3
REMARK    3  A    between atoms: C_6  and  C_7
REMARK    4  A    between atoms: N_9  and  C_10
REMARK                            x       y       z     vdW  Elec       q    Type
REMARK                         _______ _______ _______ _____ _____    ______ ____
ROOT
ATOM      1  C   UNL     1       2.005   7.997  18.409  0.00  0.00    +0.000 A 
ATOM      2  C   UNL     1       2.142   7.222  19.558  0.00  0.00    +0.000 A 
ATOM      3  C   UNL     1       3.079   6.199  19.576  0.00  0.00    +0.000 A 
ATOM      4  C   UNL     1       3.912   6.022  18.494  0.00  0.00    +0.000 A 
ATOM      5  N   UNL     1       4.373   4.813  18.158  0.00  0.00    +0.000 NA
ATOM      6  C   UNL     1       5.168   4.771  17.077  0.00  0.00    +0.000 A 
ATOM      7  C   UNL     1       5.134   3.744  16.148  0.00  0.00    +0.000 A 
ATOM      8  C   UNL     1       6.038   3.719  15.089  0.00  0.00    +0.000 A 
ATOM      9  C   UNL     1       7.108   4.602  15.118  0.00  0.00    +0.000 A 
ATOM     10  C   UNL     1       7.048   5.698  15.975  0.00  0.00    +0.000 A 
ATOM     11  C   UNL     1       5.886   5.900  16.712  0.00  0.00    +0.000 A 
ATOM     12  N   UNL     1       5.299   7.102  16.919  0.00  0.00    +0.000 NA
ATOM     13  C   UNL     1       4.146   7.093  17.653  0.00  0.00    +0.000 A 
ATOM     14  C   UNL     1       3.062   7.982  17.487  0.00  0.00    +0.000 A 
ENDROOT
BRANCH   1  17
ATOM     15  C   UNL     1       0.388   9.843  18.830  0.00  0.00    +0.000 C 
ATOM     16  O   UNL     1       1.100  10.498  19.579  0.00  0.00    +0.000 OA
ATOM     17  N   UNL     1       0.803   8.706  18.131  0.00  0.00    +0.000 N 
ATOM     18  H   UNL     1       0.225   8.365  17.372  0.00  0.00    +0.000 HD
BRANCH  15  22
ATOM     19  C   UNL     1      -3.409  11.507  17.749  0.00  0.00    +0.000 A 
ATOM     20  C   UNL     1      -2.792  10.507  16.990  0.00  0.00    +0.000 A 
ATOM     21  C   UNL     1      -1.583   9.952  17.385  0.00  0.00    +0.000 A 
ATOM     22  C   UNL     1      -0.961  10.373  18.557  0.00  0.00    +0.000 A 
ATOM     23  C   UNL     1      -1.559  11.398  19.327  0.00  0.00    +0.000 A 
ATOM     24  C   UNL     1      -2.773  11.951  18.914  0.00  0.00    +0.000 A 
BRANCH  19  26
ATOM     25  C   UNL     1      -5.764  11.478  17.771  0.00  0.00    +0.000 C 
ATOM     26  O   UNL     1      -4.567  11.980  17.221  0.00  0.00    +0.000 OA
ENDBRANCH  19  26
ENDBRANCH  15  22
ENDBRANCH   1  17
TORSDOF 3
ENDMDL
MODEL 8
REMARK VINA RESULT:      -7.6      5.184      7.097
REMARK  Name = 
REMARK  4 active torsions:
REMARK  status: ('A' for Active; 'I' for Inactive)
REMARK    1  A    between atoms: C_1  and  O_2
REMARK    2  A    between atoms: O_2  and  C_3
REMARK    3  A    between atoms: C_6  and  C_7
REMARK    4  A    between atoms: N_9  and  C_10
REMARK                            x       y       z     vdW  Elec       q    Type
REMARK                         _______ _______ _______ _____ _____    ______ ____
ROOT
ATOM      1  C   UNL     1       2.307   6.209  20.155  0.00  0.00    +0.000 A 
ATOM      2  C   UNL     1       1.740   4.939  20.081  0.00  0.00    +0.000 A 
ATOM      3  C   UNL     1       2.296   3.998  19.225  0.00  0.00    +0.000 A 
ATOM      4  C   UNL     1       3.444   4.308  18.530  0.00  0.00    +0.000 A 
ATOM      5  N   UNL     1       3.695   3.783  17.327  0.00  0.00    +0.000 NA
ATOM      6  C   UNL     1       4.842   4.172  16.748  0.00  0.00    +0.000 A 
ATOM      7  C   UNL     1       4.964   4.414  15.390  0.00  0.00    +0.000 A 
ATOM      8  C   UNL     1       6.201   4.740  14.839  0.00  0.00    +0.000 A 
ATOM      9  C   UNL     1       7.333   4.585  15.626  0.00  0.00    +0.000 A 
ATOM     10  C   UNL     1       7.177   4.474  17.006  0.00  0.00    +0.000 A 
ATOM     11  C   UNL     1       5.898   4.595  17.540  0.00  0.00    +0.000 A 
ATOM     12  N   UNL     1       5.593   5.274  18.671  0.00  0.00    +0.000 NA
ATOM     13  C   UNL     1       4.273   5.299  19.022  0.00  0.00    +0.000 A 
ATOM     14  C   UNL     1       3.620   6.361  19.685  0.00  0.00    +0.000 A 
ENDROOT
BRANCH   1  17
ATOM     15  C   UNL     1       1.367   8.495  19.853  0.00  0.00    +0.000 C 
ATOM     16  O   UNL     1       1.603   8.596  18.656  0.00  0.00    +0.000 OA
ATOM     17  N   UNL     1       1.557   7.331  20.604  0.00  0.00    +0.000 N 
ATOM     18  H   UNL     1       1.130   7.270  21.521  0.00  0.00    +0.000 HD
BRANCH  15  22
ATOM     19  C   UNL     1      -0.202  11.975  21.797  0.00  0.00    +0.000 A 
ATOM     20  C   UNL     1       0.480  12.048  20.578  0.00  0.00    +0.000 A 
ATOM     21  C   UNL     1       0.940  10.901  19.945  0.00  0.00    +0.000 A 
ATOM     22  C   UNL     1       0.721   9.647  20.508  0.00  0.00    +0.000 A 
ATOM     23  C   UNL     1       0.051   9.554  21.750  0.00  0.00    +0.000 A 
ATOM     24  C   UNL     1      -0.401  10.718  22.378  0.00  0.00    +0.000 A 
BRANCH  19  26
ATOM     25  C   UNL     1      -1.436  13.156  23.419  0.00  0.00    +0.000 C 
ATOM     26  O   UNL     1      -0.560  13.178  22.314  0.00  0.00    +0.000 OA
ENDBRANCH  19  26
ENDBRANCH  15  22
ENDBRANCH   1  17
TORSDOF 3
ENDMDL
MODEL 9
REMARK VINA RESULT:      -7.5      4.710      7.174
REMARK  Name = 
REMARK  4 active torsions:
REMARK  status: ('A' for Active; 'I' for Inactive)
REMARK    1  A    between atoms: C_1  and  O_2
REMARK    2  A    between atoms: O_2  and  C_3
REMARK    3  A    between atoms: C_6  and  C_7
REMARK    4  A    between atoms: N_9  and  C_10
REMARK                            x       y       z     vdW  Elec       q    Type
REMARK                         _______ _______ _______ _____ _____    ______ ____
ROOT
ATOM      1  C   UNL     1       4.053   6.102  18.244  0.00  0.00    +0.000 A 
ATOM      2  C   UNL     1       4.372   4.864  18.798  0.00  0.00    +0.000 A 
ATOM      3  C   UNL     1       5.101   3.954  18.045  0.00  0.00    +0.000 A 
ATOM      4  C   UNL     1       5.567   4.320  16.802  0.00  0.00    +0.000 A 
ATOM      5  N   UNL     1       5.718   3.424  15.821  0.00  0.00    +0.000 NA
ATOM      6  C   UNL     1       6.169   3.908  14.653  0.00  0.00    +0.000 A 
ATOM      7  C   UNL     1       5.718   3.464  13.421  0.00  0.00    +0.000 A 
ATOM      8  C   UNL     1       6.281   3.951  12.245  0.00  0.00    +0.000 A 
ATOM      9  C   UNL     1       7.447   4.699  12.335  0.00  0.00    +0.000 A 
ATOM     10  C   UNL     1       7.800   5.239  13.569  0.00  0.00    +0.000 A 
ATOM     11  C   UNL     1       6.932   5.066  14.641  0.00  0.00    +0.000 A 
ATOM     12  N   UNL     1       6.627   6.019  15.552  0.00  0.00    +0.000 NA
ATOM     13  C   UNL     1       5.732   5.663  16.522  0.00  0.00    +0.000 A 
ATOM     14  C   UNL     1       4.801   6.529  17.137  0.00  0.00    +0.000 A 
ENDROOT
BRANCH   1  17
ATOM     15  C   UNL     1       2.517   8.058  18.134  0.00  0.00    +0.000 C 
ATOM     16  O   UNL     1       2.857   8.454  17.027  0.00  0.00    +0.000 OA
ATOM     17  N   UNL     1       2.952   6.866  18.720  0.00  0.00    +0.000 N 
ATOM     18  H   UNL     1       2.453   6.512  19.528  0.00  0.00    +0.000 HD
BRANCH  15  22
ATOM     19  C   UNL     1      -0.318  10.602  20.095  0.00  0.00    +0.000 A 
ATOM     20  C   UNL     1      -0.058  10.697  18.723  0.00  0.00    +0.000 A 
ATOM     21  C   UNL     1       0.832   9.831  18.103  0.00  0.00    +0.000 A 
ATOM     22  C   UNL     1       1.479   8.839  18.833  0.00  0.00    +0.000 A 
ATOM     23  C   UNL     1       1.245   8.741  20.225  0.00  0.00    +0.000 A 
ATOM     24  C   UNL     1       0.351   9.622  20.837  0.00  0.00    +0.000 A 
BRANCH  19  26
ATOM     25  C   UNL     1      -2.144  12.026  19.663  0.00  0.00    +0.000 C 
ATOM     26  O   UNL     1      -1.181  11.537  20.570  0.00  0.00    +0.000 OA
ENDBRANCH  19  26
ENDBRANCH  15  22
ENDBRANCH   1  17
TORSDOF 3
ENDMDL
