MODEL 1
REMARK VINA RESULT:      -8.8      0.000      0.000
REMARK  Name = 
REMARK  5 active torsions:
REMARK  status: ('A' for Active; 'I' for Inactive)
REMARK    1  A    between atoms: C_1  and  N_2
REMARK    2  A    between atoms: C_5  and  O_6
REMARK    3  A    between atoms: O_6  and  C_7
REMARK    4  A    between atoms: N_20  and  C_21
REMARK    5  A    between atoms: C_24  and  N_25
REMARK                            x       y       z     vdW  Elec       q    Type
REMARK                         _______ _______ _______ _____ _____    ______ ____
ROOT
ATOM      1  C   UNL     1      -3.178   9.758  17.586  0.00  0.00    +0.000 C 
ATOM      2  N   UNL     1      -3.500  10.941  18.369  0.00  0.00    +0.000 N 
ATOM      3  C   UNL     1      -4.748  11.537  18.276  0.00  0.00    +0.000 A 
ATOM      4  O   UNL     1      -5.570  11.240  17.410  0.00  0.00    +0.000 OA
ATOM      5  C   UNL     1      -5.087  12.544  19.353  0.00  0.00    +0.000 A 
ATOM      6  C   UNL     1      -4.101  13.081  20.088  0.00  0.00    +0.000 A 
ATOM      7  C   UNL     1      -2.740  12.589  19.952  0.00  0.00    +0.000 A 
ATOM      8  C   UNL     1      -1.660  13.100  20.636  0.00  0.00    +0.000 A 
ATOM      9  N   UNL     1      -0.405  12.614  20.528  0.00  0.00    +0.000 NA
ATOM     10  C   UNL     1      -0.239  11.543  19.738  0.00  0.00    +0.000 A 
ATOM     11  N   UNL     1       1.054  11.055  19.568  0.00  0.00    +0.000 N 
ATOM     12  N   UNL     1      -1.239  10.961  19.066  0.00  0.00    +0.000 NA
ATOM     13  C   UNL     1      -2.464  11.498  19.156  0.00  0.00    +0.000 A 
ATOM     14  H   UNL     1       1.708  11.596  20.117  0.00  0.00    +0.000 HD
ENDROOT
BRANCH  11  15
ATOM     15  C   UNL     1       1.428   9.718  19.354  0.00  0.00    +0.000 A 
ATOM     16  C   UNL     1       1.872   9.322  18.091  0.00  0.00    +0.000 A 
ATOM     17  C   UNL     1       2.272   7.999  17.856  0.00  0.00    +0.000 A 
ATOM     18  C   UNL     1       2.283   7.045  18.883  0.00  0.00    +0.000 A 
ATOM     19  C   UNL     1       1.813   7.445  20.136  0.00  0.00    +0.000 A 
ATOM     20  C   UNL     1       1.389   8.757  20.368  0.00  0.00    +0.000 A 
BRANCH  18  21
ATOM     21  N   UNL     1       2.839   5.790  18.647  0.00  0.00    +0.000 N 
ATOM     22  C   UNL     1       2.063   4.831  17.855  0.00  0.00    +0.000 C 
ATOM     23  C   UNL     1       2.470   3.427  18.283  0.00  0.00    +0.000 C 
ATOM     24  C   UNL     1       3.975   3.217  18.135  0.00  0.00    +0.000 C 
ATOM     25  C   UNL     1       4.775   4.327  18.824  0.00  0.00    +0.000 C 
ATOM     26  C   UNL     1       4.288   5.724  18.429  0.00  0.00    +0.000 C 
ENDBRANCH  18  21
ENDBRANCH  11  15
BRANCH   5  27
ATOM     27  O   UNL     1      -6.396  12.931  19.634  0.00  0.00    +0.000 OA
BRANCH  27  28
ATOM     28  C   UNL     1      -6.868  13.015  20.930  0.00  0.00    +0.000 A 
ATOM     29  C   UNL     1      -6.907  14.180  21.707  0.00  0.00    +0.000 A 
ATOM     30 CL   UNL     1      -6.558  15.770  21.099  0.00  0.00    +0.000 Cl
ATOM     31  C   UNL     1      -7.334  14.119  23.037  0.00  0.00    +0.000 A 
ATOM     32  C   UNL     1      -7.837  12.941  23.575  0.00  0.00    +0.000 A 
ATOM     33  C   UNL     1      -7.916  11.809  22.774  0.00  0.00    +0.000 A 
ATOM     34  C   UNL     1      -7.427  11.842  21.462  0.00  0.00    +0.000 A 
ATOM     35 CL   UNL     1      -7.577  10.404  20.513  0.00  0.00    +0.000 Cl
ENDBRANCH  27  28
ENDBRANCH   5  27
TORSDOF 4
ENDMDL
MODEL 2
REMARK VINA RESULT:      -8.6      1.560      2.268
REMARK  Name = 
REMARK  5 active torsions:
REMARK  status: ('A' for Active; 'I' for Inactive)
REMARK    1  A    between atoms: C_1  and  N_2
REMARK    2  A    between atoms: C_5  and  O_6
REMARK    3  A    between atoms: O_6  and  C_7
REMARK    4  A    between atoms: N_20  and  C_21
REMARK    5  A    between atoms: C_24  and  N_25
REMARK                            x       y       z     vdW  Elec       q    Type
REMARK                         _______ _______ _______ _____ _____    ______ ____
ROOT
ATOM      1  C   UNL     1      -2.792   9.937  16.953  0.00  0.00    +0.000 C 
ATOM      2  N   UNL     1      -3.297  10.932  17.887  0.00  0.00    +0.000 N 
ATOM      3  C   UNL     1      -4.555  11.489  17.721  0.00  0.00    +0.000 A 
ATOM      4  O   UNL     1      -5.227  11.337  16.701  0.00  0.00    +0.000 OA
ATOM      5  C   UNL     1      -5.107  12.253  18.905  0.00  0.00    +0.000 A 
ATOM      6  C   UNL     1      -4.271  12.672  19.867  0.00  0.00    +0.000 A 
ATOM      7  C   UNL     1      -2.876  12.266  19.847  0.00  0.00    +0.000 A 
ATOM      8  C   UNL     1      -1.937  12.672  20.770  0.00  0.00    +0.000 A 
ATOM      9  N   UNL     1      -0.650  12.263  20.761  0.00  0.00    +0.000 NA
ATOM     10  C   UNL     1      -0.307  11.374  19.819  0.00  0.00    +0.000 A 
ATOM     11  N   UNL     1       1.026  10.976  19.757  0.00  0.00    +0.000 N 
ATOM     12  N   UNL     1      -1.162  10.898  18.907  0.00  0.00    +0.000 NA
ATOM     13  C   UNL     1      -2.420  11.362  18.911  0.00  0.00    +0.000 A 
ATOM     14  H   UNL     1       1.560  11.422  20.489  0.00  0.00    +0.000 HD
ENDROOT
BRANCH  11  15
ATOM     15  C   UNL     1       1.513   9.721  19.355  0.00  0.00    +0.000 A 
ATOM     16  C   UNL     1       1.514   8.660  20.262  0.00  0.00    +0.000 A 
ATOM     17  C   UNL     1       1.974   7.393  19.881  0.00  0.00    +0.000 A 
ATOM     18  C   UNL     1       2.405   7.134  18.572  0.00  0.00    +0.000 A 
ATOM     19  C   UNL     1       2.425   8.209  17.679  0.00  0.00    +0.000 A 
ATOM     20  C   UNL     1       1.991   9.481  18.063  0.00  0.00    +0.000 A 
BRANCH  18  21
ATOM     21  N   UNL     1       2.701   5.828  18.192  0.00  0.00    +0.000 N 
ATOM     22  C   UNL     1       4.102   5.489  17.922  0.00  0.00    +0.000 C 
ATOM     23  C   UNL     1       4.124   4.341  16.921  0.00  0.00    +0.000 C 
ATOM     24  C   UNL     1       3.327   3.143  17.434  0.00  0.00    +0.000 C 
ATOM     25  C   UNL     1       1.917   3.546  17.877  0.00  0.00    +0.000 C 
ATOM     26  C   UNL     1       1.928   4.752  18.821  0.00  0.00    +0.000 C 
ENDBRANCH  18  21
ENDBRANCH  11  15
BRANCH   5  27
ATOM     27  O   UNL     1      -6.465  12.529  19.054  0.00  0.00    +0.000 OA
BRANCH  27  28
ATOM     28  C   UNL     1      -6.932  13.819  19.220  0.00  0.00    +0.000 A 
ATOM     29  C   UNL     1      -7.014  14.789  18.212  0.00  0.00    +0.000 A 
ATOM     30 CL   UNL     1      -6.737  14.472  16.527  0.00  0.00    +0.000 Cl
ATOM     31  C   UNL     1      -7.430  16.086  18.525  0.00  0.00    +0.000 A 
ATOM     32  C   UNL     1      -7.879  16.408  19.801  0.00  0.00    +0.000 A 
ATOM     33  C   UNL     1      -7.916  15.420  20.776  0.00  0.00    +0.000 A 
ATOM     34  C   UNL     1      -7.437  14.135  20.491  0.00  0.00    +0.000 A 
ATOM     35 CL   UNL     1      -7.532  12.947  21.744  0.00  0.00    +0.000 Cl
ENDBRANCH  27  28
ENDBRANCH   5  27
TORSDOF 4
ENDMDL
MODEL 3
REMARK VINA RESULT:      -8.6      0.848      1.793
REMARK  Name = 
REMARK  5 active torsions:
REMARK  status: ('A' for Active; 'I' for Inactive)
REMARK    1  A    between atoms: C_1  and  N_2
REMARK    2  A    between atoms: C_5  and  O_6
REMARK    3  A    between atoms: O_6  and  C_7
REMARK    4  A    between atoms: N_20  and  C_21
REMARK    5  A    between atoms: C_24  and  N_25
REMARK                            x       y       z     vdW  Elec       q    Type
REMARK                         _______ _______ _______ _____ _____    ______ ____
ROOT
ATOM      1  C   UNL     1      -2.625   9.619  17.404  0.00  0.00    +0.000 C 
ATOM      2  N   UNL     1      -2.879  10.775  18.249  0.00  0.00    +0.000 N 
ATOM      3  C   UNL     1      -4.026  11.537  18.087  0.00  0.00    +0.000 A 
ATOM      4  O   UNL     1      -4.781  11.414  17.123  0.00  0.00    +0.000 OA
ATOM      5  C   UNL     1      -4.350  12.500  19.208  0.00  0.00    +0.000 A 
ATOM      6  C   UNL     1      -3.390  12.848  20.078  0.00  0.00    +0.000 A 
ATOM      7  C   UNL     1      -2.094  12.191  20.033  0.00  0.00    +0.000 A 
ATOM      8  C   UNL     1      -1.038  12.504  20.860  0.00  0.00    +0.000 A 
ATOM      9  N   UNL     1       0.151  11.865  20.832  0.00  0.00    +0.000 NA
ATOM     10  C   UNL     1       0.266  10.841  19.975  0.00  0.00    +0.000 A 
ATOM     11  N   UNL     1       1.499  10.199  19.890  0.00  0.00    +0.000 N 
ATOM     12  N   UNL     1      -0.721  10.446  19.162  0.00  0.00    +0.000 NA
ATOM     13  C   UNL     1      -1.872  11.133  19.178  0.00  0.00    +0.000 A 
ATOM     14  H   UNL     1       2.152  10.608  20.544  0.00  0.00    +0.000 HD
ENDROOT
BRANCH  11  15
ATOM     15  C   UNL     1       1.725   8.844  19.601  0.00  0.00    +0.000 A 
ATOM     16  C   UNL     1       2.107   8.470  18.311  0.00  0.00    +0.000 A 
ATOM     17  C   UNL     1       2.359   7.126  18.001  0.00  0.00    +0.000 A 
ATOM     18  C   UNL     1       2.282   6.123  18.977  0.00  0.00    +0.000 A 
ATOM     19  C   UNL     1       1.874   6.504  20.259  0.00  0.00    +0.000 A 
ATOM     20  C   UNL     1       1.596   7.839  20.565  0.00  0.00    +0.000 A 
BRANCH  18  21
ATOM     21  N   UNL     1       2.696   4.831  18.668  0.00  0.00    +0.000 N 
ATOM     22  C   UNL     1       1.929   4.083  17.667  0.00  0.00    +0.000 C 
ATOM     23  C   UNL     1       2.078   2.597  17.972  0.00  0.00    +0.000 C 
ATOM     24  C   UNL     1       3.548   2.183  18.003  0.00  0.00    +0.000 C 
ATOM     25  C   UNL     1       4.374   3.087  18.923  0.00  0.00    +0.000 C 
ATOM     26  C   UNL     1       4.140   4.573  18.639  0.00  0.00    +0.000 C 
ENDBRANCH  18  21
ENDBRANCH  11  15
BRANCH   5  27
ATOM     27  O   UNL     1      -5.624  13.036  19.392  0.00  0.00    +0.000 OA
BRANCH  27  28
ATOM     28  C   UNL     1      -6.383  12.740  20.508  0.00  0.00    +0.000 A 
ATOM     29  C   UNL     1      -7.074  11.541  20.727  0.00  0.00    +0.000 A 
ATOM     30 CL   UNL     1      -6.924  10.132  19.722  0.00  0.00    +0.000 Cl
ATOM     31  C   UNL     1      -7.876  11.394  21.862  0.00  0.00    +0.000 A 
ATOM     32  C   UNL     1      -7.911  12.374  22.847  0.00  0.00    +0.000 A 
ATOM     33  C   UNL     1      -7.134  13.515  22.697  0.00  0.00    +0.000 A 
ATOM     34  C   UNL     1      -6.381  13.703  21.530  0.00  0.00    +0.000 A 
ATOM     35 CL   UNL     1      -5.419  15.135  21.418  0.00  0.00    +0.000 Cl
ENDBRANCH  27  28
ENDBRANCH   5  27
TORSDOF 4
ENDMDL
MODEL 4
REMARK VINA RESULT:      -8.6      0.625      1.233
REMARK  Name = 
REMARK  5 active torsions:
REMARK  status: ('A' for Active; 'I' for Inactive)
REMARK    1  A    between atoms: C_1  and  N_2
REMARK    2  A    between atoms: C_5  and  O_6
REMARK    3  A    between atoms: O_6  and  C_7
REMARK    4  A    between atoms: N_20  and  C_21
REMARK    5  A    between atoms: C_24  and  N_25
REMARK                            x       y       z     vdW  Elec       q    Type
REMARK                         _______ _______ _______ _____ _____    ______ ____
ROOT
ATOM      1  C   UNL     1      -3.065   9.625  17.560  0.00  0.00    +0.000 C 
ATOM      2  N   UNL     1      -3.409  10.818  18.317  0.00  0.00    +0.000 N 
ATOM      3  C   UNL     1      -4.660  11.401  18.196  0.00  0.00    +0.000 A 
ATOM      4  O   UNL     1      -5.468  11.082  17.324  0.00  0.00    +0.000 OA
ATOM      5  C   UNL     1      -5.024  12.424  19.252  0.00  0.00    +0.000 A 
ATOM      6  C   UNL     1      -4.053  12.982  19.990  0.00  0.00    +0.000 A 
ATOM      7  C   UNL     1      -2.686  12.501  19.882  0.00  0.00    +0.000 A 
ATOM      8  C   UNL     1      -1.620  13.033  20.572  0.00  0.00    +0.000 A 
ATOM      9  N   UNL     1      -0.359  12.558  20.489  0.00  0.00    +0.000 NA
ATOM     10  C   UNL     1      -0.173  11.475  19.721  0.00  0.00    +0.000 A 
ATOM     11  N   UNL     1       1.127  10.996  19.577  0.00  0.00    +0.000 N 
ATOM     12  N   UNL     1      -1.158  10.872  19.044  0.00  0.00    +0.000 NA
ATOM     13  C   UNL     1      -2.389  11.399  19.108  0.00  0.00    +0.000 A 
ATOM     14  H   UNL     1       1.768  11.552  20.125  0.00  0.00    +0.000 HD
ENDROOT
BRANCH  11  15
ATOM     15  C   UNL     1       1.516   9.660  19.392  0.00  0.00    +0.000 A 
ATOM     16  C   UNL     1       1.478   8.776  20.472  0.00  0.00    +0.000 A 
ATOM     17  C   UNL     1       1.841   7.432  20.310  0.00  0.00    +0.000 A 
ATOM     18  C   UNL     1       2.211   6.919  19.058  0.00  0.00    +0.000 A 
ATOM     19  C   UNL     1       2.270   7.818  17.990  0.00  0.00    +0.000 A 
ATOM     20  C   UNL     1       1.934   9.165  18.153  0.00  0.00    +0.000 A 
BRANCH  18  21
ATOM     21  N   UNL     1       2.407   5.550  18.908  0.00  0.00    +0.000 N 
ATOM     22  C   UNL     1       2.726   4.764  20.105  0.00  0.00    +0.000 C 
ATOM     23  C   UNL     1       3.539   3.551  19.669  0.00  0.00    +0.000 C 
ATOM     24  C   UNL     1       2.791   2.730  18.621  0.00  0.00    +0.000 C 
ATOM     25  C   UNL     1       2.310   3.600  17.456  0.00  0.00    +0.000 C 
ATOM     26  C   UNL     1       1.565   4.850  17.932  0.00  0.00    +0.000 C 
ENDBRANCH  18  21
ENDBRANCH  11  15
BRANCH   5  27
ATOM     27  O   UNL     1      -6.340  12.803  19.508  0.00  0.00    +0.000 OA
BRANCH  27  28
ATOM     28  C   UNL     1      -6.853  12.834  20.790  0.00  0.00    +0.000 A 
ATOM     29  C   UNL     1      -6.959  13.976  21.595  0.00  0.00    +0.000 A 
ATOM     30 CL   UNL     1      -6.656  15.593  21.038  0.00  0.00    +0.000 Cl
ATOM     31  C   UNL     1      -7.421  13.863  22.909  0.00  0.00    +0.000 A 
ATOM     32  C   UNL     1      -7.893  12.652  23.403  0.00  0.00    +0.000 A 
ATOM     33  C   UNL     1      -7.905  11.540  22.571  0.00  0.00    +0.000 A 
ATOM     34  C   UNL     1      -7.379  11.626  21.276  0.00  0.00    +0.000 A 
ATOM     35 CL   UNL     1      -7.445  10.210  20.287  0.00  0.00    +0.000 Cl
ENDBRANCH  27  28
ENDBRANCH   5  27
TORSDOF 4
ENDMDL
MODEL 5
REMARK VINA RESULT:      -8.5      1.562      2.181
REMARK  Name = 
REMARK  5 active torsions:
REMARK  status: ('A' for Active; 'I' for Inactive)
REMARK    1  A    between atoms: C_1  and  N_2
REMARK    2  A    between atoms: C_5  and  O_6
REMARK    3  A    between atoms: O_6  and  C_7
REMARK    4  A    between atoms: N_20  and  C_21
REMARK    5  A    between atoms: C_24  and  N_25
REMARK                            x       y       z     vdW  Elec       q    Type
REMARK                         _______ _______ _______ _____ _____    ______ ____
ROOT
ATOM      1  C   UNL     1      -3.056   9.800  17.303  0.00  0.00    +0.000 C 
ATOM      2  N   UNL     1      -3.488  10.910  18.137  0.00  0.00    +0.000 N 
ATOM      3  C   UNL     1      -4.735  11.489  17.962  0.00  0.00    +0.000 A 
ATOM      4  O   UNL     1      -5.456  11.247  16.994  0.00  0.00    +0.000 OA
ATOM      5  C   UNL     1      -5.208  12.401  19.073  0.00  0.00    +0.000 A 
ATOM      6  C   UNL     1      -4.317  12.896  19.945  0.00  0.00    +0.000 A 
ATOM      7  C   UNL     1      -2.937  12.441  19.914  0.00  0.00    +0.000 A 
ATOM      8  C   UNL     1      -1.946  12.915  20.744  0.00  0.00    +0.000 A 
ATOM      9  N   UNL     1      -0.674  12.463  20.728  0.00  0.00    +0.000 NA
ATOM     10  C   UNL     1      -0.401  11.462  19.880  0.00  0.00    +0.000 A 
ATOM     11  N   UNL     1       0.915  11.012  19.808  0.00  0.00    +0.000 N 
ATOM     12  N   UNL     1      -1.311  10.917  19.064  0.00  0.00    +0.000 NA
ATOM     13  C   UNL     1      -2.553  11.422  19.068  0.00  0.00    +0.000 A 
ATOM     14  H   UNL     1       1.495  11.519  20.462  0.00  0.00    +0.000 HD
ENDROOT
BRANCH  11  15
ATOM     15  C   UNL     1       1.345   9.704  19.532  0.00  0.00    +0.000 A 
ATOM     16  C   UNL     1       1.770   9.377  18.242  0.00  0.00    +0.000 A 
ATOM     17  C   UNL     1       2.223   8.085  17.944  0.00  0.00    +0.000 A 
ATOM     18  C   UNL     1       2.309   7.094  18.932  0.00  0.00    +0.000 A 
ATOM     19  C   UNL     1       1.857   7.423  20.213  0.00  0.00    +0.000 A 
ATOM     20  C   UNL     1       1.379   8.704  20.507  0.00  0.00    +0.000 A 
BRANCH  18  21
ATOM     21  N   UNL     1       2.914   5.877  18.632  0.00  0.00    +0.000 N 
ATOM     22  C   UNL     1       3.892   5.341  19.584  0.00  0.00    +0.000 C 
ATOM     23  C   UNL     1       4.874   4.469  18.810  0.00  0.00    +0.000 C 
ATOM     24  C   UNL     1       4.150   3.366  18.042  0.00  0.00    +0.000 C 
ATOM     25  C   UNL     1       3.013   3.925  17.181  0.00  0.00    +0.000 C 
ATOM     26  C   UNL     1       2.091   4.858  17.972  0.00  0.00    +0.000 C 
ENDBRANCH  18  21
ENDBRANCH  11  15
BRANCH   5  27
ATOM     27  O   UNL     1      -6.549  12.740  19.245  0.00  0.00    +0.000 OA
BRANCH  27  28
ATOM     28  C   UNL     1      -6.968  14.056  19.289  0.00  0.00    +0.000 A 
ATOM     29  C   UNL     1      -6.999  14.936  18.199  0.00  0.00    +0.000 A 
ATOM     30 CL   UNL     1      -6.712  14.460  16.554  0.00  0.00    +0.000 Cl
ATOM     31  C   UNL     1      -7.368  16.270  18.390  0.00  0.00    +0.000 A 
ATOM     32  C   UNL     1      -7.822  16.720  19.624  0.00  0.00    +0.000 A 
ATOM     33  C   UNL     1      -7.910  15.824  20.682  0.00  0.00    +0.000 A 
ATOM     34  C   UNL     1      -7.477  14.502  20.519  0.00  0.00    +0.000 A 
ATOM     35 CL   UNL     1      -7.636  13.434  21.870  0.00  0.00    +0.000 Cl
ENDBRANCH  27  28
ENDBRANCH   5  27
TORSDOF 4
ENDMDL
MODEL 6
REMARK VINA RESULT:      -8.3      0.982      2.196
REMARK  Name = 
REMARK  5 active torsions:
REMARK  status: ('A' for Active; 'I' for Inactive)
REMARK    1  A    between atoms: C_1  and  N_2
REMARK    2  A    between atoms: C_5  and  O_6
REMARK    3  A    between atoms: O_6  and  C_7
REMARK    4  A    between atoms: N_20  and  C_21
REMARK    5  A    between atoms: C_24  and  N_25
REMARK                            x       y       z     vdW  Elec       q    Type
REMARK                         _______ _______ _______ _____ _____    ______ ____
ROOT
ATOM      1  C   UNL     1      -2.452   9.459  17.004  0.00  0.00    +0.000 C 
ATOM      2  N   UNL     1      -2.827  10.592  17.835  0.00  0.00    +0.000 N 
ATOM      3  C   UNL     1      -4.035  11.245  17.645  0.00  0.00    +0.000 A 
ATOM      4  O   UNL     1      -4.757  11.048  16.668  0.00  0.00    +0.000 OA
ATOM      5  C   UNL     1      -4.468  12.182  18.752  0.00  0.00    +0.000 A 
ATOM      6  C   UNL     1      -3.560  12.621  19.637  0.00  0.00    +0.000 A 
ATOM      7  C   UNL     1      -2.210  12.085  19.622  0.00  0.00    +0.000 A 
ATOM      8  C   UNL     1      -1.203  12.497  20.466  0.00  0.00    +0.000 A 
ATOM      9  N   UNL     1       0.040  11.970  20.466  0.00  0.00    +0.000 NA
ATOM     10  C   UNL     1       0.264  10.955  19.619  0.00  0.00    +0.000 A 
ATOM     11  N   UNL     1       1.552  10.428  19.563  0.00  0.00    +0.000 N 
ATOM     12  N   UNL     1      -0.666  10.467  18.790  0.00  0.00    +0.000 NA
ATOM     13  C   UNL     1      -1.875  11.046  18.779  0.00  0.00    +0.000 A 
ATOM     14  H   UNL     1       2.153  10.899  20.225  0.00  0.00    +0.000 HD
ENDROOT
BRANCH  11  15
ATOM     15  C   UNL     1       1.906   9.097  19.289  0.00  0.00    +0.000 A 
ATOM     16  C   UNL     1       1.822   8.140  20.302  0.00  0.00    +0.000 A 
ATOM     17  C   UNL     1       2.149   6.801  20.051  0.00  0.00    +0.000 A 
ATOM     18  C   UNL     1       2.527   6.368  18.772  0.00  0.00    +0.000 A 
ATOM     19  C   UNL     1       2.633   7.337  17.771  0.00  0.00    +0.000 A 
ATOM     20  C   UNL     1       2.333   8.679  18.025  0.00  0.00    +0.000 A 
BRANCH  18  21
ATOM     21  N   UNL     1       2.686   5.007  18.528  0.00  0.00    +0.000 N 
ATOM     22  C   UNL     1       3.306   4.187  19.574  0.00  0.00    +0.000 C 
ATOM     23  C   UNL     1       3.987   3.001  18.901  0.00  0.00    +0.000 C 
ATOM     24  C   UNL     1       3.000   2.204  18.051  0.00  0.00    +0.000 C 
ATOM     25  C   UNL     1       2.231   3.105  17.079  0.00  0.00    +0.000 C 
ATOM     26  C   UNL     1       1.626   4.327  17.775  0.00  0.00    +0.000 C 
ENDBRANCH  18  21
ENDBRANCH  11  15
BRANCH   5  27
ATOM     27  O   UNL     1      -5.788  12.600  18.908  0.00  0.00    +0.000 OA
BRANCH  27  28
ATOM     28  C   UNL     1      -6.492  12.369  20.074  0.00  0.00    +0.000 A 
ATOM     29  C   UNL     1      -7.111  11.162  20.425  0.00  0.00    +0.000 A 
ATOM     30 CL   UNL     1      -6.921   9.677  19.543  0.00  0.00    +0.000 Cl
ATOM     31  C   UNL     1      -7.864  11.078  21.599  0.00  0.00    +0.000 A 
ATOM     32  C   UNL     1      -7.917  12.140  22.495  0.00  0.00    +0.000 A 
ATOM     33  C   UNL     1      -7.206  13.300  22.214  0.00  0.00    +0.000 A 
ATOM     34  C   UNL     1      -6.505  13.419  21.007  0.00  0.00    +0.000 A 
ATOM     35 CL   UNL     1      -5.624  14.880  20.731  0.00  0.00    +0.000 Cl
ENDBRANCH  27  28
ENDBRANCH   5  27
TORSDOF 4
ENDMDL
MODEL 7
REMARK VINA RESULT:      -8.3      1.203      1.452
REMARK  Name = 
REMARK  5 active torsions:
REMARK  status: ('A' for Active; 'I' for Inactive)
REMARK    1  A    between atoms: C_1  and  N_2
REMARK    2  A    between atoms: C_5  and  O_6
REMARK    3  A    between atoms: O_6  and  C_7
REMARK    4  A    between atoms: N_20  and  C_21
REMARK    5  A    between atoms: C_24  and  N_25
REMARK                            x       y       z     vdW  Elec       q    Type
REMARK                         _______ _______ _______ _____ _____    ______ ____
ROOT
ATOM      1  C   UNL     1      -2.576   9.790  17.857  0.00  0.00    +0.000 C 
ATOM      2  N   UNL     1      -2.733  10.917  18.762  0.00  0.00    +0.000 N 
ATOM      3  C   UNL     1      -3.827  11.762  18.662  0.00  0.00    +0.000 A 
ATOM      4  O   UNL     1      -4.608  11.740  17.711  0.00  0.00    +0.000 OA
ATOM      5  C   UNL     1      -4.062  12.690  19.835  0.00  0.00    +0.000 A 
ATOM      6  C   UNL     1      -3.063  12.928  20.698  0.00  0.00    +0.000 A 
ATOM      7  C   UNL     1      -1.818  12.187  20.592  0.00  0.00    +0.000 A 
ATOM      8  C   UNL     1      -0.727  12.386  21.409  0.00  0.00    +0.000 A 
ATOM      9  N   UNL     1       0.415  11.669  21.324  0.00  0.00    +0.000 NA
ATOM     10  C   UNL     1       0.442  10.683  20.416  0.00  0.00    +0.000 A 
ATOM     11  N   UNL     1       1.625   9.964  20.273  0.00  0.00    +0.000 N 
ATOM     12  N   UNL     1      -0.586  10.397  19.607  0.00  0.00    +0.000 NA
ATOM     13  C   UNL     1      -1.686  11.160  19.682  0.00  0.00    +0.000 A 
ATOM     14  H   UNL     1       2.318  10.294  20.930  0.00  0.00    +0.000 HD
ENDROOT
BRANCH  11  15
ATOM     15  C   UNL     1       1.751   8.612  19.914  0.00  0.00    +0.000 A 
ATOM     16  C   UNL     1       2.141   8.278  18.615  0.00  0.00    +0.000 A 
ATOM     17  C   UNL     1       2.295   6.937  18.237  0.00  0.00    +0.000 A 
ATOM     18  C   UNL     1       2.108   5.892  19.154  0.00  0.00    +0.000 A 
ATOM     19  C   UNL     1       1.692   6.236  20.443  0.00  0.00    +0.000 A 
ATOM     20  C   UNL     1       1.513   7.571  20.816  0.00  0.00    +0.000 A 
BRANCH  18  21
ATOM     21  N   UNL     1       2.427   4.589  18.783  0.00  0.00    +0.000 N 
ATOM     22  C   UNL     1       3.411   4.399  17.712  0.00  0.00    +0.000 C 
ATOM     23  C   UNL     1       3.109   3.072  17.025  0.00  0.00    +0.000 C 
ATOM     24  C   UNL     1       3.110   1.918  18.025  0.00  0.00    +0.000 C 
ATOM     25  C   UNL     1       2.209   2.207  19.228  0.00  0.00    +0.000 C 
ATOM     26  C   UNL     1       2.487   3.580  19.846  0.00  0.00    +0.000 C 
ENDBRANCH  18  21
ENDBRANCH  11  15
BRANCH   5  27
ATOM     27  O   UNL     1      -5.292  13.301  20.074  0.00  0.00    +0.000 OA
BRANCH  27  28
ATOM     28  C   UNL     1      -6.055  12.993  21.183  0.00  0.00    +0.000 A 
ATOM     29  C   UNL     1      -5.925  13.582  22.448  0.00  0.00    +0.000 A 
ATOM     30 CL   UNL     1      -4.916  14.956  22.785  0.00  0.00    +0.000 Cl
ATOM     31  C   UNL     1      -6.704  13.125  23.514  0.00  0.00    +0.000 A 
ATOM     32  C   UNL     1      -7.697  12.172  23.321  0.00  0.00    +0.000 A 
ATOM     33  C   UNL     1      -7.916  11.670  22.044  0.00  0.00    +0.000 A 
ATOM     34  C   UNL     1      -7.094  12.070  20.983  0.00  0.00    +0.000 A 
ATOM     35 CL   UNL     1      -7.435  11.424  19.416  0.00  0.00    +0.000 Cl
ENDBRANCH  27  28
ENDBRANCH   5  27
TORSDOF 4
ENDMDL
MODEL 8
REMARK VINA RESULT:      -8.3      0.819      1.894
REMARK  Name = 
REMARK  5 active torsions:
REMARK  status: ('A' for Active; 'I' for Inactive)
REMARK    1  A    between atoms: C_1  and  N_2
REMARK    2  A    between atoms: C_5  and  O_6
REMARK    3  A    between atoms: O_6  and  C_7
REMARK    4  A    between atoms: N_20  and  C_21
REMARK    5  A    between atoms: C_24  and  N_25
REMARK                            x       y       z     vdW  Elec       q    Type
REMARK                         _______ _______ _______ _____ _____    ______ ____
ROOT
ATOM      1  C   UNL     1      -2.727   9.683  17.221  0.00  0.00    +0.000 C 
ATOM      2  N   UNL     1      -3.117  10.801  18.066  0.00  0.00    +0.000 N 
ATOM      3  C   UNL     1      -4.290  11.498  17.827  0.00  0.00    +0.000 A 
ATOM      4  O   UNL     1      -4.958  11.357  16.803  0.00  0.00    +0.000 OA
ATOM      5  C   UNL     1      -4.760  12.413  18.938  0.00  0.00    +0.000 A 
ATOM      6  C   UNL     1      -3.895  12.793  19.890  0.00  0.00    +0.000 A 
ATOM      7  C   UNL     1      -2.563  12.214  19.937  0.00  0.00    +0.000 A 
ATOM      8  C   UNL     1      -1.597  12.566  20.853  0.00  0.00    +0.000 A 
ATOM      9  N   UNL     1      -0.373  11.998  20.909  0.00  0.00    +0.000 NA
ATOM     10  C   UNL     1      -0.129  11.005  20.042  0.00  0.00    +0.000 A 
ATOM     11  N   UNL     1       1.142  10.438  20.045  0.00  0.00    +0.000 N 
ATOM     12  N   UNL     1      -1.022  10.574  19.144  0.00  0.00    +0.000 NA
ATOM     13  C   UNL     1      -2.210  11.192  19.080  0.00  0.00    +0.000 A 
ATOM     14  H   UNL     1       1.716  10.867  20.757  0.00  0.00    +0.000 HD
ENDROOT
BRANCH  11  15
ATOM     15  C   UNL     1       1.472   9.105  19.747  0.00  0.00    +0.000 A 
ATOM     16  C   UNL     1       1.860   8.766  18.450  0.00  0.00    +0.000 A 
ATOM     17  C   UNL     1       2.214   7.448  18.130  0.00  0.00    +0.000 A 
ATOM     18  C   UNL     1       2.234   6.439  19.104  0.00  0.00    +0.000 A 
ATOM     19  C   UNL     1       1.819   6.784  20.393  0.00  0.00    +0.000 A 
ATOM     20  C   UNL     1       1.440   8.092  20.709  0.00  0.00    +0.000 A 
BRANCH  18  21
ATOM     21  N   UNL     1       2.745   5.185  18.783  0.00  0.00    +0.000 N 
ATOM     22  C   UNL     1       3.340   4.387  19.860  0.00  0.00    +0.000 C 
ATOM     23  C   UNL     1       4.386   3.467  19.242  0.00  0.00    +0.000 C 
ATOM     24  C   UNL     1       3.779   2.597  18.143  0.00  0.00    +0.000 C 
ATOM     25  C   UNL     1       3.011   3.433  17.115  0.00  0.00    +0.000 C 
ATOM     26  C   UNL     1       2.024   4.401  17.775  0.00  0.00    +0.000 C 
ENDBRANCH  18  21
ENDBRANCH  11  15
BRANCH   5  27
ATOM     27  O   UNL     1      -6.074  12.869  19.029  0.00  0.00    +0.000 OA
BRANCH  27  28
ATOM     28  C   UNL     1      -6.677  13.112  20.248  0.00  0.00    +0.000 A 
ATOM     29  C   UNL     1      -7.265  12.143  21.072  0.00  0.00    +0.000 A 
ATOM     30 CL   UNL     1      -7.150  10.431  20.798  0.00  0.00    +0.000 Cl
ATOM     31  C   UNL     1      -7.916  12.527  22.247  0.00  0.00    +0.000 A 
ATOM     32  C   UNL     1      -7.893  13.847  22.681  0.00  0.00    +0.000 A 
ATOM     33  C   UNL     1      -7.209  14.796  21.932  0.00  0.00    +0.000 A 
ATOM     34  C   UNL     1      -6.612  14.433  20.718  0.00  0.00    +0.000 A 
ATOM     35 CL   UNL     1      -5.757  15.658  19.847  0.00  0.00    +0.000 Cl
ENDBRANCH  27  28
ENDBRANCH   5  27
TORSDOF 4
ENDMDL
MODEL 9
REMARK VINA RESULT:      -8.3      1.473      2.277
REMARK  Name = 
REMARK  5 active torsions:
REMARK  status: ('A' for Active; 'I' for Inactive)
REMARK    1  A    between atoms: C_1  and  N_2
REMARK    2  A    between atoms: C_5  and  O_6
REMARK    3  A    between atoms: O_6  and  C_7
REMARK    4  A    between atoms: N_20  and  C_21
REMARK    5  A    between atoms: C_24  and  N_25
REMARK                            x       y       z     vdW  Elec       q    Type
REMARK                         _______ _______ _______ _____ _____    ______ ____
ROOT
ATOM      1  C   UNL     1      -2.824   9.890  16.953  0.00  0.00    +0.000 C 
ATOM      2  N   UNL     1      -3.323  10.898  17.875  0.00  0.00    +0.000 N 
ATOM      3  C   UNL     1      -4.590  11.439  17.719  0.00  0.00    +0.000 A 
ATOM      4  O   UNL     1      -5.277  11.260  16.714  0.00  0.00    +0.000 OA
ATOM      5  C   UNL     1      -5.129  12.222  18.896  0.00  0.00    +0.000 A 
ATOM      6  C   UNL     1      -4.281  12.669  19.836  0.00  0.00    +0.000 A 
ATOM      7  C   UNL     1      -2.883  12.276  19.800  0.00  0.00    +0.000 A 
ATOM      8  C   UNL     1      -1.933  12.711  20.698  0.00  0.00    +0.000 A 
ATOM      9  N   UNL     1      -0.643  12.315  20.676  0.00  0.00    +0.000 NA
ATOM     10  C   UNL     1      -0.306  11.410  19.747  0.00  0.00    +0.000 A 
ATOM     11  N   UNL     1       1.030  11.024  19.670  0.00  0.00    +0.000 N 
ATOM     12  N   UNL     1      -1.171  10.907  18.859  0.00  0.00    +0.000 NA
ATOM     13  C   UNL     1      -2.434  11.358  18.875  0.00  0.00    +0.000 A 
ATOM     14  H   UNL     1       1.572  11.490  20.384  0.00  0.00    +0.000 HD
ENDROOT
BRANCH  11  15
ATOM     15  C   UNL     1       1.523   9.766  19.285  0.00  0.00    +0.000 A 
ATOM     16  C   UNL     1       1.514   8.713  20.202  0.00  0.00    +0.000 A 
ATOM     17  C   UNL     1       1.980   7.443  19.838  0.00  0.00    +0.000 A 
ATOM     18  C   UNL     1       2.427   7.173  18.537  0.00  0.00    +0.000 A 
ATOM     19  C   UNL     1       2.457   8.239  17.634  0.00  0.00    +0.000 A 
ATOM     20  C   UNL     1       2.017   9.514  18.002  0.00  0.00    +0.000 A 
BRANCH  18  21
ATOM     21  N   UNL     1       2.728   5.864  18.173  0.00  0.00    +0.000 N 
ATOM     22  C   UNL     1       4.133   5.524  17.922  0.00  0.00    +0.000 C 
ATOM     23  C   UNL     1       4.168   4.366  16.931  0.00  0.00    +0.000 C 
ATOM     24  C   UNL     1       3.367   3.173  17.446  0.00  0.00    +0.000 C 
ATOM     25  C   UNL     1       1.952   3.577  17.870  0.00  0.00    +0.000 C 
ATOM     26  C   UNL     1       1.950   4.792  18.803  0.00  0.00    +0.000 C 
ENDBRANCH  18  21
ENDBRANCH  11  15
BRANCH   5  27
ATOM     27  O   UNL     1      -6.487  12.487  19.062  0.00  0.00    +0.000 OA
BRANCH  27  28
ATOM     28  C   UNL     1      -6.943  13.727  19.467  0.00  0.00    +0.000 A 
ATOM     29  C   UNL     1      -7.185  14.111  20.793  0.00  0.00    +0.000 A 
ATOM     30 CL   UNL     1      -6.754  13.156  22.179  0.00  0.00    +0.000 Cl
ATOM     31  C   UNL     1      -7.724  15.371  21.068  0.00  0.00    +0.000 A 
ATOM     32  C   UNL     1      -7.916  16.305  20.057  0.00  0.00    +0.000 A 
ATOM     33  C   UNL     1      -7.564  15.977  18.754  0.00  0.00    +0.000 A 
ATOM     34  C   UNL     1      -7.089  14.692  18.458  0.00  0.00    +0.000 A 
ATOM     35 CL   UNL     1      -6.648  14.358  16.821  0.00  0.00    +0.000 Cl
ENDBRANCH  27  28
ENDBRANCH   5  27
TORSDOF 4
ENDMDL
