MODEL 1
REMARK VINA RESULT:      -9.4      0.000      0.000
REMARK  Name = 
REMARK  3 active torsions:
REMARK  status: ('A' for Active; 'I' for Inactive)
REMARK    1  A    between atoms: C_20  and  N_21
REMARK    2  A    between atoms: N_21  and  C_22
REMARK    3  A    between atoms: C_22  and  C_23
REMARK                            x       y       z     vdW  Elec       q    Type
REMARK                         _______ _______ _______ _____ _____    ______ ____
ROOT
ATOM      1  O   UNL     1      -0.727  13.213  18.425  0.00  0.00    +0.000 OA
ATOM      2  C   UNL     1      -0.728  12.650  19.515  0.00  0.00    +0.000 C 
ATOM      3  C   UNL     1      -1.423  13.277  20.659  0.00  0.00    +0.000 A 
ATOM      4  C   UNL     1      -2.078  14.502  20.505  0.00  0.00    +0.000 A 
ATOM      5  C   UNL     1      -2.722  15.066  21.601  0.00  0.00    +0.000 A 
ATOM      6  C   UNL     1      -2.685  14.380  22.802  0.00  0.00    +0.000 A 
ATOM      7  N   UNL     1      -2.058  13.195  22.974  0.00  0.00    +0.000 NA
ATOM      8  C   UNL     1      -1.428  12.646  21.899  0.00  0.00    +0.000 A 
ATOM      9  C   UNL     1      -0.745  11.351  22.077  0.00  0.00    +0.000 A 
ATOM     10  N   UNL     1      -0.782  10.779  23.307  0.00  0.00    +0.000 NA
ATOM     11  C   UNL     1      -0.163   9.597  23.467  0.00  0.00    +0.000 A 
ATOM     12  C   UNL     1       0.504   8.939  22.448  0.00  0.00    +0.000 A 
ATOM     13  C   UNL     1       0.559   9.512  21.159  0.00  0.00    +0.000 A 
ATOM     14  C   UNL     1      -0.087  10.751  20.994  0.00  0.00    +0.000 A 
ATOM     15  C   UNL     1      -0.049  11.342  19.738  0.00  0.00    +0.000 A 
ATOM     16  N   UNL     1       0.569  10.803  18.661  0.00  0.00    +0.000 NA
ATOM     17  C   UNL     1       1.178   9.622  18.805  0.00  0.00    +0.000 A 
ATOM     18  C   UNL     1       1.790   9.070  17.691  0.00  0.00    +0.000 A 
ATOM     19  C   UNL     1       2.439   7.835  17.745  0.00  0.00    +0.000 A 
ATOM     20  C   UNL     1       2.528   7.130  18.943  0.00  0.00    +0.000 A 
ATOM     21  C   UNL     1       1.890   7.672  20.062  0.00  0.00    +0.000 A 
ATOM     22  C   UNL     1       1.212   8.920  20.029  0.00  0.00    +0.000 A 
ENDROOT
BRANCH  20  23
ATOM     23  N   UNL     1       3.200   5.908  18.946  0.00  0.00    +0.000 N 
ATOM     24  H   UNL     1       3.702   5.770  19.823  0.00  0.00    +0.000 HD
BRANCH  23  25
ATOM     25  C   UNL     1       4.010   5.536  17.791  0.00  0.00    +0.000 C 
BRANCH  25  26
ATOM     26  C   UNL     1       5.448   5.919  18.043  0.00  0.00    +0.000 A 
ATOM     27  C   UNL     1       6.164   5.336  19.100  0.00  0.00    +0.000 A 
ATOM     28  C   UNL     1       7.483   5.715  19.357  0.00  0.00    +0.000 A 
ATOM     29  C   UNL     1       8.097   6.682  18.563  0.00  0.00    +0.000 A 
ATOM     30  C   UNL     1       7.398   7.262  17.507  0.00  0.00    +0.000 A 
ATOM     31  C   UNL     1       6.079   6.885  17.248  0.00  0.00    +0.000 A 
ENDBRANCH  25  26
ENDBRANCH  23  25
ENDBRANCH  20  23
TORSDOF 3
ENDMDL
MODEL 2
REMARK VINA RESULT:      -9.3      1.916      2.929
REMARK  Name = 
REMARK  3 active torsions:
REMARK  status: ('A' for Active; 'I' for Inactive)
REMARK    1  A    between atoms: C_20  and  N_21
REMARK    2  A    between atoms: N_21  and  C_22
REMARK    3  A    between atoms: C_22  and  C_23
REMARK                            x       y       z     vdW  Elec       q    Type
REMARK                         _______ _______ _______ _____ _____    ______ ____
ROOT
ATOM      1  O   UNL     1      -1.616  12.873  18.524  0.00  0.00    +0.000 OA
ATOM      2  C   UNL     1      -1.420  12.334  19.608  0.00  0.00    +0.000 C 
ATOM      3  C   UNL     1      -2.109  12.845  20.811  0.00  0.00    +0.000 A 
ATOM      4  C   UNL     1      -2.981  13.933  20.721  0.00  0.00    +0.000 A 
ATOM      5  C   UNL     1      -3.613  14.390  21.872  0.00  0.00    +0.000 A 
ATOM      6  C   UNL     1      -3.347  13.739  23.063  0.00  0.00    +0.000 A 
ATOM      7  N   UNL     1      -2.508  12.685  23.174  0.00  0.00    +0.000 NA
ATOM      8  C   UNL     1      -1.891  12.240  22.046  0.00  0.00    +0.000 A 
ATOM      9  C   UNL     1      -0.977  11.088  22.158  0.00  0.00    +0.000 A 
ATOM     10  N   UNL     1      -0.801  10.535  23.385  0.00  0.00    +0.000 NA
ATOM     11  C   UNL     1       0.029   9.483  23.485  0.00  0.00    +0.000 A 
ATOM     12  C   UNL     1       0.707   8.938  22.409  0.00  0.00    +0.000 A 
ATOM     13  C   UNL     1       0.544   9.494  21.121  0.00  0.00    +0.000 A 
ATOM     14  C   UNL     1      -0.323  10.598  21.018  0.00  0.00    +0.000 A 
ATOM     15  C   UNL     1      -0.503  11.168  19.765  0.00  0.00    +0.000 A 
ATOM     16  N   UNL     1       0.100  10.732  18.635  0.00  0.00    +0.000 NA
ATOM     17  C   UNL     1       0.918   9.678  18.720  0.00  0.00    +0.000 A 
ATOM     18  C   UNL     1       1.515   9.227  17.554  0.00  0.00    +0.000 A 
ATOM     19  C   UNL     1       2.374   8.127  17.546  0.00  0.00    +0.000 A 
ATOM     20  C   UNL     1       2.693   7.465  18.730  0.00  0.00    +0.000 A 
ATOM     21  C   UNL     1       2.074   7.902  19.903  0.00  0.00    +0.000 A 
ATOM     22  C   UNL     1       1.186   9.010  19.935  0.00  0.00    +0.000 A 
ENDROOT
BRANCH  20  23
ATOM     23  N   UNL     1       3.568   6.380  18.668  0.00  0.00    +0.000 N 
ATOM     24  H   UNL     1       4.480   6.667  18.313  0.00  0.00    +0.000 HD
BRANCH  23  25
ATOM     25  C   UNL     1       3.117   5.132  18.065  0.00  0.00    +0.000 C 
BRANCH  25  26
ATOM     26  C   UNL     1       2.443   4.283  19.115  0.00  0.00    +0.000 A 
ATOM     27  C   UNL     1       1.312   3.516  18.790  0.00  0.00    +0.000 A 
ATOM     28  C   UNL     1       0.665   2.758  19.768  0.00  0.00    +0.000 A 
ATOM     29  C   UNL     1       1.138   2.762  21.079  0.00  0.00    +0.000 A 
ATOM     30  C   UNL     1       2.263   3.514  21.410  0.00  0.00    +0.000 A 
ATOM     31  C   UNL     1       2.912   4.272  20.435  0.00  0.00    +0.000 A 
ENDBRANCH  25  26
ENDBRANCH  23  25
ENDBRANCH  20  23
TORSDOF 3
ENDMDL
MODEL 3
REMARK VINA RESULT:      -9.0      1.053      1.246
REMARK  Name = 
REMARK  3 active torsions:
REMARK  status: ('A' for Active; 'I' for Inactive)
REMARK    1  A    between atoms: C_20  and  N_21
REMARK    2  A    between atoms: N_21  and  C_22
REMARK    3  A    between atoms: C_22  and  C_23
REMARK                            x       y       z     vdW  Elec       q    Type
REMARK                         _______ _______ _______ _____ _____    ______ ____
ROOT
ATOM      1  O   UNL     1       0.222  13.404  18.318  0.00  0.00    +0.000 OA
ATOM      2  C   UNL     1       0.036  12.851  19.397  0.00  0.00    +0.000 C 
ATOM      3  C   UNL     1      -0.671  13.575  20.474  0.00  0.00    +0.000 A 
ATOM      4  C   UNL     1      -1.128  14.880  20.271  0.00  0.00    +0.000 A 
ATOM      5  C   UNL     1      -1.789  15.533  21.305  0.00  0.00    +0.000 A 
ATOM      6  C   UNL     1      -1.966  14.853  22.497  0.00  0.00    +0.000 A 
ATOM      7  N   UNL     1      -1.532  13.591  22.716  0.00  0.00    +0.000 NA
ATOM      8  C   UNL     1      -0.885  12.955  21.702  0.00  0.00    +0.000 A 
ATOM      9  C   UNL     1      -0.413  11.577  21.932  0.00  0.00    +0.000 A 
ATOM     10  N   UNL     1      -0.650  11.020  23.146  0.00  0.00    +0.000 NA
ATOM     11  C   UNL     1      -0.223   9.763  23.353  0.00  0.00    +0.000 A 
ATOM     12  C   UNL     1       0.440   9.013  22.397  0.00  0.00    +0.000 A 
ATOM     13  C   UNL     1       0.701   9.568  21.125  0.00  0.00    +0.000 A 
ATOM     14  C   UNL     1       0.255  10.885  20.911  0.00  0.00    +0.000 A 
ATOM     15  C   UNL     1       0.498  11.460  19.671  0.00  0.00    +0.000 A 
ATOM     16  N   UNL     1       1.135  10.835  18.653  0.00  0.00    +0.000 NA
ATOM     17  C   UNL     1       1.554   9.581  18.843  0.00  0.00    +0.000 A 
ATOM     18  C   UNL     1       2.187   8.944  17.787  0.00  0.00    +0.000 A 
ATOM     19  C   UNL     1       2.646   7.629  17.891  0.00  0.00    +0.000 A 
ATOM     20  C   UNL     1       2.518   6.923  19.085  0.00  0.00    +0.000 A 
ATOM     21  C   UNL     1       1.858   7.554  20.143  0.00  0.00    +0.000 A 
ATOM     22  C   UNL     1       1.370   8.885  20.057  0.00  0.00    +0.000 A 
ENDROOT
BRANCH  20  23
ATOM     23  N   UNL     1       3.007   5.618  19.140  0.00  0.00    +0.000 N 
ATOM     24  H   UNL     1       3.863   5.572  19.691  0.00  0.00    +0.000 HD
BRANCH  23  25
ATOM     25  C   UNL     1       3.110   4.842  17.910  0.00  0.00    +0.000 C 
BRANCH  25  26
ATOM     26  C   UNL     1       4.562   4.699  17.527  0.00  0.00    +0.000 A 
ATOM     27  C   UNL     1       5.574   5.025  18.444  0.00  0.00    +0.000 A 
ATOM     28  C   UNL     1       6.919   4.928  18.080  0.00  0.00    +0.000 A 
ATOM     29  C   UNL     1       7.265   4.509  16.796  0.00  0.00    +0.000 A 
ATOM     30  C   UNL     1       6.268   4.177  15.881  0.00  0.00    +0.000 A 
ATOM     31  C   UNL     1       4.924   4.272  16.242  0.00  0.00    +0.000 A 
ENDBRANCH  25  26
ENDBRANCH  23  25
ENDBRANCH  20  23
TORSDOF 3
ENDMDL
MODEL 4
REMARK VINA RESULT:      -9.0      1.869      3.428
REMARK  Name = 
REMARK  3 active torsions:
REMARK  status: ('A' for Active; 'I' for Inactive)
REMARK    1  A    between atoms: C_20  and  N_21
REMARK    2  A    between atoms: N_21  and  C_22
REMARK    3  A    between atoms: C_22  and  C_23
REMARK                            x       y       z     vdW  Elec       q    Type
REMARK                         _______ _______ _______ _____ _____    ______ ____
ROOT
ATOM      1  O   UNL     1      -0.469   8.557  23.081  0.00  0.00    +0.000 OA
ATOM      2  C   UNL     1      -0.074   9.178  22.099  0.00  0.00    +0.000 C 
ATOM      3  C   UNL     1      -0.406  10.612  21.963  0.00  0.00    +0.000 A 
ATOM      4  C   UNL     1      -1.162  11.262  22.942  0.00  0.00    +0.000 A 
ATOM      5  C   UNL     1      -1.458  12.611  22.784  0.00  0.00    +0.000 A 
ATOM      6  C   UNL     1      -0.983  13.253  21.653  0.00  0.00    +0.000 A 
ATOM      7  N   UNL     1      -0.251  12.645  20.693  0.00  0.00    +0.000 NA
ATOM      8  C   UNL     1       0.036  11.324  20.852  0.00  0.00    +0.000 A 
ATOM      9  C   UNL     1       0.839  10.655  19.811  0.00  0.00    +0.000 A 
ATOM     10  N   UNL     1       1.246  11.396  18.750  0.00  0.00    +0.000 NA
ATOM     11  C   UNL     1       1.980  10.786  17.804  0.00  0.00    +0.000 A 
ATOM     12  C   UNL     1       2.341   9.451  17.858  0.00  0.00    +0.000 A 
ATOM     13  C   UNL     1       1.930   8.656  18.950  0.00  0.00    +0.000 A 
ATOM     14  C   UNL     1       1.159   9.295  19.938  0.00  0.00    +0.000 A 
ATOM     15  C   UNL     1       0.738   8.540  21.024  0.00  0.00    +0.000 A 
ATOM     16  N   UNL     1       1.022   7.228  21.196  0.00  0.00    +0.000 NA
ATOM     17  C   UNL     1       1.761   6.613  20.268  0.00  0.00    +0.000 A 
ATOM     18  C   UNL     1       2.063   5.275  20.463  0.00  0.00    +0.000 A 
ATOM     19  C   UNL     1       2.840   4.556  19.552  0.00  0.00    +0.000 A 
ATOM     20  C   UNL     1       3.307   5.157  18.386  0.00  0.00    +0.000 A 
ATOM     21  C   UNL     1       3.026   6.513  18.199  0.00  0.00    +0.000 A 
ATOM     22  C   UNL     1       2.250   7.268  19.117  0.00  0.00    +0.000 A 
ENDROOT
BRANCH  20  23
ATOM     23  N   UNL     1       4.067   4.390  17.503  0.00  0.00    +0.000 N 
ATOM     24  H   UNL     1       4.542   3.632  17.993  0.00  0.00    +0.000 HD
BRANCH  23  25
ATOM     25  C   UNL     1       4.946   5.058  16.551  0.00  0.00    +0.000 C 
BRANCH  25  26
ATOM     26  C   UNL     1       6.061   5.749  17.297  0.00  0.00    +0.000 A 
ATOM     27  C   UNL     1       6.484   7.032  16.915  0.00  0.00    +0.000 A 
ATOM     28  C   UNL     1       7.539   7.659  17.581  0.00  0.00    +0.000 A 
ATOM     29  C   UNL     1       8.184   7.008  18.632  0.00  0.00    +0.000 A 
ATOM     30  C   UNL     1       7.768   5.738  19.024  0.00  0.00    +0.000 A 
ATOM     31  C   UNL     1       6.713   5.110  18.360  0.00  0.00    +0.000 A 
ENDBRANCH  25  26
ENDBRANCH  23  25
ENDBRANCH  20  23
TORSDOF 3
ENDMDL
MODEL 5
REMARK VINA RESULT:      -9.0      1.168      1.467
REMARK  Name = 
REMARK  3 active torsions:
REMARK  status: ('A' for Active; 'I' for Inactive)
REMARK    1  A    between atoms: C_20  and  N_21
REMARK    2  A    between atoms: N_21  and  C_22
REMARK    3  A    between atoms: C_22  and  C_23
REMARK                            x       y       z     vdW  Elec       q    Type
REMARK                         _______ _______ _______ _____ _____    ______ ____
ROOT
ATOM      1  O   UNL     1       0.625  13.358  18.250  0.00  0.00    +0.000 OA
ATOM      2  C   UNL     1       0.375  12.814  19.321  0.00  0.00    +0.000 C 
ATOM      3  C   UNL     1      -0.312  13.579  20.384  0.00  0.00    +0.000 A 
ATOM      4  C   UNL     1      -0.678  14.912  20.175  0.00  0.00    +0.000 A 
ATOM      5  C   UNL     1      -1.322  15.603  21.195  0.00  0.00    +0.000 A 
ATOM      6  C   UNL     1      -1.573  14.932  22.379  0.00  0.00    +0.000 A 
ATOM      7  N   UNL     1      -1.228  13.645  22.603  0.00  0.00    +0.000 NA
ATOM      8  C   UNL     1      -0.598  12.971  21.603  0.00  0.00    +0.000 A 
ATOM      9  C   UNL     1      -0.222  11.564  21.837  0.00  0.00    +0.000 A 
ATOM     10  N   UNL     1      -0.526  11.020  23.042  0.00  0.00    +0.000 NA
ATOM     11  C   UNL     1      -0.187   9.737  23.254  0.00  0.00    +0.000 A 
ATOM     12  C   UNL     1       0.451   8.948  22.311  0.00  0.00    +0.000 A 
ATOM     13  C   UNL     1       0.780   9.490  21.050  0.00  0.00    +0.000 A 
ATOM     14  C   UNL     1       0.426  10.834  20.831  0.00  0.00    +0.000 A 
ATOM     15  C   UNL     1       0.738  11.396  19.600  0.00  0.00    +0.000 A 
ATOM     16  N   UNL     1       1.359  10.735  18.596  0.00  0.00    +0.000 NA
ATOM     17  C   UNL     1       1.691   9.455  18.790  0.00  0.00    +0.000 A 
ATOM     18  C   UNL     1       2.308   8.781  17.748  0.00  0.00    +0.000 A 
ATOM     19  C   UNL     1       2.679   7.439  17.857  0.00  0.00    +0.000 A 
ATOM     20  C   UNL     1       2.473   6.739  19.043  0.00  0.00    +0.000 A 
ATOM     21  C   UNL     1       1.829   7.408  20.087  0.00  0.00    +0.000 A 
ATOM     22  C   UNL     1       1.430   8.768  19.995  0.00  0.00    +0.000 A 
ENDROOT
BRANCH  20  23
ATOM     23  N   UNL     1       2.876   5.405  19.104  0.00  0.00    +0.000 N 
ATOM     24  H   UNL     1       2.139   4.820  19.498  0.00  0.00    +0.000 HD
BRANCH  23  25
ATOM     25  C   UNL     1       4.185   5.078  19.657  0.00  0.00    +0.000 C 
BRANCH  25  26
ATOM     26  C   UNL     1       5.170   4.883  18.531  0.00  0.00    +0.000 A 
ATOM     27  C   UNL     1       4.744   4.375  17.293  0.00  0.00    +0.000 A 
ATOM     28  C   UNL     1       5.659   4.159  16.261  0.00  0.00    +0.000 A 
ATOM     29  C   UNL     1       7.009   4.446  16.457  0.00  0.00    +0.000 A 
ATOM     30  C   UNL     1       7.442   4.957  17.679  0.00  0.00    +0.000 A 
ATOM     31  C   UNL     1       6.528   5.174  18.711  0.00  0.00    +0.000 A 
ENDBRANCH  25  26
ENDBRANCH  23  25
ENDBRANCH  20  23
TORSDOF 3
ENDMDL
MODEL 6
REMARK VINA RESULT:      -8.9      1.814      3.132
REMARK  Name = 
REMARK  3 active torsions:
REMARK  status: ('A' for Active; 'I' for Inactive)
REMARK    1  A    between atoms: C_20  and  N_21
REMARK    2  A    between atoms: N_21  and  C_22
REMARK    3  A    between atoms: C_22  and  C_23
REMARK                            x       y       z     vdW  Elec       q    Type
REMARK                         _______ _______ _______ _____ _____    ______ ____
ROOT
ATOM      1  O   UNL     1      -0.513   8.936  23.192  0.00  0.00    +0.000 OA
ATOM      2  C   UNL     1      -0.137   9.568  22.211  0.00  0.00    +0.000 C 
ATOM      3  C   UNL     1      -0.444  11.011  22.112  0.00  0.00    +0.000 A 
ATOM      4  C   UNL     1      -1.157  11.656  23.126  0.00  0.00    +0.000 A 
ATOM      5  C   UNL     1      -1.430  13.013  23.002  0.00  0.00    +0.000 A 
ATOM      6  C   UNL     1      -0.978  13.667  21.870  0.00  0.00    +0.000 A 
ATOM      7  N   UNL     1      -0.287  13.065  20.876  0.00  0.00    +0.000 NA
ATOM      8  C   UNL     1      -0.021  11.736  21.001  0.00  0.00    +0.000 A 
ATOM      9  C   UNL     1       0.736  11.071  19.924  0.00  0.00    +0.000 A 
ATOM     10  N   UNL     1       1.125  11.825  18.865  0.00  0.00    +0.000 NA
ATOM     11  C   UNL     1       1.818  11.220  17.886  0.00  0.00    +0.000 A 
ATOM     12  C   UNL     1       2.154   9.877  17.904  0.00  0.00    +0.000 A 
ATOM     13  C   UNL     1       1.761   9.069  18.992  0.00  0.00    +0.000 A 
ATOM     14  C   UNL     1       1.033   9.704  20.016  0.00  0.00    +0.000 A 
ATOM     15  C   UNL     1       0.630   8.935  21.100  0.00  0.00    +0.000 A 
ATOM     16  N   UNL     1       0.893   7.615  21.237  0.00  0.00    +0.000 NA
ATOM     17  C   UNL     1       1.592   7.005  20.276  0.00  0.00    +0.000 A 
ATOM     18  C   UNL     1       1.873   5.657  20.437  0.00  0.00    +0.000 A 
ATOM     19  C   UNL     1       2.607   4.942  19.489  0.00  0.00    +0.000 A 
ATOM     20  C   UNL     1       3.051   5.556  18.321  0.00  0.00    +0.000 A 
ATOM     21  C   UNL     1       2.791   6.920  18.167  0.00  0.00    +0.000 A 
ATOM     22  C   UNL     1       2.058   7.673  19.123  0.00  0.00    +0.000 A 
ENDROOT
BRANCH  20  23
ATOM     23  N   UNL     1       3.768   4.792  17.400  0.00  0.00    +0.000 N 
ATOM     24  H   UNL     1       3.156   4.136  16.915  0.00  0.00    +0.000 HD
BRANCH  23  25
ATOM     25  C   UNL     1       5.019   4.166  17.812  0.00  0.00    +0.000 C 
BRANCH  25  26
ATOM     26  C   UNL     1       6.084   5.224  17.960  0.00  0.00    +0.000 A 
ATOM     27  C   UNL     1       6.948   5.213  19.067  0.00  0.00    +0.000 A 
ATOM     28  C   UNL     1       7.911   6.212  19.226  0.00  0.00    +0.000 A 
ATOM     29  C   UNL     1       8.018   7.233  18.283  0.00  0.00    +0.000 A 
ATOM     30  C   UNL     1       7.170   7.249  17.177  0.00  0.00    +0.000 A 
ATOM     31  C   UNL     1       6.207   6.252  17.016  0.00  0.00    +0.000 A 
ENDBRANCH  25  26
ENDBRANCH  23  25
ENDBRANCH  20  23
TORSDOF 3
ENDMDL
MODEL 7
REMARK VINA RESULT:      -8.6      2.287      3.623
REMARK  Name = 
REMARK  3 active torsions:
REMARK  status: ('A' for Active; 'I' for Inactive)
REMARK    1  A    between atoms: C_20  and  N_21
REMARK    2  A    between atoms: N_21  and  C_22
REMARK    3  A    between atoms: C_22  and  C_23
REMARK                            x       y       z     vdW  Elec       q    Type
REMARK                         _______ _______ _______ _____ _____    ______ ____
ROOT
ATOM      1  O   UNL     1      -0.496   9.146  23.245  0.00  0.00    +0.000 OA
ATOM      2  C   UNL     1      -0.081   9.655  22.208  0.00  0.00    +0.000 C 
ATOM      3  C   UNL     1      -0.304  11.096  21.965  0.00  0.00    +0.000 A 
ATOM      4  C   UNL     1      -0.980  11.878  22.905  0.00  0.00    +0.000 A 
ATOM      5  C   UNL     1      -1.174  13.230  22.645  0.00  0.00    +0.000 A 
ATOM      6  C   UNL     1      -0.683  13.742  21.457  0.00  0.00    +0.000 A 
ATOM      7  N   UNL     1      -0.027  13.004  20.534  0.00  0.00    +0.000 NA
ATOM      8  C   UNL     1       0.161  11.681  20.791  0.00  0.00    +0.000 A 
ATOM      9  C   UNL     1       0.880  10.871  19.790  0.00  0.00    +0.000 A 
ATOM     10  N   UNL     1       1.314  11.492  18.665  0.00  0.00    +0.000 NA
ATOM     11  C   UNL     1       1.973  10.754  17.755  0.00  0.00    +0.000 A 
ATOM     12  C   UNL     1       2.230   9.403  17.909  0.00  0.00    +0.000 A 
ATOM     13  C   UNL     1       1.789   8.731  19.069  0.00  0.00    +0.000 A 
ATOM     14  C   UNL     1       1.097   9.505  20.019  0.00  0.00    +0.000 A 
ATOM     15  C   UNL     1       0.649   8.872  21.171  0.00  0.00    +0.000 A 
ATOM     16  N   UNL     1       0.835   7.559  21.441  0.00  0.00    +0.000 NA
ATOM     17  C   UNL     1       1.498   6.817  20.549  0.00  0.00    +0.000 A 
ATOM     18  C   UNL     1       1.700   5.478  20.845  0.00  0.00    +0.000 A 
ATOM     19  C   UNL     1       2.394   4.631  19.978  0.00  0.00    +0.000 A 
ATOM     20  C   UNL     1       2.874   5.100  18.758  0.00  0.00    +0.000 A 
ATOM     21  C   UNL     1       2.694   6.454  18.468  0.00  0.00    +0.000 A 
ATOM     22  C   UNL     1       2.004   7.339  19.339  0.00  0.00    +0.000 A 
ENDROOT
BRANCH  20  23
ATOM     23  N   UNL     1       3.547   4.208  17.923  0.00  0.00    +0.000 N 
ATOM     24  H   UNL     1       3.058   3.314  17.874  0.00  0.00    +0.000 HD
BRANCH  23  25
ATOM     25  C   UNL     1       4.986   4.033  18.076  0.00  0.00    +0.000 C 
BRANCH  25  26
ATOM     26  C   UNL     1       5.665   4.277  16.751  0.00  0.00    +0.000 A 
ATOM     27  C   UNL     1       6.953   4.834  16.704  0.00  0.00    +0.000 A 
ATOM     28  C   UNL     1       7.569   5.095  15.478  0.00  0.00    +0.000 A 
ATOM     29  C   UNL     1       6.903   4.805  14.288  0.00  0.00    +0.000 A 
ATOM     30  C   UNL     1       5.627   4.247  14.323  0.00  0.00    +0.000 A 
ATOM     31  C   UNL     1       5.010   3.985  15.548  0.00  0.00    +0.000 A 
ENDBRANCH  25  26
ENDBRANCH  23  25
ENDBRANCH  20  23
TORSDOF 3
ENDMDL
MODEL 8
REMARK VINA RESULT:      -8.5      1.689      2.767
REMARK  Name = 
REMARK  3 active torsions:
REMARK  status: ('A' for Active; 'I' for Inactive)
REMARK    1  A    between atoms: C_20  and  N_21
REMARK    2  A    between atoms: N_21  and  C_22
REMARK    3  A    between atoms: C_22  and  C_23
REMARK                            x       y       z     vdW  Elec       q    Type
REMARK                         _______ _______ _______ _____ _____    ______ ____
ROOT
ATOM      1  O   UNL     1      -0.817  10.162  23.520  0.00  0.00    +0.000 OA
ATOM      2  C   UNL     1      -0.448  10.775  22.523  0.00  0.00    +0.000 C 
ATOM      3  C   UNL     1      -0.731  12.221  22.411  0.00  0.00    +0.000 A 
ATOM      4  C   UNL     1      -1.413  12.891  23.430  0.00  0.00    +0.000 A 
ATOM      5  C   UNL     1      -1.665  14.252  23.294  0.00  0.00    +0.000 A 
ATOM      6  C   UNL     1      -1.222  14.884  22.145  0.00  0.00    +0.000 A 
ATOM      7  N   UNL     1      -0.561  14.256  21.147  0.00  0.00    +0.000 NA
ATOM      8  C   UNL     1      -0.317  12.925  21.284  0.00  0.00    +0.000 A 
ATOM      9  C   UNL     1       0.408  12.233  20.201  0.00  0.00    +0.000 A 
ATOM     10  N   UNL     1       0.791  12.967  19.126  0.00  0.00    +0.000 NA
ATOM     11  C   UNL     1       1.455  12.336  18.142  0.00  0.00    +0.000 A 
ATOM     12  C   UNL     1       1.767  10.989  18.171  0.00  0.00    +0.000 A 
ATOM     13  C   UNL     1       1.380  10.202  19.277  0.00  0.00    +0.000 A 
ATOM     14  C   UNL     1       0.683  10.862  20.305  0.00  0.00    +0.000 A 
ATOM     15  C   UNL     1       0.286  10.115  21.406  0.00  0.00    +0.000 A 
ATOM     16  N   UNL     1       0.529   8.791  21.556  0.00  0.00    +0.000 NA
ATOM     17  C   UNL     1       1.198   8.156  20.590  0.00  0.00    +0.000 A 
ATOM     18  C   UNL     1       1.458   6.806  20.763  0.00  0.00    +0.000 A 
ATOM     19  C   UNL     1       2.162   6.066  19.811  0.00  0.00    +0.000 A 
ATOM     20  C   UNL     1       2.595   6.658  18.627  0.00  0.00    +0.000 A 
ATOM     21  C   UNL     1       2.356   8.024  18.461  0.00  0.00    +0.000 A 
ATOM     22  C   UNL     1       1.655   8.802  19.420  0.00  0.00    +0.000 A 
ENDROOT
BRANCH  20  23
ATOM     23  N   UNL     1       3.281   5.869  17.703  0.00  0.00    +0.000 N 
ATOM     24  H   UNL     1       2.636   5.439  17.041  0.00  0.00    +0.000 HD
BRANCH  23  25
ATOM     25  C   UNL     1       4.285   4.924  18.177  0.00  0.00    +0.000 C 
BRANCH  25  26
ATOM     26  C   UNL     1       5.626   5.612  18.249  0.00  0.00    +0.000 A 
ATOM     27  C   UNL     1       6.543   5.277  19.259  0.00  0.00    +0.000 A 
ATOM     28  C   UNL     1       7.770   5.938  19.350  0.00  0.00    +0.000 A 
ATOM     29  C   UNL     1       8.091   6.941  18.436  0.00  0.00    +0.000 A 
ATOM     30  C   UNL     1       7.191   7.276  17.427  0.00  0.00    +0.000 A 
ATOM     31  C   UNL     1       5.964   6.617  17.334  0.00  0.00    +0.000 A 
ENDBRANCH  25  26
ENDBRANCH  23  25
ENDBRANCH  20  23
TORSDOF 3
ENDMDL
MODEL 9
REMARK VINA RESULT:      -8.4      1.952      2.756
REMARK  Name = 
REMARK  3 active torsions:
REMARK  status: ('A' for Active; 'I' for Inactive)
REMARK    1  A    between atoms: C_20  and  N_21
REMARK    2  A    between atoms: N_21  and  C_22
REMARK    3  A    between atoms: C_22  and  C_23
REMARK                            x       y       z     vdW  Elec       q    Type
REMARK                         _______ _______ _______ _____ _____    ______ ____
ROOT
ATOM      1  O   UNL     1      -0.328  14.245  18.357  0.00  0.00    +0.000 OA
ATOM      2  C   UNL     1      -0.567  13.677  19.418  0.00  0.00    +0.000 C 
ATOM      3  C   UNL     1      -1.368  14.369  20.450  0.00  0.00    +0.000 A 
ATOM      4  C   UNL     1      -1.853  15.660  20.225  0.00  0.00    +0.000 A 
ATOM      5  C   UNL     1      -2.603  16.283  21.216  0.00  0.00    +0.000 A 
ATOM      6  C   UNL     1      -2.836  15.588  22.389  0.00  0.00    +0.000 A 
ATOM      7  N   UNL     1      -2.377  14.339  22.629  0.00  0.00    +0.000 NA
ATOM      8  C   UNL     1      -1.643  13.732  21.657  0.00  0.00    +0.000 A 
ATOM      9  C   UNL     1      -1.143  12.368  21.909  0.00  0.00    +0.000 A 
ATOM     10  N   UNL     1      -1.442  11.794  23.101  0.00  0.00    +0.000 NA
ATOM     11  C   UNL     1      -0.988  10.549  23.328  0.00  0.00    +0.000 A 
ATOM     12  C   UNL     1      -0.239   9.829  22.414  0.00  0.00    +0.000 A 
ATOM     13  C   UNL     1       0.087  10.403  21.167  0.00  0.00    +0.000 A 
ATOM     14  C   UNL     1      -0.386  11.707  20.931  0.00  0.00    +0.000 A 
ATOM     15  C   UNL     1      -0.079  12.300  19.713  0.00  0.00    +0.000 A 
ATOM     16  N   UNL     1       0.644  11.704  18.737  0.00  0.00    +0.000 NA
ATOM     17  C   UNL     1       1.090  10.462  18.946  0.00  0.00    +0.000 A 
ATOM     18  C   UNL     1       1.812   9.855  17.932  0.00  0.00    +0.000 A 
ATOM     19  C   UNL     1       2.307   8.555  18.058  0.00  0.00    +0.000 A 
ATOM     20  C   UNL     1       2.122   7.835  19.236  0.00  0.00    +0.000 A 
ATOM     21  C   UNL     1       1.373   8.435  20.251  0.00  0.00    +0.000 A 
ATOM     22  C   UNL     1       0.848   9.751  20.141  0.00  0.00    +0.000 A 
ENDROOT
BRANCH  20  23
ATOM     23  N   UNL     1       2.649   6.546  19.316  0.00  0.00    +0.000 N 
ATOM     24  H   UNL     1       3.318   6.472  20.081  0.00  0.00    +0.000 HD
BRANCH  23  25
ATOM     25  C   UNL     1       3.135   5.897  18.104  0.00  0.00    +0.000 C 
BRANCH  25  26
ATOM     26  C   UNL     1       2.789   4.429  18.147  0.00  0.00    +0.000 A 
ATOM     27  C   UNL     1       1.579   4.001  18.716  0.00  0.00    +0.000 A 
ATOM     28  C   UNL     1       1.272   2.640  18.790  0.00  0.00    +0.000 A 
ATOM     29  C   UNL     1       2.173   1.696  18.301  0.00  0.00    +0.000 A 
ATOM     30  C   UNL     1       3.374   2.110  17.730  0.00  0.00    +0.000 A 
ATOM     31  C   UNL     1       3.682   3.470  17.654  0.00  0.00    +0.000 A 
ENDBRANCH  25  26
ENDBRANCH  23  25
ENDBRANCH  20  23
TORSDOF 3
ENDMDL
