MODEL 1
REMARK VINA RESULT:      -7.3      0.000      0.000
REMARK  Name = 
REMARK  9 active torsions:
REMARK  status: ('A' for Active; 'I' for Inactive)
REMARK    1  A    between atoms: N_1  and  C_2
REMARK    2  A    between atoms: C_7  and  N_8
REMARK    3  A    between atoms: C_9  and  C_11
REMARK    4  A    between atoms: C_11  and  C_12
REMARK    5  A    between atoms: C_12  and  C_13
REMARK    6  A    between atoms: C_13  and  C_14
REMARK    7  A    between atoms: C_14  and  C_15
REMARK    8  A    between atoms: C_15  and  N_16
REMARK    9  A    between atoms: C_17  and  C_19
REMARK                            x       y       z     vdW  Elec       q    Type
REMARK                         _______ _______ _______ _____ _____    ______ ____
ROOT
ATOM      1  C   UNL     1       2.163   3.479  21.887  0.00  0.00    +0.000 C 
ENDROOT
BRANCH   1   3
ATOM      2  N   UNL     1       2.625   5.566  20.715  0.00  0.00    +0.000 N 
ATOM      3  C   UNL     1       1.769   4.480  20.829  0.00  0.00    +0.000 C 
ATOM      4  O   UNL     1       0.796   4.230  20.120  0.00  0.00    +0.000 OA
ATOM      5  H   UNL     1       3.481   5.551  21.250  0.00  0.00    +0.000 HD
BRANCH   2  11
ATOM      6  C   UNL     1       1.753   7.815  20.180  0.00  0.00    +0.000 A 
ATOM      7  C   UNL     1       1.666   8.875  19.254  0.00  0.00    +0.000 A 
ATOM      8  C   UNL     1       2.192   8.767  17.967  0.00  0.00    +0.000 A 
ATOM      9  C   UNL     1       2.849   7.606  17.594  0.00  0.00    +0.000 A 
ATOM     10  C   UNL     1       2.974   6.560  18.503  0.00  0.00    +0.000 A 
ATOM     11  C   UNL     1       2.460   6.647  19.805  0.00  0.00    +0.000 A 
BRANCH   6  12
ATOM     12  N   UNL     1       1.354   8.089  21.504  0.00  0.00    +0.000 N 
ATOM     13  H   UNL     1       1.050   9.051  21.637  0.00  0.00    +0.000 HD
ATOM     14  H   UNL     1       0.719   7.430  21.927  0.00  0.00    +0.000 HD
ENDBRANCH   6  12
ENDBRANCH   2  11
ENDBRANCH   1   3
BRANCH   1  15
ATOM     15  C   UNL     1       2.639   2.205  21.195  0.00  0.00    +0.000 C 
BRANCH  15  16
ATOM     16  C   UNL     1       3.567   2.462  20.009  0.00  0.00    +0.000 C 
BRANCH  16  17
ATOM     17  C   UNL     1       3.090   1.835  18.699  0.00  0.00    +0.000 C 
BRANCH  17  18
ATOM     18  C   UNL     1       3.896   2.329  17.501  0.00  0.00    +0.000 C 
BRANCH  18  19
ATOM     19  N   UNL     1       4.831   3.353  17.888  0.00  0.00    +0.000 N 
ATOM     20  C   UNL     1       5.305   4.266  16.971  0.00  0.00    +0.000 C 
ATOM     21  O   UNL     1       4.955   4.290  15.799  0.00  0.00    +0.000 OA
ATOM     22  H   UNL     1       5.119   3.455  18.857  0.00  0.00    +0.000 HD
BRANCH  20  23
ATOM     23  C   UNL     1       6.284   5.256  17.483  0.00  0.00    +0.000 A 
ATOM     24  C   UNL     1       6.539   6.396  16.732  0.00  0.00    +0.000 A 
ATOM     25  N   UNL     1       7.427   7.343  17.132  0.00  0.00    +0.000 NA
ATOM     26  C   UNL     1       8.038   7.089  18.312  0.00  0.00    +0.000 A 
ATOM     27  C   UNL     1       7.787   5.945  19.057  0.00  0.00    +0.000 A 
ATOM     28  N   UNL     1       6.901   4.997  18.670  0.00  0.00    +0.000 NA
ENDBRANCH  20  23
ENDBRANCH  18  19
ENDBRANCH  17  18
ENDBRANCH  16  17
ENDBRANCH  15  16
ENDBRANCH   1  15
TORSDOF 9
ENDMDL
MODEL 2
REMARK VINA RESULT:      -7.2      1.952      5.566
REMARK  Name = 
REMARK  9 active torsions:
REMARK  status: ('A' for Active; 'I' for Inactive)
REMARK    1  A    between atoms: N_1  and  C_2
REMARK    2  A    between atoms: C_7  and  N_8
REMARK    3  A    between atoms: C_9  and  C_11
REMARK    4  A    between atoms: C_11  and  C_12
REMARK    5  A    between atoms: C_12  and  C_13
REMARK    6  A    between atoms: C_13  and  C_14
REMARK    7  A    between atoms: C_14  and  C_15
REMARK    8  A    between atoms: C_15  and  N_16
REMARK    9  A    between atoms: C_17  and  C_19
REMARK                            x       y       z     vdW  Elec       q    Type
REMARK                         _______ _______ _______ _____ _____    ______ ____
ROOT
ATOM      1  C   UNL     1       1.556   2.920  18.129  0.00  0.00    +0.000 C 
ENDROOT
BRANCH   1   3
ATOM      2  N   UNL     1       3.479   4.112  17.219  0.00  0.00    +0.000 N 
ATOM      3  C   UNL     1       2.990   2.890  17.658  0.00  0.00    +0.000 C 
ATOM      4  O   UNL     1       3.620   1.839  17.766  0.00  0.00    +0.000 OA
ATOM      5  H   UNL     1       2.898   4.927  17.348  0.00  0.00    +0.000 HD
BRANCH   2  11
ATOM      6  C   UNL     1       5.907   4.393  17.582  0.00  0.00    +0.000 A 
ATOM      7  C   UNL     1       7.188   4.567  17.019  0.00  0.00    +0.000 A 
ATOM      8  C   UNL     1       7.365   4.757  15.649  0.00  0.00    +0.000 A 
ATOM      9  C   UNL     1       6.264   4.741  14.811  0.00  0.00    +0.000 A 
ATOM     10  C   UNL     1       4.994   4.539  15.341  0.00  0.00    +0.000 A 
ATOM     11  C   UNL     1       4.790   4.337  16.714  0.00  0.00    +0.000 A 
BRANCH   6  12
ATOM     12  N   UNL     1       5.851   4.028  18.943  0.00  0.00    +0.000 N 
ATOM     13  H   UNL     1       5.082   4.469  19.442  0.00  0.00    +0.000 HD
ATOM     14  H   UNL     1       5.919   3.043  19.147  0.00  0.00    +0.000 HD
ENDBRANCH   6  12
ENDBRANCH   2  11
ENDBRANCH   1   3
BRANCH   1  15
ATOM     15  C   UNL     1       1.428   2.011  19.347  0.00  0.00    +0.000 C 
BRANCH  15  16
ATOM     16  C   UNL     1       1.866   2.671  20.653  0.00  0.00    +0.000 C 
BRANCH  16  17
ATOM     17  C   UNL     1       1.402   4.121  20.804  0.00  0.00    +0.000 C 
BRANCH  17  18
ATOM     18  C   UNL     1       2.557   5.109  20.667  0.00  0.00    +0.000 C 
BRANCH  18  19
ATOM     19  N   UNL     1       2.074   6.459  20.529  0.00  0.00    +0.000 N 
ATOM     20  C   UNL     1       2.265   7.165  19.361  0.00  0.00    +0.000 C 
ATOM     21  O   UNL     1       2.819   6.702  18.374  0.00  0.00    +0.000 OA
ATOM     22  H   UNL     1       1.537   6.898  21.271  0.00  0.00    +0.000 HD
BRANCH  20  23
ATOM     23  C   UNL     1       1.747   8.555  19.348  0.00  0.00    +0.000 A 
ATOM     24  C   UNL     1       1.034   9.014  20.447  0.00  0.00    +0.000 A 
ATOM     25  N   UNL     1       0.524  10.272  20.505  0.00  0.00    +0.000 NA
ATOM     26  C   UNL     1       0.764  11.035  19.414  0.00  0.00    +0.000 A 
ATOM     27  C   UNL     1       1.470  10.571  18.313  0.00  0.00    +0.000 A 
ATOM     28  N   UNL     1       1.987   9.321  18.247  0.00  0.00    +0.000 NA
ENDBRANCH  20  23
ENDBRANCH  18  19
ENDBRANCH  17  18
ENDBRANCH  16  17
ENDBRANCH  15  16
ENDBRANCH   1  15
TORSDOF 9
ENDMDL
MODEL 3
REMARK VINA RESULT:      -7.0      2.741      6.718
REMARK  Name = 
REMARK  9 active torsions:
REMARK  status: ('A' for Active; 'I' for Inactive)
REMARK    1  A    between atoms: N_1  and  C_2
REMARK    2  A    between atoms: C_7  and  N_8
REMARK    3  A    between atoms: C_9  and  C_11
REMARK    4  A    between atoms: C_11  and  C_12
REMARK    5  A    between atoms: C_12  and  C_13
REMARK    6  A    between atoms: C_13  and  C_14
REMARK    7  A    between atoms: C_14  and  C_15
REMARK    8  A    between atoms: C_15  and  N_16
REMARK    9  A    between atoms: C_17  and  C_19
REMARK                            x       y       z     vdW  Elec       q    Type
REMARK                         _______ _______ _______ _____ _____    ______ ____
ROOT
ATOM      1  C   UNL     1       6.919   7.021  17.530  0.00  0.00    +0.000 C 
ENDROOT
BRANCH   1   3
ATOM      2  N   UNL     1       7.212   5.526  15.626  0.00  0.00    +0.000 N 
ATOM      3  C   UNL     1       6.403   6.485  16.216  0.00  0.00    +0.000 C 
ATOM      4  O   UNL     1       5.305   6.870  15.818  0.00  0.00    +0.000 OA
ATOM      5  H   UNL     1       8.001   5.184  16.154  0.00  0.00    +0.000 HD
BRANCH   2  11
ATOM      6  C   UNL     1       7.711   5.192  13.229  0.00  0.00    +0.000 A 
ATOM      7  C   UNL     1       7.440   4.487  12.038  0.00  0.00    +0.000 A 
ATOM      8  C   UNL     1       6.402   3.558  11.958  0.00  0.00    +0.000 A 
ATOM      9  C   UNL     1       5.638   3.291  13.081  0.00  0.00    +0.000 A 
ATOM     10  C   UNL     1       5.909   3.952  14.275  0.00  0.00    +0.000 A 
ATOM     11  C   UNL     1       6.951   4.884  14.383  0.00  0.00    +0.000 A 
BRANCH   6  12
ATOM     12  N   UNL     1       8.888   5.968  13.259  0.00  0.00    +0.000 N 
ATOM     13  H   UNL     1       8.974   6.527  14.105  0.00  0.00    +0.000 HD
ATOM     14  H   UNL     1       9.745   5.491  13.030  0.00  0.00    +0.000 HD
ENDBRANCH   6  12
ENDBRANCH   2  11
ENDBRANCH   1   3
BRANCH   1  15
ATOM     15  C   UNL     1       7.582   5.878  18.291  0.00  0.00    +0.000 C 
BRANCH  15  16
ATOM     16  C   UNL     1       6.703   5.281  19.389  0.00  0.00    +0.000 C 
BRANCH  16  17
ATOM     17  C   UNL     1       5.509   4.482  18.865  0.00  0.00    +0.000 C 
BRANCH  17  18
ATOM     18  C   UNL     1       4.310   4.561  19.806  0.00  0.00    +0.000 C 
BRANCH  18  19
ATOM     19  N   UNL     1       3.697   5.863  19.760  0.00  0.00    +0.000 N 
ATOM     20  C   UNL     1       2.827   6.203  18.746  0.00  0.00    +0.000 C 
ATOM     21  O   UNL     1       2.500   5.437  17.851  0.00  0.00    +0.000 OA
ATOM     22  H   UNL     1       3.853   6.538  20.503  0.00  0.00    +0.000 HD
BRANCH  20  23
ATOM     23  C   UNL     1       2.281   7.582  18.792  0.00  0.00    +0.000 A 
ATOM     24  C   UNL     1       2.441   8.403  17.683  0.00  0.00    +0.000 A 
ATOM     25  N   UNL     1       1.974   9.678  17.653  0.00  0.00    +0.000 NA
ATOM     26  C   UNL     1       1.346  10.081  18.781  0.00  0.00    +0.000 A 
ATOM     27  C   UNL     1       1.194   9.262  19.892  0.00  0.00    +0.000 A 
ATOM     28  N   UNL     1       1.651   7.988  19.930  0.00  0.00    +0.000 NA
ENDBRANCH  20  23
ENDBRANCH  18  19
ENDBRANCH  17  18
ENDBRANCH  16  17
ENDBRANCH  15  16
ENDBRANCH   1  15
TORSDOF 9
ENDMDL
MODEL 4
REMARK VINA RESULT:      -6.9      4.771      7.387
REMARK  Name = 
REMARK  9 active torsions:
REMARK  status: ('A' for Active; 'I' for Inactive)
REMARK    1  A    between atoms: N_1  and  C_2
REMARK    2  A    between atoms: C_7  and  N_8
REMARK    3  A    between atoms: C_9  and  C_11
REMARK    4  A    between atoms: C_11  and  C_12
REMARK    5  A    between atoms: C_12  and  C_13
REMARK    6  A    between atoms: C_13  and  C_14
REMARK    7  A    between atoms: C_14  and  C_15
REMARK    8  A    between atoms: C_15  and  N_16
REMARK    9  A    between atoms: C_17  and  C_19
REMARK                            x       y       z     vdW  Elec       q    Type
REMARK                         _______ _______ _______ _____ _____    ______ ____
ROOT
ATOM      1  C   UNL     1       5.740   6.937  17.127  0.00  0.00    +0.000 C 
ENDROOT
BRANCH   1   3
ATOM      2  N   UNL     1       4.136   5.465  18.223  0.00  0.00    +0.000 N 
ATOM      3  C   UNL     1       4.931   5.662  17.104  0.00  0.00    +0.000 C 
ATOM      4  O   UNL     1       4.977   4.958  16.098  0.00  0.00    +0.000 OA
ATOM      5  H   UNL     1       4.071   6.214  18.895  0.00  0.00    +0.000 HD
BRANCH   2  11
ATOM      6  C   UNL     1       3.824   3.121  18.943  0.00  0.00    +0.000 A 
ATOM      7  C   UNL     1       2.937   2.054  19.190  0.00  0.00    +0.000 A 
ATOM      8  C   UNL     1       1.579   2.147  18.885  0.00  0.00    +0.000 A 
ATOM      9  C   UNL     1       1.077   3.325  18.360  0.00  0.00    +0.000 A 
ATOM     10  C   UNL     1       1.930   4.402  18.138  0.00  0.00    +0.000 A 
ATOM     11  C   UNL     1       3.297   4.336  18.444  0.00  0.00    +0.000 A 
BRANCH   6  12
ATOM     12  N   UNL     1       5.133   2.994  19.452  0.00  0.00    +0.000 N 
ATOM     13  H   UNL     1       5.580   2.120  19.186  0.00  0.00    +0.000 HD
ATOM     14  H   UNL     1       5.743   3.786  19.323  0.00  0.00    +0.000 HD
ENDBRANCH   6  12
ENDBRANCH   2  11
ENDBRANCH   1   3
BRANCH   1  15
ATOM     15  C   UNL     1       7.219   6.570  17.201  0.00  0.00    +0.000 C 
BRANCH  15  16
ATOM     16  C   UNL     1       8.002   7.385  18.228  0.00  0.00    +0.000 C 
BRANCH  16  17
ATOM     17  C   UNL     1       8.108   8.873  17.891  0.00  0.00    +0.000 C 
BRANCH  17  18
ATOM     18  C   UNL     1       8.964   9.630  18.903  0.00  0.00    +0.000 C 
BRANCH  18  19
ATOM     19  N   UNL     1       9.572  10.791  18.307  0.00  0.00    +0.000 N 
ATOM     20  C   UNL     1       9.559  12.009  18.951  0.00  0.00    +0.000 C 
ATOM     21  O   UNL     1       9.068  12.184  20.058  0.00  0.00    +0.000 OA
ATOM     22  H   UNL     1      10.069  10.722  17.423  0.00  0.00    +0.000 HD
BRANCH  20  23
ATOM     23  C   UNL     1      10.193  13.137  18.225  0.00  0.00    +0.000 A 
ATOM     24  C   UNL     1       9.744  14.428  18.470  0.00  0.00    +0.000 A 
ATOM     25  N   UNL     1      10.271  15.510  17.839  0.00  0.00    +0.000 NA
ATOM     26  C   UNL     1      11.259  15.230  16.960  0.00  0.00    +0.000 A 
ATOM     27  C   UNL     1      11.700  13.938  16.709  0.00  0.00    +0.000 A 
ATOM     28  N   UNL     1      11.186  12.854  17.337  0.00  0.00    +0.000 NA
ENDBRANCH  20  23
ENDBRANCH  18  19
ENDBRANCH  17  18
ENDBRANCH  16  17
ENDBRANCH  15  16
ENDBRANCH   1  15
TORSDOF 9
ENDMDL
MODEL 5
REMARK VINA RESULT:      -6.9      0.961      1.539
REMARK  Name = 
REMARK  9 active torsions:
REMARK  status: ('A' for Active; 'I' for Inactive)
REMARK    1  A    between atoms: N_1  and  C_2
REMARK    2  A    between atoms: C_7  and  N_8
REMARK    3  A    between atoms: C_9  and  C_11
REMARK    4  A    between atoms: C_11  and  C_12
REMARK    5  A    between atoms: C_12  and  C_13
REMARK    6  A    between atoms: C_13  and  C_14
REMARK    7  A    between atoms: C_14  and  C_15
REMARK    8  A    between atoms: C_15  and  N_16
REMARK    9  A    between atoms: C_17  and  C_19
REMARK                            x       y       z     vdW  Elec       q    Type
REMARK                         _______ _______ _______ _____ _____    ______ ____
ROOT
ATOM      1  C   UNL     1       2.575   3.864  21.311  0.00  0.00    +0.000 C 
ENDROOT
BRANCH   1   3
ATOM      2  N   UNL     1       2.594   6.146  20.455  0.00  0.00    +0.000 N 
ATOM      3  C   UNL     1       1.816   5.030  20.724  0.00  0.00    +0.000 C 
ATOM      4  O   UNL     1       0.623   4.881  20.467  0.00  0.00    +0.000 OA
ATOM      5  H   UNL     1       3.593   6.063  20.561  0.00  0.00    +0.000 HD
BRANCH   2  11
ATOM      6  C   UNL     1       2.477   7.795  18.618  0.00  0.00    +0.000 A 
ATOM      7  C   UNL     1       1.925   8.992  18.118  0.00  0.00    +0.000 A 
ATOM      8  C   UNL     1       1.093   9.795  18.898  0.00  0.00    +0.000 A 
ATOM      9  C   UNL     1       0.768   9.394  20.183  0.00  0.00    +0.000 A 
ATOM     10  C   UNL     1       1.277   8.200  20.684  0.00  0.00    +0.000 A 
ATOM     11  C   UNL     1       2.109   7.372  19.917  0.00  0.00    +0.000 A 
BRANCH   6  12
ATOM     12  N   UNL     1       3.153   6.969  17.695  0.00  0.00    +0.000 N 
ATOM     13  H   UNL     1       3.248   6.008  18.017  0.00  0.00    +0.000 HD
ATOM     14  H   UNL     1       2.843   7.019  16.738  0.00  0.00    +0.000 HD
ENDBRANCH   6  12
ENDBRANCH   2  11
ENDBRANCH   1   3
BRANCH   1  15
ATOM     15  C   UNL     1       2.314   2.633  20.448  0.00  0.00    +0.000 C 
BRANCH  15  16
ATOM     16  C   UNL     1       3.570   2.076  19.780  0.00  0.00    +0.000 C 
BRANCH  16  17
ATOM     17  C   UNL     1       3.352   1.607  18.340  0.00  0.00    +0.000 C 
BRANCH  17  18
ATOM     18  C   UNL     1       3.416   2.764  17.346  0.00  0.00    +0.000 C 
BRANCH  18  19
ATOM     19  N   UNL     1       4.365   3.762  17.767  0.00  0.00    +0.000 N 
ATOM     20  C   UNL     1       5.433   4.107  16.968  0.00  0.00    +0.000 C 
ATOM     21  O   UNL     1       5.634   3.626  15.862  0.00  0.00    +0.000 OA
ATOM     22  H   UNL     1       4.235   4.268  18.639  0.00  0.00    +0.000 HD
BRANCH  20  23
ATOM     23  C   UNL     1       6.358   5.128  17.522  0.00  0.00    +0.000 A 
ATOM     24  C   UNL     1       6.617   6.270  16.778  0.00  0.00    +0.000 A 
ATOM     25  N   UNL     1       7.457   7.245  17.216  0.00  0.00    +0.000 NA
ATOM     26  C   UNL     1       8.015   7.014  18.426  0.00  0.00    +0.000 A 
ATOM     27  C   UNL     1       7.761   5.866  19.165  0.00  0.00    +0.000 A 
ATOM     28  N   UNL     1       6.922   4.892  18.740  0.00  0.00    +0.000 NA
ENDBRANCH  20  23
ENDBRANCH  18  19
ENDBRANCH  17  18
ENDBRANCH  16  17
ENDBRANCH  15  16
ENDBRANCH   1  15
TORSDOF 9
ENDMDL
MODEL 6
REMARK VINA RESULT:      -6.7      4.457      7.812
REMARK  Name = 
REMARK  9 active torsions:
REMARK  status: ('A' for Active; 'I' for Inactive)
REMARK    1  A    between atoms: N_1  and  C_2
REMARK    2  A    between atoms: C_7  and  N_8
REMARK    3  A    between atoms: C_9  and  C_11
REMARK    4  A    between atoms: C_11  and  C_12
REMARK    5  A    between atoms: C_12  and  C_13
REMARK    6  A    between atoms: C_13  and  C_14
REMARK    7  A    between atoms: C_14  and  C_15
REMARK    8  A    between atoms: C_15  and  N_16
REMARK    9  A    between atoms: C_17  and  C_19
REMARK                            x       y       z     vdW  Elec       q    Type
REMARK                         _______ _______ _______ _____ _____    ______ ____
ROOT
ATOM      1  C   UNL     1       8.635   8.584  18.507  0.00  0.00    +0.000 C 
ENDROOT
BRANCH   1   3
ATOM      2  N   UNL     1       9.107  10.867  17.794  0.00  0.00    +0.000 N 
ATOM      3  C   UNL     1       9.044   9.992  18.868  0.00  0.00    +0.000 C 
ATOM      4  O   UNL     1       9.211  10.266  20.055  0.00  0.00    +0.000 OA
ATOM      5  H   UNL     1       8.777  10.540  16.898  0.00  0.00    +0.000 HD
BRANCH   2  11
ATOM      6  C   UNL     1      10.842  12.626  17.815  0.00  0.00    +0.000 A 
ATOM      7  C   UNL     1      11.150  14.002  17.848  0.00  0.00    +0.000 A 
ATOM      8  C   UNL     1      10.159  14.970  18.011  0.00  0.00    +0.000 A 
ATOM      9  C   UNL     1       8.835  14.579  18.107  0.00  0.00    +0.000 A 
ATOM     10  C   UNL     1       8.506  13.228  18.045  0.00  0.00    +0.000 A 
ATOM     11  C   UNL     1       9.483  12.237  17.874  0.00  0.00    +0.000 A 
BRANCH   6  12
ATOM     12  N   UNL     1      11.887  11.746  17.466  0.00  0.00    +0.000 N 
ATOM     13  H   UNL     1      12.126  11.784  16.477  0.00  0.00    +0.000 HD
ATOM     14  H   UNL     1      12.705  11.765  18.054  0.00  0.00    +0.000 HD
ENDBRANCH   6  12
ENDBRANCH   2  11
ENDBRANCH   1   3
BRANCH   1  15
ATOM     15  C   UNL     1       7.381   8.652  17.641  0.00  0.00    +0.000 C 
BRANCH  15  16
ATOM     16  C   UNL     1       6.628   7.326  17.547  0.00  0.00    +0.000 C 
BRANCH  16  17
ATOM     17  C   UNL     1       7.380   6.238  16.778  0.00  0.00    +0.000 C 
BRANCH  17  18
ATOM     18  C   UNL     1       7.413   4.916  17.541  0.00  0.00    +0.000 C 
BRANCH  18  19
ATOM     19  N   UNL     1       6.108   4.307  17.585  0.00  0.00    +0.000 N 
ATOM     20  C   UNL     1       5.414   4.202  18.770  0.00  0.00    +0.000 C 
ATOM     21  O   UNL     1       5.828   4.631  19.838  0.00  0.00    +0.000 OA
ATOM     22  H   UNL     1       5.654   3.990  16.733  0.00  0.00    +0.000 HD
BRANCH  20  23
ATOM     23  C   UNL     1       4.093   3.531  18.694  0.00  0.00    +0.000 A 
ATOM     24  C   UNL     1       3.472   3.414  17.457  0.00  0.00    +0.000 A 
ATOM     25  N   UNL     1       2.260   2.817  17.309  0.00  0.00    +0.000 NA
ATOM     26  C   UNL     1       1.711   2.352  18.454  0.00  0.00    +0.000 A 
ATOM     27  C   UNL     1       2.329   2.478  19.690  0.00  0.00    +0.000 A 
ATOM     28  N   UNL     1       3.539   3.065  19.848  0.00  0.00    +0.000 NA
ENDBRANCH  20  23
ENDBRANCH  18  19
ENDBRANCH  17  18
ENDBRANCH  16  17
ENDBRANCH  15  16
ENDBRANCH   1  15
TORSDOF 9
ENDMDL
MODEL 7
REMARK VINA RESULT:      -6.7      2.830      4.920
REMARK  Name = 
REMARK  9 active torsions:
REMARK  status: ('A' for Active; 'I' for Inactive)
REMARK    1  A    between atoms: N_1  and  C_2
REMARK    2  A    between atoms: C_7  and  N_8
REMARK    3  A    between atoms: C_9  and  C_11
REMARK    4  A    between atoms: C_11  and  C_12
REMARK    5  A    between atoms: C_12  and  C_13
REMARK    6  A    between atoms: C_13  and  C_14
REMARK    7  A    between atoms: C_14  and  C_15
REMARK    8  A    between atoms: C_15  and  N_16
REMARK    9  A    between atoms: C_17  and  C_19
REMARK                            x       y       z     vdW  Elec       q    Type
REMARK                         _______ _______ _______ _____ _____    ______ ____
ROOT
ATOM      1  C   UNL     1       4.947   6.897  17.162  0.00  0.00    +0.000 C 
ENDROOT
BRANCH   1   3
ATOM      2  N   UNL     1       3.054   5.486  17.769  0.00  0.00    +0.000 N 
ATOM      3  C   UNL     1       4.284   5.988  18.169  0.00  0.00    +0.000 C 
ATOM      4  O   UNL     1       4.896   5.709  19.198  0.00  0.00    +0.000 OA
ATOM      5  H   UNL     1       2.754   5.667  16.823  0.00  0.00    +0.000 HD
BRANCH   2  11
ATOM      6  C   UNL     1       1.878   4.954  19.876  0.00  0.00    +0.000 A 
ATOM      7  C   UNL     1       1.016   4.086  20.579  0.00  0.00    +0.000 A 
ATOM      8  C   UNL     1       0.570   2.888  20.021  0.00  0.00    +0.000 A 
ATOM      9  C   UNL     1       0.951   2.553  18.733  0.00  0.00    +0.000 A 
ATOM     10  C   UNL     1       1.775   3.411  18.010  0.00  0.00    +0.000 A 
ATOM     11  C   UNL     1       2.230   4.624  18.546  0.00  0.00    +0.000 A 
BRANCH   6  12
ATOM     12  N   UNL     1       2.122   6.217  20.453  0.00  0.00    +0.000 N 
ATOM     13  H   UNL     1       1.269   6.706  20.717  0.00  0.00    +0.000 HD
ATOM     14  H   UNL     1       2.818   6.251  21.181  0.00  0.00    +0.000 HD
ENDBRANCH   6  12
ENDBRANCH   2  11
ENDBRANCH   1   3
BRANCH   1  15
ATOM     15  C   UNL     1       6.058   7.669  17.867  0.00  0.00    +0.000 C 
BRANCH  15  16
ATOM     16  C   UNL     1       7.455   7.108  17.606  0.00  0.00    +0.000 C 
BRANCH  16  17
ATOM     17  C   UNL     1       7.866   5.993  18.569  0.00  0.00    +0.000 C 
BRANCH  17  18
ATOM     18  C   UNL     1       7.751   4.612  17.928  0.00  0.00    +0.000 C 
BRANCH  18  19
ATOM     19  N   UNL     1       7.782   4.700  16.490  0.00  0.00    +0.000 N 
ATOM     20  C   UNL     1       6.744   4.209  15.727  0.00  0.00    +0.000 C 
ATOM     21  O   UNL     1       5.738   3.702  16.201  0.00  0.00    +0.000 OA
ATOM     22  H   UNL     1       8.544   5.173  16.015  0.00  0.00    +0.000 HD
BRANCH  20  23
ATOM     23  C   UNL     1       6.903   4.333  14.257  0.00  0.00    +0.000 A 
ATOM     24  C   UNL     1       6.187   3.476  13.432  0.00  0.00    +0.000 A 
ATOM     25  N   UNL     1       6.285   3.525  12.078  0.00  0.00    +0.000 NA
ATOM     26  C   UNL     1       7.129   4.468  11.602  0.00  0.00    +0.000 A 
ATOM     27  C   UNL     1       7.850   5.319  12.429  0.00  0.00    +0.000 A 
ATOM     28  N   UNL     1       7.755   5.282  13.779  0.00  0.00    +0.000 NA
ENDBRANCH  20  23
ENDBRANCH  18  19
ENDBRANCH  17  18
ENDBRANCH  16  17
ENDBRANCH  15  16
ENDBRANCH   1  15
TORSDOF 9
ENDMDL
MODEL 8
REMARK VINA RESULT:      -6.6      1.742      5.402
REMARK  Name = 
REMARK  9 active torsions:
REMARK  status: ('A' for Active; 'I' for Inactive)
REMARK    1  A    between atoms: N_1  and  C_2
REMARK    2  A    between atoms: C_7  and  N_8
REMARK    3  A    between atoms: C_9  and  C_11
REMARK    4  A    between atoms: C_11  and  C_12
REMARK    5  A    between atoms: C_12  and  C_13
REMARK    6  A    between atoms: C_13  and  C_14
REMARK    7  A    between atoms: C_14  and  C_15
REMARK    8  A    between atoms: C_15  and  N_16
REMARK    9  A    between atoms: C_17  and  C_19
REMARK                            x       y       z     vdW  Elec       q    Type
REMARK                         _______ _______ _______ _____ _____    ______ ____
ROOT
ATOM      1  C   UNL     1       2.605   3.027  18.081  0.00  0.00    +0.000 C 
ENDROOT
BRANCH   1   3
ATOM      2  N   UNL     1       4.406   4.573  18.638  0.00  0.00    +0.000 N 
ATOM      3  C   UNL     1       3.882   3.723  17.676  0.00  0.00    +0.000 C 
ATOM      4  O   UNL     1       4.385   3.437  16.591  0.00  0.00    +0.000 OA
ATOM      5  H   UNL     1       3.974   4.578  19.550  0.00  0.00    +0.000 HD
BRANCH   2  11
ATOM      6  C   UNL     1       5.716   6.289  17.436  0.00  0.00    +0.000 A 
ATOM      7  C   UNL     1       6.889   7.068  17.368  0.00  0.00    +0.000 A 
ATOM      8  C   UNL     1       7.943   6.883  18.263  0.00  0.00    +0.000 A 
ATOM      9  C   UNL     1       7.826   5.937  19.267  0.00  0.00    +0.000 A 
ATOM     10  C   UNL     1       6.664   5.179  19.371  0.00  0.00    +0.000 A 
ATOM     11  C   UNL     1       5.588   5.352  18.489  0.00  0.00    +0.000 A 
BRANCH   6  12
ATOM     12  N   UNL     1       4.644   6.675  16.606  0.00  0.00    +0.000 N 
ATOM     13  H   UNL     1       4.929   6.859  15.646  0.00  0.00    +0.000 HD
ATOM     14  H   UNL     1       3.813   6.107  16.651  0.00  0.00    +0.000 HD
ENDBRANCH   6  12
ENDBRANCH   2  11
ENDBRANCH   1   3
BRANCH   1  15
ATOM     15  C   UNL     1       2.766   2.514  19.508  0.00  0.00    +0.000 C 
BRANCH  15  16
ATOM     16  C   UNL     1       1.605   2.887  20.428  0.00  0.00    +0.000 C 
BRANCH  16  17
ATOM     17  C   UNL     1       1.166   4.347  20.314  0.00  0.00    +0.000 C 
BRANCH  17  18
ATOM     18  C   UNL     1       2.123   5.291  21.037  0.00  0.00    +0.000 C 
BRANCH  18  19
ATOM     19  N   UNL     1       1.755   6.668  20.827  0.00  0.00    +0.000 N 
ATOM     20  C   UNL     1       1.930   7.269  19.599  0.00  0.00    +0.000 C 
ATOM     21  O   UNL     1       2.371   6.688  18.618  0.00  0.00    +0.000 OA
ATOM     22  H   UNL     1       1.311   7.206  21.565  0.00  0.00    +0.000 HD
BRANCH  20  23
ATOM     23  C   UNL     1       1.539   8.698  19.513  0.00  0.00    +0.000 A 
ATOM     24  C   UNL     1       1.963   9.443  18.421  0.00  0.00    +0.000 A 
ATOM     25  N   UNL     1       1.651  10.758  18.276  0.00  0.00    +0.000 NA
ATOM     26  C   UNL     1       0.901  11.278  19.273  0.00  0.00    +0.000 A 
ATOM     27  C   UNL     1       0.485  10.533  20.369  0.00  0.00    +0.000 A 
ATOM     28  N   UNL     1       0.786   9.221  20.520  0.00  0.00    +0.000 NA
ENDBRANCH  20  23
ENDBRANCH  18  19
ENDBRANCH  17  18
ENDBRANCH  16  17
ENDBRANCH  15  16
ENDBRANCH   1  15
TORSDOF 9
ENDMDL
MODEL 9
REMARK VINA RESULT:      -6.6      4.827      7.160
REMARK  Name = 
REMARK  9 active torsions:
REMARK  status: ('A' for Active; 'I' for Inactive)
REMARK    1  A    between atoms: N_1  and  C_2
REMARK    2  A    between atoms: C_7  and  N_8
REMARK    3  A    between atoms: C_9  and  C_11
REMARK    4  A    between atoms: C_11  and  C_12
REMARK    5  A    between atoms: C_12  and  C_13
REMARK    6  A    between atoms: C_13  and  C_14
REMARK    7  A    between atoms: C_14  and  C_15
REMARK    8  A    between atoms: C_15  and  N_16
REMARK    9  A    between atoms: C_17  and  C_19
REMARK                            x       y       z     vdW  Elec       q    Type
REMARK                         _______ _______ _______ _____ _____    ______ ____
ROOT
ATOM      1  C   UNL     1       6.883   5.748  19.063  0.00  0.00    +0.000 C 
ENDROOT
BRANCH   1   3
ATOM      2  N   UNL     1       4.468   5.469  19.251  0.00  0.00    +0.000 N 
ATOM      3  C   UNL     1       5.692   4.824  19.147  0.00  0.00    +0.000 C 
ATOM      4  O   UNL     1       5.882   3.613  19.044  0.00  0.00    +0.000 OA
ATOM      5  H   UNL     1       4.453   6.472  19.152  0.00  0.00    +0.000 HD
BRANCH   2  11
ATOM      6  C   UNL     1       2.638   4.140  18.255  0.00  0.00    +0.000 A 
ATOM      7  C   UNL     1       1.410   3.472  18.436  0.00  0.00    +0.000 A 
ATOM      8  C   UNL     1       0.717   3.529  19.646  0.00  0.00    +0.000 A 
ATOM      9  C   UNL     1       1.261   4.229  20.710  0.00  0.00    +0.000 A 
ATOM     10  C   UNL     1       2.487   4.869  20.562  0.00  0.00    +0.000 A 
ATOM     11  C   UNL     1       3.206   4.819  19.359  0.00  0.00    +0.000 A 
BRANCH   6  12
ATOM     12  N   UNL     1       3.342   3.870  17.063  0.00  0.00    +0.000 N 
ATOM     13  H   UNL     1       2.981   4.385  16.263  0.00  0.00    +0.000 HD
ATOM     14  H   UNL     1       4.347   3.910  17.117  0.00  0.00    +0.000 HD
ENDBRANCH   6  12
ENDBRANCH   2  11
ENDBRANCH   1   3
BRANCH   1  15
ATOM     15  C   UNL     1       6.707   6.654  17.849  0.00  0.00    +0.000 C 
BRANCH  15  16
ATOM     16  C   UNL     1       7.945   7.488  17.523  0.00  0.00    +0.000 C 
BRANCH  16  17
ATOM     17  C   UNL     1       7.730   8.997  17.651  0.00  0.00    +0.000 C 
BRANCH  17  18
ATOM     18  C   UNL     1       8.764   9.647  18.566  0.00  0.00    +0.000 C 
BRANCH  18  19
ATOM     19  N   UNL     1       9.001  11.018  18.194  0.00  0.00    +0.000 N 
ATOM     20  C   UNL     1      10.121  11.689  18.635  0.00  0.00    +0.000 C 
ATOM     21  O   UNL     1      10.986  11.178  19.332  0.00  0.00    +0.000 OA
ATOM     22  H   UNL     1       8.374  11.500  17.557  0.00  0.00    +0.000 HD
BRANCH  20  23
ATOM     23  C   UNL     1      10.241  13.105  18.208  0.00  0.00    +0.000 A 
ATOM     24  C   UNL     1       9.346  14.037  18.717  0.00  0.00    +0.000 A 
ATOM     25  N   UNL     1       9.390  15.349  18.368  0.00  0.00    +0.000 NA
ATOM     26  C   UNL     1      10.368  15.673  17.491  0.00  0.00    +0.000 A 
ATOM     27  C   UNL     1      11.256  14.738  16.976  0.00  0.00    +0.000 A 
ATOM     28  N   UNL     1      11.224  13.429  17.322  0.00  0.00    +0.000 NA
ENDBRANCH  20  23
ENDBRANCH  18  19
ENDBRANCH  17  18
ENDBRANCH  16  17
ENDBRANCH  15  16
ENDBRANCH   1  15
TORSDOF 9
ENDMDL
