MODEL 1
REMARK VINA RESULT:      -7.3      0.000      0.000
REMARK  Name = 
REMARK  10 active torsions:
REMARK  status: ('A' for Active; 'I' for Inactive)
REMARK    1  A    between atoms: C_1  and  C_2
REMARK    2  A    between atoms: C_2  and  C_3
REMARK    3  A    between atoms: C_3  and  C_4
REMARK    4  A    between atoms: C_4  and  N_5
REMARK    5  A    between atoms: C_6  and  S_7
REMARK    6  A    between atoms: S_7  and  C_8
REMARK    7  A    between atoms: C_8  and  C_9
REMARK    8  A    between atoms: N_11  and  C_12
REMARK    9  A    between atoms: C_16  and  O_17
REMARK   10  A    between atoms: O_17  and  C_18
REMARK                            x       y       z     vdW  Elec       q    Type
REMARK                         _______ _______ _______ _____ _____    ______ ____
ROOT
ATOM      1  N   UNL     1       6.282   4.855  16.073  0.00  0.00    +0.000 N 
ATOM      2  C   UNL     1       6.202   5.977  16.906  0.00  0.00    +0.000 A 
ATOM      3  N   UNL     1       5.331   6.169  17.861  0.00  0.00    +0.000 NA
ATOM      4  C   UNL     1       4.411   5.112  18.037  0.00  0.00    +0.000 A 
ATOM      5  C   UNL     1       4.504   3.957  17.321  0.00  0.00    +0.000 A 
ATOM      6  S   UNL     1       3.283   2.850  17.673  0.00  0.00    +0.000 S 
ATOM      7  C   UNL     1       2.587   3.908  18.840  0.00  0.00    +0.000 A 
ATOM      8  C   UNL     1       1.444   3.636  19.614  0.00  0.00    +0.000 A 
ATOM      9  C   UNL     1       1.017   4.589  20.535  0.00  0.00    +0.000 A 
ATOM     10  C   UNL     1       1.707   5.786  20.679  0.00  0.00    +0.000 A 
ATOM     11  C   UNL     1       2.839   6.059  19.899  0.00  0.00    +0.000 A 
ATOM     12  C   UNL     1       3.304   5.110  18.952  0.00  0.00    +0.000 A 
ATOM     13  C   UNL     1       5.510   3.720  16.342  0.00  0.00    +0.000 A 
ATOM     14  O   UNL     1       5.682   2.636  15.782  0.00  0.00    +0.000 OA
ENDROOT
BRANCH   1  15
ATOM     15  C   UNL     1       7.118   4.745  14.864  0.00  0.00    +0.000 C 
BRANCH  15  16
ATOM     16  C   UNL     1       6.292   4.866  13.568  0.00  0.00    +0.000 C 
BRANCH  16  18
ATOM     17  C   UNL     1       5.354   3.066  12.078  0.00  0.00    +0.000 C 
ATOM     18  C   UNL     1       6.616   3.774  12.547  0.00  0.00    +0.000 C 
ENDBRANCH  16  18
ENDBRANCH  15  16
ENDBRANCH   1  15
BRANCH   2  19
ATOM     19  S   UNL     1       7.450   7.194  16.663  0.00  0.00    +0.000 S 
BRANCH  19  20
ATOM     20  C   UNL     1       7.983   7.647  18.322  0.00  0.00    +0.000 C 
BRANCH  20  21
ATOM     21  C   UNL     1       8.325   9.120  18.423  0.00  0.00    +0.000 C 
ATOM     22  O   UNL     1       7.829   9.921  17.635  0.00  0.00    +0.000 OA
ATOM     23  N   UNL     1       9.253   9.414  19.411  0.00  0.00    +0.000 N 
ATOM     24  H   UNL     1       9.666   8.620  19.895  0.00  0.00    +0.000 HD
BRANCH  23  25
ATOM     25  C   UNL     1       9.769  10.689  19.720  0.00  0.00    +0.000 A 
ATOM     26  C   UNL     1      10.826  11.266  19.012  0.00  0.00    +0.000 A 
ATOM     27  C   UNL     1      11.367  12.482  19.414  0.00  0.00    +0.000 A 
ATOM     28  C   UNL     1      10.847  13.136  20.527  0.00  0.00    +0.000 A 
ATOM     29  C   UNL     1       9.763  12.600  21.223  0.00  0.00    +0.000 A 
ATOM     30  C   UNL     1       9.207  11.387  20.802  0.00  0.00    +0.000 A 
BRANCH  29  31
ATOM     31  O   UNL     1       9.375  13.348  22.299  0.00  0.00    +0.000 OA
ATOM     32  C   UNL     1       8.904  14.666  22.059  0.00  0.00    +0.000 C 
ENDBRANCH  29  31
ENDBRANCH  23  25
ENDBRANCH  20  21
ENDBRANCH  19  20
ENDBRANCH   2  19
TORSDOF 8
ENDMDL
MODEL 2
REMARK VINA RESULT:      -7.2      7.632     10.628
REMARK  Name = 
REMARK  10 active torsions:
REMARK  status: ('A' for Active; 'I' for Inactive)
REMARK    1  A    between atoms: C_1  and  C_2
REMARK    2  A    between atoms: C_2  and  C_3
REMARK    3  A    between atoms: C_3  and  C_4
REMARK    4  A    between atoms: C_4  and  N_5
REMARK    5  A    between atoms: C_6  and  S_7
REMARK    6  A    between atoms: S_7  and  C_8
REMARK    7  A    between atoms: C_8  and  C_9
REMARK    8  A    between atoms: N_11  and  C_12
REMARK    9  A    between atoms: C_16  and  O_17
REMARK   10  A    between atoms: O_17  and  C_18
REMARK                            x       y       z     vdW  Elec       q    Type
REMARK                         _______ _______ _______ _____ _____    ______ ____
ROOT
ATOM      1  N   UNL     1      -1.784  11.977  18.904  0.00  0.00    +0.000 N 
ATOM      2  C   UNL     1      -0.640  12.181  19.685  0.00  0.00    +0.000 A 
ATOM      3  N   UNL     1      -0.606  12.715  20.878  0.00  0.00    +0.000 NA
ATOM      4  C   UNL     1      -1.867  13.095  21.387  0.00  0.00    +0.000 A 
ATOM      5  C   UNL     1      -3.019  12.831  20.713  0.00  0.00    +0.000 A 
ATOM      6  S   UNL     1      -4.399  13.403  21.492  0.00  0.00    +0.000 S 
ATOM      7  C   UNL     1      -3.467  14.022  22.802  0.00  0.00    +0.000 A 
ATOM      8  C   UNL     1      -3.980  14.688  23.930  0.00  0.00    +0.000 A 
ATOM      9  C   UNL     1      -3.094  15.110  24.918  0.00  0.00    +0.000 A 
ATOM     10  C   UNL     1      -1.730  14.880  24.785  0.00  0.00    +0.000 A 
ATOM     11  C   UNL     1      -1.221  14.227  23.654  0.00  0.00    +0.000 A 
ATOM     12  C   UNL     1      -2.094  13.780  22.629  0.00  0.00    +0.000 A 
ATOM     13  C   UNL     1      -3.056  12.172  19.451  0.00  0.00    +0.000 A 
ATOM     14  O   UNL     1      -4.095  11.813  18.894  0.00  0.00    +0.000 OA
ENDROOT
BRANCH   1  15
ATOM     15  C   UNL     1      -1.791  11.585  17.483  0.00  0.00    +0.000 C 
BRANCH  15  16
ATOM     16  C   UNL     1      -2.018  10.073  17.295  0.00  0.00    +0.000 C 
BRANCH  16  18
ATOM     17  C   UNL     1      -3.569  10.864  15.475  0.00  0.00    +0.000 C 
ATOM     18  C   UNL     1      -2.680   9.728  15.959  0.00  0.00    +0.000 C 
ENDBRANCH  16  18
ENDBRANCH  15  16
ENDBRANCH   1  15
BRANCH   2  19
ATOM     19  S   UNL     1       0.867  11.590  18.995  0.00  0.00    +0.000 S 
BRANCH  19  20
ATOM     20  C   UNL     1       1.013   9.897  19.588  0.00  0.00    +0.000 C 
BRANCH  20  21
ATOM     21  C   UNL     1       1.613   8.981  18.540  0.00  0.00    +0.000 C 
ATOM     22  O   UNL     1       1.522   9.269  17.349  0.00  0.00    +0.000 OA
ATOM     23  N   UNL     1       2.183   7.829  19.061  0.00  0.00    +0.000 N 
ATOM     24  H   UNL     1       2.063   7.677  20.060  0.00  0.00    +0.000 HD
BRANCH  23  25
ATOM     25  C   UNL     1       2.796   6.794  18.326  0.00  0.00    +0.000 A 
ATOM     26  C   UNL     1       2.289   5.493  18.291  0.00  0.00    +0.000 A 
ATOM     27  C   UNL     1       2.981   4.482  17.633  0.00  0.00    +0.000 A 
ATOM     28  C   UNL     1       4.185   4.768  16.997  0.00  0.00    +0.000 A 
ATOM     29  C   UNL     1       4.688   6.069  16.983  0.00  0.00    +0.000 A 
ATOM     30  C   UNL     1       3.978   7.088  17.626  0.00  0.00    +0.000 A 
BRANCH  29  31
ATOM     31  O   UNL     1       5.885   6.190  16.333  0.00  0.00    +0.000 OA
ATOM     32  C   UNL     1       6.229   5.193  15.382  0.00  0.00    +0.000 C 
ENDBRANCH  29  31
ENDBRANCH  23  25
ENDBRANCH  20  21
ENDBRANCH  19  20
ENDBRANCH   2  19
TORSDOF 8
ENDMDL
MODEL 3
REMARK VINA RESULT:      -7.0      6.493     10.711
REMARK  Name = 
REMARK  10 active torsions:
REMARK  status: ('A' for Active; 'I' for Inactive)
REMARK    1  A    between atoms: C_1  and  C_2
REMARK    2  A    between atoms: C_2  and  C_3
REMARK    3  A    between atoms: C_3  and  C_4
REMARK    4  A    between atoms: C_4  and  N_5
REMARK    5  A    between atoms: C_6  and  S_7
REMARK    6  A    between atoms: S_7  and  C_8
REMARK    7  A    between atoms: C_8  and  C_9
REMARK    8  A    between atoms: N_11  and  C_12
REMARK    9  A    between atoms: C_16  and  O_17
REMARK   10  A    between atoms: O_17  and  C_18
REMARK                            x       y       z     vdW  Elec       q    Type
REMARK                         _______ _______ _______ _____ _____    ______ ____
ROOT
ATOM      1  N   UNL     1      -1.148  12.332  19.393  0.00  0.00    +0.000 N 
ATOM      2  C   UNL     1       0.021  11.669  19.001  0.00  0.00    +0.000 A 
ATOM      3  N   UNL     1       1.179  12.225  18.760  0.00  0.00    +0.000 NA
ATOM      4  C   UNL     1       1.206  13.625  18.934  0.00  0.00    +0.000 A 
ATOM      5  C   UNL     1       0.126  14.307  19.407  0.00  0.00    +0.000 A 
ATOM      6  S   UNL     1       0.373  15.971  19.503  0.00  0.00    +0.000 S 
ATOM      7  C   UNL     1       1.985  15.819  18.915  0.00  0.00    +0.000 A 
ATOM      8  C   UNL     1       2.889  16.879  18.717  0.00  0.00    +0.000 A 
ATOM      9  C   UNL     1       4.169  16.590  18.254  0.00  0.00    +0.000 A 
ATOM     10  C   UNL     1       4.542  15.277  17.990  0.00  0.00    +0.000 A 
ATOM     11  C   UNL     1       3.635  14.224  18.177  0.00  0.00    +0.000 A 
ATOM     12  C   UNL     1       2.323  14.482  18.650  0.00  0.00    +0.000 A 
ATOM     13  C   UNL     1      -1.107  13.684  19.751  0.00  0.00    +0.000 A 
ATOM     14  O   UNL     1      -2.043  14.268  20.299  0.00  0.00    +0.000 OA
ENDROOT
BRANCH   1  15
ATOM     15  C   UNL     1      -2.494  11.734  19.446  0.00  0.00    +0.000 C 
BRANCH  15  16
ATOM     16  C   UNL     1      -3.198  11.752  18.075  0.00  0.00    +0.000 C 
BRANCH  16  18
ATOM     17  C   UNL     1      -2.901   9.848  16.453  0.00  0.00    +0.000 C 
ATOM     18  C   UNL     1      -3.696  10.372  17.639  0.00  0.00    +0.000 C 
ENDBRANCH  16  18
ENDBRANCH  15  16
ENDBRANCH   1  15
BRANCH   2  19
ATOM     19  S   UNL     1      -0.098   9.916  18.901  0.00  0.00    +0.000 S 
BRANCH  19  20
ATOM     20  C   UNL     1       1.508   9.313  19.447  0.00  0.00    +0.000 C 
BRANCH  20  21
ATOM     21  C   UNL     1       2.104   8.324  18.464  0.00  0.00    +0.000 C 
ATOM     22  O   UNL     1       2.306   8.661  17.300  0.00  0.00    +0.000 OA
ATOM     23  N   UNL     1       2.319   7.063  18.998  0.00  0.00    +0.000 N 
ATOM     24  H   UNL     1       1.979   6.908  19.945  0.00  0.00    +0.000 HD
BRANCH  23  25
ATOM     25  C   UNL     1       2.843   5.945  18.317  0.00  0.00    +0.000 A 
ATOM     26  C   UNL     1       2.047   4.877  17.898  0.00  0.00    +0.000 A 
ATOM     27  C   UNL     1       2.621   3.751  17.318  0.00  0.00    +0.000 A 
ATOM     28  C   UNL     1       4.000   3.689  17.145  0.00  0.00    +0.000 A 
ATOM     29  C   UNL     1       4.810   4.763  17.516  0.00  0.00    +0.000 A 
ATOM     30  C   UNL     1       4.227   5.903  18.079  0.00  0.00    +0.000 A 
BRANCH  29  31
ATOM     31  O   UNL     1       6.143   4.548  17.298  0.00  0.00    +0.000 OA
ATOM     32  C   UNL     1       6.561   4.246  15.975  0.00  0.00    +0.000 C 
ENDBRANCH  29  31
ENDBRANCH  23  25
ENDBRANCH  20  21
ENDBRANCH  19  20
ENDBRANCH   2  19
TORSDOF 8
ENDMDL
MODEL 4
REMARK VINA RESULT:      -7.0      1.652      1.681
REMARK  Name = 
REMARK  10 active torsions:
REMARK  status: ('A' for Active; 'I' for Inactive)
REMARK    1  A    between atoms: C_1  and  C_2
REMARK    2  A    between atoms: C_2  and  C_3
REMARK    3  A    between atoms: C_3  and  C_4
REMARK    4  A    between atoms: C_4  and  N_5
REMARK    5  A    between atoms: C_6  and  S_7
REMARK    6  A    between atoms: S_7  and  C_8
REMARK    7  A    between atoms: C_8  and  C_9
REMARK    8  A    between atoms: N_11  and  C_12
REMARK    9  A    between atoms: C_16  and  O_17
REMARK   10  A    between atoms: O_17  and  C_18
REMARK                            x       y       z     vdW  Elec       q    Type
REMARK                         _______ _______ _______ _____ _____    ______ ____
ROOT
ATOM      1  N   UNL     1       6.501   4.904  16.669  0.00  0.00    +0.000 N 
ATOM      2  C   UNL     1       6.467   5.623  17.870  0.00  0.00    +0.000 A 
ATOM      3  N   UNL     1       5.512   5.589  18.763  0.00  0.00    +0.000 NA
ATOM      4  C   UNL     1       4.442   4.726  18.445  0.00  0.00    +0.000 A 
ATOM      5  C   UNL     1       4.469   3.931  17.340  0.00  0.00    +0.000 A 
ATOM      6  S   UNL     1       3.073   3.009  17.143  0.00  0.00    +0.000 S 
ATOM      7  C   UNL     1       2.381   3.651  18.584  0.00  0.00    +0.000 A 
ATOM      8  C   UNL     1       1.121   3.314  19.109  0.00  0.00    +0.000 A 
ATOM      9  C   UNL     1       0.711   3.906  20.300  0.00  0.00    +0.000 A 
ATOM     10  C   UNL     1       1.533   4.817  20.952  0.00  0.00    +0.000 A 
ATOM     11  C   UNL     1       2.784   5.160  20.420  0.00  0.00    +0.000 A 
ATOM     12  C   UNL     1       3.235   4.574  19.209  0.00  0.00    +0.000 A 
ATOM     13  C   UNL     1       5.552   3.909  16.416  0.00  0.00    +0.000 A 
ATOM     14  O   UNL     1       5.645   3.105  15.486  0.00  0.00    +0.000 OA
ENDROOT
BRANCH   1  15
ATOM     15  C   UNL     1       7.464   5.114  15.574  0.00  0.00    +0.000 C 
BRANCH  15  16
ATOM     16  C   UNL     1       6.768   5.344  14.218  0.00  0.00    +0.000 C 
BRANCH  16  18
ATOM     17  C   UNL     1       6.870   3.833  12.206  0.00  0.00    +0.000 C 
ATOM     18  C   UNL     1       7.609   4.879  13.027  0.00  0.00    +0.000 C 
ENDBRANCH  16  18
ENDBRANCH  15  16
ENDBRANCH   1  15
BRANCH   2  19
ATOM     19  S   UNL     1       7.891   6.600  18.212  0.00  0.00    +0.000 S 
BRANCH  19  20
ATOM     20  C   UNL     1       7.443   8.264  17.693  0.00  0.00    +0.000 C 
BRANCH  20  21
ATOM     21  C   UNL     1       8.405   9.302  18.237  0.00  0.00    +0.000 C 
ATOM     22  O   UNL     1       9.057   9.065  19.251  0.00  0.00    +0.000 OA
ATOM     23  N   UNL     1       8.406  10.493  17.526  0.00  0.00    +0.000 N 
ATOM     24  H   UNL     1       7.713  10.578  16.785  0.00  0.00    +0.000 HD
BRANCH  23  25
ATOM     25  C   UNL     1       9.181  11.636  17.810  0.00  0.00    +0.000 A 
ATOM     26  C   UNL     1      10.578  11.620  17.801  0.00  0.00    +0.000 A 
ATOM     27  C   UNL     1      11.301  12.745  18.182  0.00  0.00    +0.000 A 
ATOM     28  C   UNL     1      10.629  13.900  18.569  0.00  0.00    +0.000 A 
ATOM     29  C   UNL     1       9.235  13.952  18.544  0.00  0.00    +0.000 A 
ATOM     30  C   UNL     1       8.511  12.826  18.139  0.00  0.00    +0.000 A 
BRANCH  29  31
ATOM     31  O   UNL     1       8.720  15.147  18.965  0.00  0.00    +0.000 OA
ATOM     32  C   UNL     1       9.584  16.274  18.983  0.00  0.00    +0.000 C 
ENDBRANCH  29  31
ENDBRANCH  23  25
ENDBRANCH  20  21
ENDBRANCH  19  20
ENDBRANCH   2  19
TORSDOF 8
ENDMDL
MODEL 5
REMARK VINA RESULT:      -6.9      6.581     10.266
REMARK  Name = 
REMARK  10 active torsions:
REMARK  status: ('A' for Active; 'I' for Inactive)
REMARK    1  A    between atoms: C_1  and  C_2
REMARK    2  A    between atoms: C_2  and  C_3
REMARK    3  A    between atoms: C_3  and  C_4
REMARK    4  A    between atoms: C_4  and  N_5
REMARK    5  A    between atoms: C_6  and  S_7
REMARK    6  A    between atoms: S_7  and  C_8
REMARK    7  A    between atoms: C_8  and  C_9
REMARK    8  A    between atoms: N_11  and  C_12
REMARK    9  A    between atoms: C_16  and  O_17
REMARK   10  A    between atoms: O_17  and  C_18
REMARK                            x       y       z     vdW  Elec       q    Type
REMARK                         _______ _______ _______ _____ _____    ______ ____
ROOT
ATOM      1  N   UNL     1       1.946   7.860  20.021  0.00  0.00    +0.000 N 
ATOM      2  C   UNL     1       2.249   8.568  18.851  0.00  0.00    +0.000 A 
ATOM      3  N   UNL     1       2.951   8.126  17.841  0.00  0.00    +0.000 NA
ATOM      4  C   UNL     1       3.417   6.801  17.986  0.00  0.00    +0.000 A 
ATOM      5  C   UNL     1       3.071   6.035  19.057  0.00  0.00    +0.000 A 
ATOM      6  S   UNL     1       3.768   4.501  19.037  0.00  0.00    +0.000 S 
ATOM      7  C   UNL     1       4.560   4.822  17.542  0.00  0.00    +0.000 A 
ATOM      8  C   UNL     1       5.390   3.925  16.845  0.00  0.00    +0.000 A 
ATOM      9  C   UNL     1       5.942   4.328  15.632  0.00  0.00    +0.000 A 
ATOM     10  C   UNL     1       5.680   5.595  15.127  0.00  0.00    +0.000 A 
ATOM     11  C   UNL     1       4.861   6.491  15.829  0.00  0.00    +0.000 A 
ATOM     12  C   UNL     1       4.280   6.114  17.067  0.00  0.00    +0.000 A 
ATOM     13  C   UNL     1       2.234   6.494  20.113  0.00  0.00    +0.000 A 
ATOM     14  O   UNL     1       1.810   5.773  21.017  0.00  0.00    +0.000 OA
ENDROOT
BRANCH   1  15
ATOM     15  C   UNL     1       1.350   8.436  21.239  0.00  0.00    +0.000 C 
BRANCH  15  16
ATOM     16  C   UNL     1      -0.190   8.461  21.182  0.00  0.00    +0.000 C 
BRANCH  16  18
ATOM     17  C   UNL     1       0.035   9.500  23.465  0.00  0.00    +0.000 C 
ATOM     18  C   UNL     1      -0.812   9.413  22.205  0.00  0.00    +0.000 C 
ENDBRANCH  16  18
ENDBRANCH  15  16
ENDBRANCH   1  15
BRANCH   2  19
ATOM     19  S   UNL     1       1.545  10.177  18.733  0.00  0.00    +0.000 S 
BRANCH  19  20
ATOM     20  C   UNL     1      -0.066   9.921  17.972  0.00  0.00    +0.000 C 
BRANCH  20  21
ATOM     21  C   UNL     1      -1.002  11.085  18.226  0.00  0.00    +0.000 C 
ATOM     22  O   UNL     1      -0.559  12.231  18.272  0.00  0.00    +0.000 OA
ATOM     23  N   UNL     1      -2.319  10.710  18.444  0.00  0.00    +0.000 N 
ATOM     24  H   UNL     1      -2.502   9.709  18.499  0.00  0.00    +0.000 HD
BRANCH  23  25
ATOM     25  C   UNL     1      -3.400  11.572  18.721  0.00  0.00    +0.000 A 
ATOM     26  C   UNL     1      -3.448  12.377  19.861  0.00  0.00    +0.000 A 
ATOM     27  C   UNL     1      -4.578  13.137  20.143  0.00  0.00    +0.000 A 
ATOM     28  C   UNL     1      -5.667  13.104  19.278  0.00  0.00    +0.000 A 
ATOM     29  C   UNL     1      -5.624  12.340  18.111  0.00  0.00    +0.000 A 
ATOM     30  C   UNL     1      -4.478  11.594  17.820  0.00  0.00    +0.000 A 
BRANCH  29  31
ATOM     31  O   UNL     1      -6.774  12.397  17.373  0.00  0.00    +0.000 OA
ATOM     32  C   UNL     1      -7.561  13.576  17.457  0.00  0.00    +0.000 C 
ENDBRANCH  29  31
ENDBRANCH  23  25
ENDBRANCH  20  21
ENDBRANCH  19  20
ENDBRANCH   2  19
TORSDOF 8
ENDMDL
MODEL 6
REMARK VINA RESULT:      -6.9      6.016     10.457
REMARK  Name = 
REMARK  10 active torsions:
REMARK  status: ('A' for Active; 'I' for Inactive)
REMARK    1  A    between atoms: C_1  and  C_2
REMARK    2  A    between atoms: C_2  and  C_3
REMARK    3  A    between atoms: C_3  and  C_4
REMARK    4  A    between atoms: C_4  and  N_5
REMARK    5  A    between atoms: C_6  and  S_7
REMARK    6  A    between atoms: S_7  and  C_8
REMARK    7  A    between atoms: C_8  and  C_9
REMARK    8  A    between atoms: N_11  and  C_12
REMARK    9  A    between atoms: C_16  and  O_17
REMARK   10  A    between atoms: O_17  and  C_18
REMARK                            x       y       z     vdW  Elec       q    Type
REMARK                         _______ _______ _______ _____ _____    ______ ____
ROOT
ATOM      1  N   UNL     1      -0.079  11.321  18.903  0.00  0.00    +0.000 N 
ATOM      2  C   UNL     1       1.204  11.003  18.444  0.00  0.00    +0.000 A 
ATOM      3  N   UNL     1       2.208  11.832  18.321  0.00  0.00    +0.000 NA
ATOM      4  C   UNL     1       1.923  13.159  18.710  0.00  0.00    +0.000 A 
ATOM      5  C   UNL     1       0.724  13.502  19.254  0.00  0.00    +0.000 A 
ATOM      6  S   UNL     1       0.595  15.144  19.612  0.00  0.00    +0.000 S 
ATOM      7  C   UNL     1       2.195  15.446  19.050  0.00  0.00    +0.000 A 
ATOM      8  C   UNL     1       2.838  16.697  19.041  0.00  0.00    +0.000 A 
ATOM      9  C   UNL     1       4.147  16.775  18.573  0.00  0.00    +0.000 A 
ATOM     10  C   UNL     1       4.799  15.635  18.118  0.00  0.00    +0.000 A 
ATOM     11  C   UNL     1       4.152  14.392  18.118  0.00  0.00    +0.000 A 
ATOM     12  C   UNL     1       2.819  14.275  18.590  0.00  0.00    +0.000 A 
ATOM     13  C   UNL     1      -0.336  12.576  19.466  0.00  0.00    +0.000 A 
ATOM     14  O   UNL     1      -1.374  12.846  20.073  0.00  0.00    +0.000 OA
ENDROOT
BRANCH   1  15
ATOM     15  C   UNL     1      -1.257  10.440  18.828  0.00  0.00    +0.000 C 
BRANCH  15  16
ATOM     16  C   UNL     1      -1.992  10.556  17.478  0.00  0.00    +0.000 C 
BRANCH  16  18
ATOM     17  C   UNL     1      -4.127  11.150  16.283  0.00  0.00    +0.000 C 
ATOM     18  C   UNL     1      -3.369  11.212  17.600  0.00  0.00    +0.000 C 
ENDBRANCH  16  18
ENDBRANCH  15  16
ENDBRANCH   1  15
BRANCH   2  19
ATOM     19  S   UNL     1       1.478   9.305  18.071  0.00  0.00    +0.000 S 
BRANCH  19  20
ATOM     20  C   UNL     1       1.839   8.536  19.659  0.00  0.00    +0.000 C 
BRANCH  20  21
ATOM     21  C   UNL     1       2.176   7.066  19.510  0.00  0.00    +0.000 C 
ATOM     22  O   UNL     1       2.142   6.326  20.491  0.00  0.00    +0.000 OA
ATOM     23  N   UNL     1       2.560   6.705  18.228  0.00  0.00    +0.000 N 
ATOM     24  H   UNL     1       2.661   7.462  17.555  0.00  0.00    +0.000 HD
BRANCH  23  25
ATOM     25  C   UNL     1       2.945   5.417  17.802  0.00  0.00    +0.000 A 
ATOM     26  C   UNL     1       2.114   4.302  17.929  0.00  0.00    +0.000 A 
ATOM     27  C   UNL     1       2.573   3.035  17.585  0.00  0.00    +0.000 A 
ATOM     28  C   UNL     1       3.868   2.876  17.102  0.00  0.00    +0.000 A 
ATOM     29  C   UNL     1       4.701   3.982  16.926  0.00  0.00    +0.000 A 
ATOM     30  C   UNL     1       4.228   5.257  17.252  0.00  0.00    +0.000 A 
BRANCH  29  31
ATOM     31  O   UNL     1       5.946   3.665  16.459  0.00  0.00    +0.000 OA
ATOM     32  C   UNL     1       6.959   4.657  16.540  0.00  0.00    +0.000 C 
ENDBRANCH  29  31
ENDBRANCH  23  25
ENDBRANCH  20  21
ENDBRANCH  19  20
ENDBRANCH   2  19
TORSDOF 8
ENDMDL
MODEL 7
REMARK VINA RESULT:      -6.9      8.069     11.661
REMARK  Name = 
REMARK  10 active torsions:
REMARK  status: ('A' for Active; 'I' for Inactive)
REMARK    1  A    between atoms: C_1  and  C_2
REMARK    2  A    between atoms: C_2  and  C_3
REMARK    3  A    between atoms: C_3  and  C_4
REMARK    4  A    between atoms: C_4  and  N_5
REMARK    5  A    between atoms: C_6  and  S_7
REMARK    6  A    between atoms: S_7  and  C_8
REMARK    7  A    between atoms: C_8  and  C_9
REMARK    8  A    between atoms: N_11  and  C_12
REMARK    9  A    between atoms: C_16  and  O_17
REMARK   10  A    between atoms: O_17  and  C_18
REMARK                            x       y       z     vdW  Elec       q    Type
REMARK                         _______ _______ _______ _____ _____    ______ ____
ROOT
ATOM      1  N   UNL     1      -3.025  12.613  21.625  0.00  0.00    +0.000 N 
ATOM      2  C   UNL     1      -1.845  12.006  21.181  0.00  0.00    +0.000 A 
ATOM      3  N   UNL     1      -1.646  11.474  20.003  0.00  0.00    +0.000 NA
ATOM      4  C   UNL     1      -2.752  11.555  19.129  0.00  0.00    +0.000 A 
ATOM      5  C   UNL     1      -3.889  12.221  19.474  0.00  0.00    +0.000 A 
ATOM      6  S   UNL     1      -5.087  12.159  18.292  0.00  0.00    +0.000 S 
ATOM      7  C   UNL     1      -4.083  11.230  17.246  0.00  0.00    +0.000 A 
ATOM      8  C   UNL     1      -4.437  10.770  15.965  0.00  0.00    +0.000 A 
ATOM      9  C   UNL     1      -3.501  10.046  15.231  0.00  0.00    +0.000 A 
ATOM     10  C   UNL     1      -2.244   9.781  15.761  0.00  0.00    +0.000 A 
ATOM     11  C   UNL     1      -1.898  10.232  17.042  0.00  0.00    +0.000 A 
ATOM     12  C   UNL     1      -2.825  10.974  17.818  0.00  0.00    +0.000 A 
ATOM     13  C   UNL     1      -4.067  12.872  20.728  0.00  0.00    +0.000 A 
ATOM     14  O   UNL     1      -5.035  13.583  21.002  0.00  0.00    +0.000 OA
ENDROOT
BRANCH   1  15
ATOM     15  C   UNL     1      -3.314  13.006  23.016  0.00  0.00    +0.000 C 
BRANCH  15  16
ATOM     16  C   UNL     1      -2.850  14.442  23.327  0.00  0.00    +0.000 C 
BRANCH  16  18
ATOM     17  C   UNL     1      -3.179  16.003  25.276  0.00  0.00    +0.000 C 
ATOM     18  C   UNL     1      -3.863  15.233  24.157  0.00  0.00    +0.000 C 
ENDBRANCH  16  18
ENDBRANCH  15  16
ENDBRANCH   1  15
BRANCH   2  19
ATOM     19  S   UNL     1      -0.500  12.038  22.315  0.00  0.00    +0.000 S 
BRANCH  19  20
ATOM     20  C   UNL     1      -0.350  10.343  22.902  0.00  0.00    +0.000 C 
BRANCH  20  21
ATOM     21  C   UNL     1       0.767   9.598  22.198  0.00  0.00    +0.000 C 
ATOM     22  O   UNL     1       1.818   9.363  22.790  0.00  0.00    +0.000 OA
ATOM     23  N   UNL     1       0.491   9.294  20.874  0.00  0.00    +0.000 N 
ATOM     24  H   UNL     1      -0.375   9.672  20.493  0.00  0.00    +0.000 HD
BRANCH  23  25
ATOM     25  C   UNL     1       1.345   8.626  19.973  0.00  0.00    +0.000 A 
ATOM     26  C   UNL     1       1.750   9.188  18.760  0.00  0.00    +0.000 A 
ATOM     27  C   UNL     1       2.514   8.454  17.860  0.00  0.00    +0.000 A 
ATOM     28  C   UNL     1       2.886   7.150  18.171  0.00  0.00    +0.000 A 
ATOM     29  C   UNL     1       2.530   6.584  19.395  0.00  0.00    +0.000 A 
ATOM     30  C   UNL     1       1.781   7.333  20.308  0.00  0.00    +0.000 A 
BRANCH  29  31
ATOM     31  O   UNL     1       2.955   5.293  19.550  0.00  0.00    +0.000 OA
ATOM     32  C   UNL     1       2.076   4.374  20.180  0.00  0.00    +0.000 C 
ENDBRANCH  29  31
ENDBRANCH  23  25
ENDBRANCH  20  21
ENDBRANCH  19  20
ENDBRANCH   2  19
TORSDOF 8
ENDMDL
MODEL 8
REMARK VINA RESULT:      -6.8      5.760      8.585
REMARK  Name = 
REMARK  10 active torsions:
REMARK  status: ('A' for Active; 'I' for Inactive)
REMARK    1  A    between atoms: C_1  and  C_2
REMARK    2  A    between atoms: C_2  and  C_3
REMARK    3  A    between atoms: C_3  and  C_4
REMARK    4  A    between atoms: C_4  and  N_5
REMARK    5  A    between atoms: C_6  and  S_7
REMARK    6  A    between atoms: S_7  and  C_8
REMARK    7  A    between atoms: C_8  and  C_9
REMARK    8  A    between atoms: N_11  and  C_12
REMARK    9  A    between atoms: C_16  and  O_17
REMARK   10  A    between atoms: O_17  and  C_18
REMARK                            x       y       z     vdW  Elec       q    Type
REMARK                         _______ _______ _______ _____ _____    ______ ____
ROOT
ATOM      1  N   UNL     1       1.739   7.536  19.744  0.00  0.00    +0.000 N 
ATOM      2  C   UNL     1       2.011   8.183  18.533  0.00  0.00    +0.000 A 
ATOM      3  N   UNL     1       2.905   7.823  17.650  0.00  0.00    +0.000 NA
ATOM      4  C   UNL     1       3.632   6.661  17.990  0.00  0.00    +0.000 A 
ATOM      5  C   UNL     1       3.342   5.939  19.107  0.00  0.00    +0.000 A 
ATOM      6  S   UNL     1       4.357   4.613  19.331  0.00  0.00    +0.000 S 
ATOM      7  C   UNL     1       5.227   4.968  17.887  0.00  0.00    +0.000 A 
ATOM      8  C   UNL     1       6.309   4.228  17.379  0.00  0.00    +0.000 A 
ATOM      9  C   UNL     1       6.895   4.632  16.182  0.00  0.00    +0.000 A 
ATOM     10  C   UNL     1       6.420   5.752  15.510  0.00  0.00    +0.000 A 
ATOM     11  C   UNL     1       5.348   6.495  16.025  0.00  0.00    +0.000 A 
ATOM     12  C   UNL     1       4.725   6.110  17.240  0.00  0.00    +0.000 A 
ATOM     13  C   UNL     1       2.308   6.288  20.021  0.00  0.00    +0.000 A 
ATOM     14  O   UNL     1       1.952   5.576  20.961  0.00  0.00    +0.000 OA
ENDROOT
BRANCH   1  15
ATOM     15  C   UNL     1       0.893   8.068  20.827  0.00  0.00    +0.000 C 
BRANCH  15  16
ATOM     16  C   UNL     1       1.690   8.938  21.818  0.00  0.00    +0.000 C 
BRANCH  16  18
ATOM     17  C   UNL     1      -0.649   9.265  22.693  0.00  0.00    +0.000 C 
ATOM     18  C   UNL     1       0.832   9.481  22.963  0.00  0.00    +0.000 C 
ENDBRANCH  16  18
ENDBRANCH  15  16
ENDBRANCH   1  15
BRANCH   2  19
ATOM     19  S   UNL     1       0.987   9.566  18.164  0.00  0.00    +0.000 S 
BRANCH  19  20
ATOM     20  C   UNL     1       2.018  11.004  18.498  0.00  0.00    +0.000 C 
BRANCH  20  21
ATOM     21  C   UNL     1       1.239  12.110  19.180  0.00  0.00    +0.000 C 
ATOM     22  O   UNL     1       1.596  13.280  19.058  0.00  0.00    +0.000 OA
ATOM     23  N   UNL     1       0.182  11.657  19.955  0.00  0.00    +0.000 N 
ATOM     24  H   UNL     1       0.095  10.647  20.056  0.00  0.00    +0.000 HD
BRANCH  23  25
ATOM     25  C   UNL     1      -0.700  12.453  20.715  0.00  0.00    +0.000 A 
ATOM     26  C   UNL     1      -1.971  12.812  20.261  0.00  0.00    +0.000 A 
ATOM     27  C   UNL     1      -2.768  13.678  21.001  0.00  0.00    +0.000 A 
ATOM     28  C   UNL     1      -2.301  14.186  22.209  0.00  0.00    +0.000 A 
ATOM     29  C   UNL     1      -1.052  13.807  22.702  0.00  0.00    +0.000 A 
ATOM     30  C   UNL     1      -0.262  12.918  21.966  0.00  0.00    +0.000 A 
BRANCH  29  31
ATOM     31  O   UNL     1      -0.726  14.400  23.891  0.00  0.00    +0.000 OA
ATOM     32  C   UNL     1      -1.466  15.545  24.288  0.00  0.00    +0.000 C 
ENDBRANCH  29  31
ENDBRANCH  23  25
ENDBRANCH  20  21
ENDBRANCH  19  20
ENDBRANCH   2  19
TORSDOF 8
ENDMDL
MODEL 9
REMARK VINA RESULT:      -6.8      6.108      9.213
REMARK  Name = 
REMARK  10 active torsions:
REMARK  status: ('A' for Active; 'I' for Inactive)
REMARK    1  A    between atoms: C_1  and  C_2
REMARK    2  A    between atoms: C_2  and  C_3
REMARK    3  A    between atoms: C_3  and  C_4
REMARK    4  A    between atoms: C_4  and  N_5
REMARK    5  A    between atoms: C_6  and  S_7
REMARK    6  A    between atoms: S_7  and  C_8
REMARK    7  A    between atoms: C_8  and  C_9
REMARK    8  A    between atoms: N_11  and  C_12
REMARK    9  A    between atoms: C_16  and  O_17
REMARK   10  A    between atoms: O_17  and  C_18
REMARK                            x       y       z     vdW  Elec       q    Type
REMARK                         _______ _______ _______ _____ _____    ______ ____
ROOT
ATOM      1  N   UNL     1       1.935   7.931  19.923  0.00  0.00    +0.000 N 
ATOM      2  C   UNL     1       2.254   8.617  18.746  0.00  0.00    +0.000 A 
ATOM      3  N   UNL     1       2.960   8.152  17.749  0.00  0.00    +0.000 NA
ATOM      4  C   UNL     1       3.411   6.825  17.918  0.00  0.00    +0.000 A 
ATOM      5  C   UNL     1       3.048   6.079  18.997  0.00  0.00    +0.000 A 
ATOM      6  S   UNL     1       3.729   4.538  19.007  0.00  0.00    +0.000 S 
ATOM      7  C   UNL     1       4.537   4.828  17.514  0.00  0.00    +0.000 A 
ATOM      8  C   UNL     1       5.364   3.912  16.838  0.00  0.00    +0.000 A 
ATOM      9  C   UNL     1       5.930   4.290  15.624  0.00  0.00    +0.000 A 
ATOM     10  C   UNL     1       5.684   5.552  15.096  0.00  0.00    +0.000 A 
ATOM     11  C   UNL     1       4.869   6.466  15.778  0.00  0.00    +0.000 A 
ATOM     12  C   UNL     1       4.274   6.115  17.016  0.00  0.00    +0.000 A 
ATOM     13  C   UNL     1       2.207   6.564  20.039  0.00  0.00    +0.000 A 
ATOM     14  O   UNL     1       1.769   5.861  20.951  0.00  0.00    +0.000 OA
ENDROOT
BRANCH   1  15
ATOM     15  C   UNL     1       1.334   8.531  21.127  0.00  0.00    +0.000 C 
BRANCH  15  16
ATOM     16  C   UNL     1      -0.184   8.284  21.211  0.00  0.00    +0.000 C 
BRANCH  16  18
ATOM     17  C   UNL     1      -0.012   9.886  23.146  0.00  0.00    +0.000 C 
ATOM     18  C   UNL     1      -0.792   8.728  22.543  0.00  0.00    +0.000 C 
ENDBRANCH  16  18
ENDBRANCH  15  16
ENDBRANCH   1  15
BRANCH   2  19
ATOM     19  S   UNL     1       1.568  10.231  18.597  0.00  0.00    +0.000 S 
BRANCH  19  20
ATOM     20  C   UNL     1      -0.099   9.968  17.972  0.00  0.00    +0.000 C 
BRANCH  20  21
ATOM     21  C   UNL     1      -1.112  10.848  18.675  0.00  0.00    +0.000 C 
ATOM     22  O   UNL     1      -2.242  10.978  18.210  0.00  0.00    +0.000 OA
ATOM     23  N   UNL     1      -0.613  11.491  19.798  0.00  0.00    +0.000 N 
ATOM     24  H   UNL     1       0.382  11.379  19.979  0.00  0.00    +0.000 HD
BRANCH  23  25
ATOM     25  C   UNL     1      -1.318  12.380  20.636  0.00  0.00    +0.000 A 
ATOM     26  C   UNL     1      -0.914  13.701  20.841  0.00  0.00    +0.000 A 
ATOM     27  C   UNL     1      -1.583  14.512  21.751  0.00  0.00    +0.000 A 
ATOM     28  C   UNL     1      -2.670  14.008  22.458  0.00  0.00    +0.000 A 
ATOM     29  C   UNL     1      -3.117  12.704  22.237  0.00  0.00    +0.000 A 
ATOM     30  C   UNL     1      -2.456  11.898  21.305  0.00  0.00    +0.000 A 
BRANCH  29  31
ATOM     31  O   UNL     1      -4.183  12.348  23.017  0.00  0.00    +0.000 OA
ATOM     32  C   UNL     1      -4.104  12.606  24.411  0.00  0.00    +0.000 C 
ENDBRANCH  29  31
ENDBRANCH  23  25
ENDBRANCH  20  21
ENDBRANCH  19  20
ENDBRANCH   2  19
TORSDOF 8
ENDMDL
