MODEL 1
REMARK VINA RESULT:      -7.8      0.000      0.000
REMARK  Name = 
REMARK  10 active torsions:
REMARK  status: ('A' for Active; 'I' for Inactive)
REMARK    1  A    between atoms: C_1  and  O_2
REMARK    2  A    between atoms: O_2  and  C_3
REMARK    3  A    between atoms: C_3  and  C_4
REMARK    4  A    between atoms: C_4  and  N_5
REMARK    5  A    between atoms: C_7  and  C_8
REMARK    6  A    between atoms: N_13  and  C_14
REMARK    7  A    between atoms: C_17  and  O_18
REMARK    8  A    between atoms: O_18  and  C_19
REMARK    9  A    between atoms: C_22  and  O_23
REMARK   10  A    between atoms: O_23  and  C_24
REMARK                            x       y       z     vdW  Elec       q    Type
REMARK                         _______ _______ _______ _____ _____    ______ ____
ROOT
ATOM      1  C   UNL     1       2.204   5.107  20.386  0.00  0.00    +0.000 A 
ATOM      2  C   UNL     1       1.486   4.134  21.045  0.00  0.00    +0.000 A 
ATOM      3  C   UNL     1       2.050   2.884  21.051  0.00  0.00    +0.000 A 
ATOM      4  N   UNL     1       3.224   2.591  20.469  0.00  0.00    +0.000 NA
ATOM      5  C   UNL     1       3.829   3.576  19.802  0.00  0.00    +0.000 A 
ATOM      6  N   UNL     1       5.073   3.294  19.210  0.00  0.00    +0.000 N 
ATOM      7  N   UNL     1       3.357   4.828  19.748  0.00  0.00    +0.000 NA
ATOM      8  H   UNL     1       5.724   3.380  19.978  0.00  0.00    +0.000 HD
ENDROOT
BRANCH   1  11
ATOM      9  N   UNL     1       1.215   8.498  21.285  0.00  0.00    +0.000 N 
ATOM     10  C   UNL     1       1.350   7.163  21.565  0.00  0.00    +0.000 A 
ATOM     11  C   UNL     1       1.817   6.519  20.432  0.00  0.00    +0.000 A 
ATOM     12  C   UNL     1       1.900   7.517  19.400  0.00  0.00    +0.000 A 
ATOM     13  C   UNL     1       2.271   7.498  18.035  0.00  0.00    +0.000 A 
ATOM     14  C   UNL     1       2.303   8.686  17.297  0.00  0.00    +0.000 A 
ATOM     15  C   UNL     1       1.992   9.896  17.901  0.00  0.00    +0.000 A 
ATOM     16  C   UNL     1       1.629   9.950  19.248  0.00  0.00    +0.000 A 
ATOM     17  C   UNL     1       1.569   8.750  19.975  0.00  0.00    +0.000 A 
BRANCH   9  18
ATOM     18  C   UNL     1       0.836   9.505  22.260  0.00  0.00    +0.000 C 
BRANCH  18  19
ATOM     19  C   UNL     1      -0.554   9.294  22.849  0.00  0.00    +0.000 C 
BRANCH  19  21
ATOM     20  C   UNL     1      -0.813  11.611  22.503  0.00  0.00    +0.000 C 
ATOM     21  O   UNL     1      -1.010  10.530  23.408  0.00  0.00    +0.000 OA
ENDBRANCH  19  21
ENDBRANCH  18  19
ENDBRANCH   9  18
ENDBRANCH   1  11
BRANCH   6  22
ATOM     22  C   UNL     1       5.568   3.959  18.057  0.00  0.00    +0.000 A 
ATOM     23  C   UNL     1       5.249   3.439  16.788  0.00  0.00    +0.000 A 
ATOM     24  C   UNL     1       5.668   4.063  15.613  0.00  0.00    +0.000 A 
ATOM     25  C   UNL     1       6.460   5.205  15.668  0.00  0.00    +0.000 A 
ATOM     26  C   UNL     1       6.851   5.689  16.922  0.00  0.00    +0.000 A 
ATOM     27  F   UNL     1       7.643   6.771  17.013  0.00  0.00    +0.000 F 
ATOM     28  C   UNL     1       6.432   5.068  18.117  0.00  0.00    +0.000 A 
BRANCH  25  29
ATOM     29  O   UNL     1       6.756   5.721  14.435  0.00  0.00    +0.000 OA
ATOM     30  C   UNL     1       7.152   4.807  13.423  0.00  0.00    +0.000 C 
ENDBRANCH  25  29
BRANCH  28  31
ATOM     31  O   UNL     1       6.785   5.725  19.273  0.00  0.00    +0.000 OA
ATOM     32  C   UNL     1       8.115   5.536  19.742  0.00  0.00    +0.000 C 
ENDBRANCH  28  31
ENDBRANCH   6  22
TORSDOF 7
ENDMDL
MODEL 2
REMARK VINA RESULT:      -7.6      1.628      2.757
REMARK  Name = 
REMARK  10 active torsions:
REMARK  status: ('A' for Active; 'I' for Inactive)
REMARK    1  A    between atoms: C_1  and  O_2
REMARK    2  A    between atoms: O_2  and  C_3
REMARK    3  A    between atoms: C_3  and  C_4
REMARK    4  A    between atoms: C_4  and  N_5
REMARK    5  A    between atoms: C_7  and  C_8
REMARK    6  A    between atoms: N_13  and  C_14
REMARK    7  A    between atoms: C_17  and  O_18
REMARK    8  A    between atoms: O_18  and  C_19
REMARK    9  A    between atoms: C_22  and  O_23
REMARK   10  A    between atoms: O_23  and  C_24
REMARK                            x       y       z     vdW  Elec       q    Type
REMARK                         _______ _______ _______ _____ _____    ______ ____
ROOT
ATOM      1  C   UNL     1       2.186   6.015  20.009  0.00  0.00    +0.000 A 
ATOM      2  C   UNL     1       1.387   5.203  20.783  0.00  0.00    +0.000 A 
ATOM      3  C   UNL     1       1.862   3.933  20.995  0.00  0.00    +0.000 A 
ATOM      4  N   UNL     1       3.026   3.479  20.501  0.00  0.00    +0.000 NA
ATOM      5  C   UNL     1       3.712   4.309  19.714  0.00  0.00    +0.000 A 
ATOM      6  N   UNL     1       4.946   3.860  19.211  0.00  0.00    +0.000 N 
ATOM      7  N   UNL     1       3.331   5.567  19.458  0.00  0.00    +0.000 NA
ATOM      8  H   UNL     1       5.585   4.018  19.979  0.00  0.00    +0.000 HD
ENDROOT
BRANCH   1  11
ATOM      9  N   UNL     1       1.635   9.411  18.806  0.00  0.00    +0.000 N 
ATOM     10  C   UNL     1       2.148   8.147  18.669  0.00  0.00    +0.000 A 
ATOM     11  C   UNL     1       1.898   7.440  19.832  0.00  0.00    +0.000 A 
ATOM     12  C   UNL     1       1.260   8.356  20.738  0.00  0.00    +0.000 A 
ATOM     13  C   UNL     1       0.788   8.263  22.068  0.00  0.00    +0.000 A 
ATOM     14  C   UNL     1       0.142   9.351  22.665  0.00  0.00    +0.000 A 
ATOM     15  C   UNL     1      -0.060  10.524  21.952  0.00  0.00    +0.000 A 
ATOM     16  C   UNL     1       0.387  10.646  20.635  0.00  0.00    +0.000 A 
ATOM     17  C   UNL     1       1.062   9.561  20.052  0.00  0.00    +0.000 A 
BRANCH   9  18
ATOM     18  C   UNL     1       1.626  10.410  17.752  0.00  0.00    +0.000 C 
BRANCH  18  19
ATOM     19  C   UNL     1       2.544  11.596  18.024  0.00  0.00    +0.000 C 
BRANCH  19  21
ATOM     20  C   UNL     1       2.485  13.804  18.845  0.00  0.00    +0.000 C 
ATOM     21  O   UNL     1       1.742  12.764  18.220  0.00  0.00    +0.000 OA
ENDBRANCH  19  21
ENDBRANCH  18  19
ENDBRANCH   9  18
ENDBRANCH   1  11
BRANCH   6  22
ATOM     22  C   UNL     1       5.512   4.308  17.988  0.00  0.00    +0.000 A 
ATOM     23  C   UNL     1       5.151   3.652  16.797  0.00  0.00    +0.000 A 
ATOM     24  C   UNL     1       5.637   4.065  15.556  0.00  0.00    +0.000 A 
ATOM     25  C   UNL     1       6.539   5.120  15.470  0.00  0.00    +0.000 A 
ATOM     26  C   UNL     1       6.968   5.732  16.654  0.00  0.00    +0.000 A 
ATOM     27  F   UNL     1       7.862   6.734  16.612  0.00  0.00    +0.000 F 
ATOM     28  C   UNL     1       6.481   5.326  17.914  0.00  0.00    +0.000 A 
BRANCH  25  29
ATOM     29  O   UNL     1       6.892   5.431  14.185  0.00  0.00    +0.000 OA
ATOM     30  C   UNL     1       6.828   4.389  13.221  0.00  0.00    +0.000 C 
ENDBRANCH  25  29
BRANCH  28  31
ATOM     31  O   UNL     1       6.890   6.097  18.976  0.00  0.00    +0.000 OA
ATOM     32  C   UNL     1       8.016   5.636  19.713  0.00  0.00    +0.000 C 
ENDBRANCH  28  31
ENDBRANCH   6  22
TORSDOF 7
ENDMDL
MODEL 3
REMARK VINA RESULT:      -7.4      1.344      1.903
REMARK  Name = 
REMARK  10 active torsions:
REMARK  status: ('A' for Active; 'I' for Inactive)
REMARK    1  A    between atoms: C_1  and  O_2
REMARK    2  A    between atoms: O_2  and  C_3
REMARK    3  A    between atoms: C_3  and  C_4
REMARK    4  A    between atoms: C_4  and  N_5
REMARK    5  A    between atoms: C_7  and  C_8
REMARK    6  A    between atoms: N_13  and  C_14
REMARK    7  A    between atoms: C_17  and  O_18
REMARK    8  A    between atoms: O_18  and  C_19
REMARK    9  A    between atoms: C_22  and  O_23
REMARK   10  A    between atoms: O_23  and  C_24
REMARK                            x       y       z     vdW  Elec       q    Type
REMARK                         _______ _______ _______ _____ _____    ______ ____
ROOT
ATOM      1  C   UNL     1       2.276   5.042  20.496  0.00  0.00    +0.000 A 
ATOM      2  C   UNL     1       1.672   4.097  21.295  0.00  0.00    +0.000 A 
ATOM      3  C   UNL     1       2.372   2.928  21.461  0.00  0.00    +0.000 A 
ATOM      4  N   UNL     1       3.569   2.688  20.902  0.00  0.00    +0.000 NA
ATOM      5  C   UNL     1       4.059   3.632  20.096  0.00  0.00    +0.000 A 
ATOM      6  N   UNL     1       5.324   3.410  19.525  0.00  0.00    +0.000 N 
ATOM      7  N   UNL     1       3.451   4.806  19.882  0.00  0.00    +0.000 NA
ATOM      8  H   UNL     1       5.964   3.670  20.263  0.00  0.00    +0.000 HD
ENDROOT
BRANCH   1  11
ATOM      9  N   UNL     1       0.699   8.303  20.901  0.00  0.00    +0.000 N 
ATOM     10  C   UNL     1       0.899   7.001  21.280  0.00  0.00    +0.000 A 
ATOM     11  C   UNL     1       1.735   6.396  20.358  0.00  0.00    +0.000 A 
ATOM     12  C   UNL     1       1.992   7.375  19.335  0.00  0.00    +0.000 A 
ATOM     13  C   UNL     1       2.732   7.375  18.130  0.00  0.00    +0.000 A 
ATOM     14  C   UNL     1       2.837   8.542  17.366  0.00  0.00    +0.000 A 
ATOM     15  C   UNL     1       2.234   9.716  17.794  0.00  0.00    +0.000 A 
ATOM     16  C   UNL     1       1.503   9.753  18.983  0.00  0.00    +0.000 A 
ATOM     17  C   UNL     1       1.376   8.570  19.729  0.00  0.00    +0.000 A 
BRANCH   9  18
ATOM     18  C   UNL     1      -0.050   9.275  21.677  0.00  0.00    +0.000 C 
BRANCH  18  19
ATOM     19  C   UNL     1       0.351   9.326  23.147  0.00  0.00    +0.000 C 
BRANCH  19  21
ATOM     20  C   UNL     1      -1.225  11.056  22.869  0.00  0.00    +0.000 C 
ATOM     21  O   UNL     1      -0.341  10.408  23.777  0.00  0.00    +0.000 OA
ENDBRANCH  19  21
ENDBRANCH  18  19
ENDBRANCH   9  18
ENDBRANCH   1  11
BRANCH   6  22
ATOM     22  C   UNL     1       5.739   3.960  18.284  0.00  0.00    +0.000 A 
ATOM     23  C   UNL     1       6.861   4.809  18.263  0.00  0.00    +0.000 A 
ATOM     24  C   UNL     1       7.348   5.352  17.074  0.00  0.00    +0.000 A 
ATOM     25  C   UNL     1       6.701   5.100  15.869  0.00  0.00    +0.000 A 
ATOM     26  C   UNL     1       5.538   4.320  15.885  0.00  0.00    +0.000 A 
ATOM     27  F   UNL     1       4.867   4.082  14.744  0.00  0.00    +0.000 F 
ATOM     28  C   UNL     1       5.038   3.764  17.080  0.00  0.00    +0.000 A 
BRANCH  25  29
ATOM     29  O   UNL     1       7.320   5.668  14.789  0.00  0.00    +0.000 OA
ATOM     30  C   UNL     1       7.429   4.881  13.612  0.00  0.00    +0.000 C 
ENDBRANCH  25  29
BRANCH  28  31
ATOM     31  O   UNL     1       3.964   2.917  16.927  0.00  0.00    +0.000 OA
ATOM     32  C   UNL     1       2.668   3.500  16.993  0.00  0.00    +0.000 C 
ENDBRANCH  28  31
ENDBRANCH   6  22
TORSDOF 7
ENDMDL
MODEL 4
REMARK VINA RESULT:      -7.1      2.041      3.348
REMARK  Name = 
REMARK  10 active torsions:
REMARK  status: ('A' for Active; 'I' for Inactive)
REMARK    1  A    between atoms: C_1  and  O_2
REMARK    2  A    between atoms: O_2  and  C_3
REMARK    3  A    between atoms: C_3  and  C_4
REMARK    4  A    between atoms: C_4  and  N_5
REMARK    5  A    between atoms: C_7  and  C_8
REMARK    6  A    between atoms: N_13  and  C_14
REMARK    7  A    between atoms: C_17  and  O_18
REMARK    8  A    between atoms: O_18  and  C_19
REMARK    9  A    between atoms: C_22  and  O_23
REMARK   10  A    between atoms: O_23  and  C_24
REMARK                            x       y       z     vdW  Elec       q    Type
REMARK                         _______ _______ _______ _____ _____    ______ ____
ROOT
ATOM      1  C   UNL     1       2.192   6.042  20.167  0.00  0.00    +0.000 A 
ATOM      2  C   UNL     1       1.390   5.241  20.949  0.00  0.00    +0.000 A 
ATOM      3  C   UNL     1       1.880   3.986  21.209  0.00  0.00    +0.000 A 
ATOM      4  N   UNL     1       3.060   3.535  20.753  0.00  0.00    +0.000 NA
ATOM      5  C   UNL     1       3.749   4.352  19.954  0.00  0.00    +0.000 A 
ATOM      6  N   UNL     1       5.000   3.907  19.490  0.00  0.00    +0.000 N 
ATOM      7  N   UNL     1       3.354   5.595  19.653  0.00  0.00    +0.000 NA
ATOM      8  H   UNL     1       5.620   4.098  20.265  0.00  0.00    +0.000 HD
ENDROOT
BRANCH   1  11
ATOM      9  N   UNL     1       1.621   9.392  18.850  0.00  0.00    +0.000 N 
ATOM     10  C   UNL     1       2.159   8.134  18.765  0.00  0.00    +0.000 A 
ATOM     11  C   UNL     1       1.886   7.455  19.940  0.00  0.00    +0.000 A 
ATOM     12  C   UNL     1       1.206   8.386  20.800  0.00  0.00    +0.000 A 
ATOM     13  C   UNL     1       0.695   8.323  22.118  0.00  0.00    +0.000 A 
ATOM     14  C   UNL     1       0.013   9.416  22.663  0.00  0.00    +0.000 A 
ATOM     15  C   UNL     1      -0.186  10.564  21.911  0.00  0.00    +0.000 A 
ATOM     16  C   UNL     1       0.298  10.657  20.605  0.00  0.00    +0.000 A 
ATOM     17  C   UNL     1       1.008   9.568  20.074  0.00  0.00    +0.000 A 
BRANCH   9  18
ATOM     18  C   UNL     1       1.628  10.360  17.769  0.00  0.00    +0.000 C 
BRANCH  18  19
ATOM     19  C   UNL     1       2.540  11.555  18.021  0.00  0.00    +0.000 C 
BRANCH  19  21
ATOM     20  C   UNL     1       2.527  13.904  18.206  0.00  0.00    +0.000 C 
ATOM     21  O   UNL     1       1.734  12.723  18.197  0.00  0.00    +0.000 OA
ENDBRANCH  19  21
ENDBRANCH  18  19
ENDBRANCH   9  18
ENDBRANCH   1  11
BRANCH   6  22
ATOM     22  C   UNL     1       5.584   4.326  18.266  0.00  0.00    +0.000 A 
ATOM     23  C   UNL     1       6.672   5.218  18.307  0.00  0.00    +0.000 A 
ATOM     24  C   UNL     1       7.320   5.639  17.145  0.00  0.00    +0.000 A 
ATOM     25  C   UNL     1       6.870   5.219  15.898  0.00  0.00    +0.000 A 
ATOM     26  C   UNL     1       5.740   4.395  15.837  0.00  0.00    +0.000 A 
ATOM     27  F   UNL     1       5.258   3.995  14.648  0.00  0.00    +0.000 F 
ATOM     28  C   UNL     1       5.079   3.960  17.004  0.00  0.00    +0.000 A 
BRANCH  25  29
ATOM     29  O   UNL     1       7.630   5.685  14.860  0.00  0.00    +0.000 OA
ATOM     30  C   UNL     1       7.517   5.011  13.615  0.00  0.00    +0.000 C 
ENDBRANCH  25  29
BRANCH  28  31
ATOM     31  O   UNL     1       4.065   3.053  16.800  0.00  0.00    +0.000 OA
ATOM     32  C   UNL     1       2.734   3.554  16.842  0.00  0.00    +0.000 C 
ENDBRANCH  28  31
ENDBRANCH   6  22
TORSDOF 7
ENDMDL
MODEL 5
REMARK VINA RESULT:      -7.0      1.616      2.665
REMARK  Name = 
REMARK  10 active torsions:
REMARK  status: ('A' for Active; 'I' for Inactive)
REMARK    1  A    between atoms: C_1  and  O_2
REMARK    2  A    between atoms: O_2  and  C_3
REMARK    3  A    between atoms: C_3  and  C_4
REMARK    4  A    between atoms: C_4  and  N_5
REMARK    5  A    between atoms: C_7  and  C_8
REMARK    6  A    between atoms: N_13  and  C_14
REMARK    7  A    between atoms: C_17  and  O_18
REMARK    8  A    between atoms: O_18  and  C_19
REMARK    9  A    between atoms: C_22  and  O_23
REMARK   10  A    between atoms: O_23  and  C_24
REMARK                            x       y       z     vdW  Elec       q    Type
REMARK                         _______ _______ _______ _____ _____    ______ ____
ROOT
ATOM      1  C   UNL     1       2.159   5.913  20.099  0.00  0.00    +0.000 A 
ATOM      2  C   UNL     1       1.376   5.077  20.863  0.00  0.00    +0.000 A 
ATOM      3  C   UNL     1       1.876   3.815  21.061  0.00  0.00    +0.000 A 
ATOM      4  N   UNL     1       3.048   3.388  20.564  0.00  0.00    +0.000 NA
ATOM      5  C   UNL     1       3.718   4.240  19.786  0.00  0.00    +0.000 A 
ATOM      6  N   UNL     1       4.961   3.821  19.279  0.00  0.00    +0.000 N 
ATOM      7  N   UNL     1       3.313   5.493  19.544  0.00  0.00    +0.000 NA
ATOM      8  H   UNL     1       5.596   3.983  20.049  0.00  0.00    +0.000 HD
ENDROOT
BRANCH   1  11
ATOM      9  N   UNL     1       1.461   9.291  18.921  0.00  0.00    +0.000 N 
ATOM     10  C   UNL     1       1.967   8.029  18.746  0.00  0.00    +0.000 A 
ATOM     11  C   UNL     1       1.843   7.334  19.936  0.00  0.00    +0.000 A 
ATOM     12  C   UNL     1       1.294   8.256  20.893  0.00  0.00    +0.000 A 
ATOM     13  C   UNL     1       0.961   8.175  22.266  0.00  0.00    +0.000 A 
ATOM     14  C   UNL     1       0.371   9.266  22.913  0.00  0.00    +0.000 A 
ATOM     15  C   UNL     1       0.088  10.429  22.212  0.00  0.00    +0.000 A 
ATOM     16  C   UNL     1       0.397  10.539  20.855  0.00  0.00    +0.000 A 
ATOM     17  C   UNL     1       1.018   9.452  20.218  0.00  0.00    +0.000 A 
BRANCH   9  18
ATOM     18  C   UNL     1       1.337  10.278  17.864  0.00  0.00    +0.000 C 
BRANCH  18  19
ATOM     19  C   UNL     1      -0.056  10.886  17.753  0.00  0.00    +0.000 C 
BRANCH  19  21
ATOM     20  C   UNL     1      -2.307  10.189  17.804  0.00  0.00    +0.000 C 
ATOM     21  O   UNL     1      -0.983   9.855  17.402  0.00  0.00    +0.000 OA
ENDBRANCH  19  21
ENDBRANCH  18  19
ENDBRANCH   9  18
ENDBRANCH   1  11
BRANCH   6  22
ATOM     22  C   UNL     1       5.519   4.293  18.062  0.00  0.00    +0.000 A 
ATOM     23  C   UNL     1       5.151   3.659  16.860  0.00  0.00    +0.000 A 
ATOM     24  C   UNL     1       5.629   4.096  15.624  0.00  0.00    +0.000 A 
ATOM     25  C   UNL     1       6.528   5.154  15.552  0.00  0.00    +0.000 A 
ATOM     26  C   UNL     1       6.964   5.744  16.745  0.00  0.00    +0.000 A 
ATOM     27  F   UNL     1       7.857   6.748  16.717  0.00  0.00    +0.000 F 
ATOM     28  C   UNL     1       6.486   5.313  18.000  0.00  0.00    +0.000 A 
BRANCH  25  29
ATOM     29  O   UNL     1       6.873   5.490  14.271  0.00  0.00    +0.000 OA
ATOM     30  C   UNL     1       6.802   4.468  13.288  0.00  0.00    +0.000 C 
ENDBRANCH  25  29
BRANCH  28  31
ATOM     31  O   UNL     1       6.901   6.065  19.074  0.00  0.00    +0.000 OA
ATOM     32  C   UNL     1       8.068   5.624  19.759  0.00  0.00    +0.000 C 
ENDBRANCH  28  31
ENDBRANCH   6  22
TORSDOF 7
ENDMDL
MODEL 6
REMARK VINA RESULT:      -6.7      1.499      2.276
REMARK  Name = 
REMARK  10 active torsions:
REMARK  status: ('A' for Active; 'I' for Inactive)
REMARK    1  A    between atoms: C_1  and  O_2
REMARK    2  A    between atoms: O_2  and  C_3
REMARK    3  A    between atoms: C_3  and  C_4
REMARK    4  A    between atoms: C_4  and  N_5
REMARK    5  A    between atoms: C_7  and  C_8
REMARK    6  A    between atoms: N_13  and  C_14
REMARK    7  A    between atoms: C_17  and  O_18
REMARK    8  A    between atoms: O_18  and  C_19
REMARK    9  A    between atoms: C_22  and  O_23
REMARK   10  A    between atoms: O_23  and  C_24
REMARK                            x       y       z     vdW  Elec       q    Type
REMARK                         _______ _______ _______ _____ _____    ______ ____
ROOT
ATOM      1  C   UNL     1       1.834   5.616  20.278  0.00  0.00    +0.000 A 
ATOM      2  C   UNL     1       1.006   4.524  20.412  0.00  0.00    +0.000 A 
ATOM      3  C   UNL     1       1.607   3.302  20.246  0.00  0.00    +0.000 A 
ATOM      4  N   UNL     1       2.912   3.142  19.975  0.00  0.00    +0.000 NA
ATOM      5  C   UNL     1       3.634   4.251  19.805  0.00  0.00    +0.000 A 
ATOM      6  N   UNL     1       5.008   4.102  19.549  0.00  0.00    +0.000 N 
ATOM      7  N   UNL     1       3.135   5.485  19.955  0.00  0.00    +0.000 NA
ATOM      8  H   UNL     1       5.404   3.955  20.468  0.00  0.00    +0.000 HD
ENDROOT
BRANCH   1  11
ATOM      9  N   UNL     1       0.681   8.724  21.794  0.00  0.00    +0.000 N 
ATOM     10  C   UNL     1       0.880   7.368  21.817  0.00  0.00    +0.000 A 
ATOM     11  C   UNL     1       1.379   6.974  20.588  0.00  0.00    +0.000 A 
ATOM     12  C   UNL     1       1.415   8.152  19.764  0.00  0.00    +0.000 A 
ATOM     13  C   UNL     1       1.788   8.411  18.424  0.00  0.00    +0.000 A 
ATOM     14  C   UNL     1       1.763   9.718  17.925  0.00  0.00    +0.000 A 
ATOM     15  C   UNL     1       1.393  10.774  18.745  0.00  0.00    +0.000 A 
ATOM     16  C   UNL     1       1.027  10.555  20.074  0.00  0.00    +0.000 A 
ATOM     17  C   UNL     1       1.024   9.237  20.560  0.00  0.00    +0.000 A 
BRANCH   9  18
ATOM     18  C   UNL     1       0.253   9.508  22.939  0.00  0.00    +0.000 C 
BRANCH  18  19
ATOM     19  C   UNL     1      -0.917  10.439  22.641  0.00  0.00    +0.000 C 
BRANCH  19  21
ATOM     20  C   UNL     1      -1.647  12.670  22.845  0.00  0.00    +0.000 C 
ATOM     21  O   UNL     1      -0.583  11.757  23.086  0.00  0.00    +0.000 OA
ENDBRANCH  19  21
ENDBRANCH  18  19
ENDBRANCH   9  18
ENDBRANCH   1  11
BRANCH   6  22
ATOM     22  C   UNL     1       5.782   5.040  18.815  0.00  0.00    +0.000 A 
ATOM     23  C   UNL     1       6.912   5.611  19.429  0.00  0.00    +0.000 A 
ATOM     24  C   UNL     1       7.740   6.507  18.753  0.00  0.00    +0.000 A 
ATOM     25  C   UNL     1       7.439   6.898  17.453  0.00  0.00    +0.000 A 
ATOM     26  C   UNL     1       6.275   6.399  16.856  0.00  0.00    +0.000 A 
ATOM     27  F   UNL     1       5.935   6.779  15.613  0.00  0.00    +0.000 F 
ATOM     28  C   UNL     1       5.432   5.490  17.529  0.00  0.00    +0.000 A 
BRANCH  25  29
ATOM     29  O   UNL     1       8.365   7.749  16.912  0.00  0.00    +0.000 OA
ATOM     30  C   UNL     1       8.434   9.063  17.448  0.00  0.00    +0.000 C 
ENDBRANCH  25  29
BRANCH  28  31
ATOM     31  O   UNL     1       4.396   4.986  16.777  0.00  0.00    +0.000 OA
ATOM     32  C   UNL     1       4.667   3.820  16.007  0.00  0.00    +0.000 C 
ENDBRANCH  28  31
ENDBRANCH   6  22
TORSDOF 7
ENDMDL
MODEL 7
REMARK VINA RESULT:      -6.7      3.609      8.102
REMARK  Name = 
REMARK  10 active torsions:
REMARK  status: ('A' for Active; 'I' for Inactive)
REMARK    1  A    between atoms: C_1  and  O_2
REMARK    2  A    between atoms: O_2  and  C_3
REMARK    3  A    between atoms: C_3  and  C_4
REMARK    4  A    between atoms: C_4  and  N_5
REMARK    5  A    between atoms: C_7  and  C_8
REMARK    6  A    between atoms: N_13  and  C_14
REMARK    7  A    between atoms: C_17  and  O_18
REMARK    8  A    between atoms: O_18  and  C_19
REMARK    9  A    between atoms: C_22  and  O_23
REMARK   10  A    between atoms: O_23  and  C_24
REMARK                            x       y       z     vdW  Elec       q    Type
REMARK                         _______ _______ _______ _____ _____    ______ ____
ROOT
ATOM      1  C   UNL     1       1.198   8.647  20.545  0.00  0.00    +0.000 A 
ATOM      2  C   UNL     1       0.449   8.182  21.603  0.00  0.00    +0.000 A 
ATOM      3  C   UNL     1      -0.326   9.119  22.238  0.00  0.00    +0.000 A 
ATOM      4  N   UNL     1      -0.380  10.412  21.878  0.00  0.00    +0.000 NA
ATOM      5  C   UNL     1       0.419  10.794  20.881  0.00  0.00    +0.000 A 
ATOM      6  N   UNL     1       0.354  12.138  20.472  0.00  0.00    +0.000 N 
ATOM      7  N   UNL     1       1.202   9.949  20.198  0.00  0.00    +0.000 NA
ATOM      8  H   UNL     1      -0.456  12.161  19.867  0.00  0.00    +0.000 HD
ENDROOT
BRANCH   1  11
ATOM      9  N   UNL     1       3.302   7.067  18.024  0.00  0.00    +0.000 N 
ATOM     10  C   UNL     1       2.602   8.138  18.518  0.00  0.00    +0.000 A 
ATOM     11  C   UNL     1       1.944   7.742  19.669  0.00  0.00    +0.000 A 
ATOM     12  C   UNL     1       2.212   6.338  19.831  0.00  0.00    +0.000 A 
ATOM     13  C   UNL     1       1.817   5.359  20.772  0.00  0.00    +0.000 A 
ATOM     14  C   UNL     1       2.314   4.054  20.683  0.00  0.00    +0.000 A 
ATOM     15  C   UNL     1       3.214   3.714  19.683  0.00  0.00    +0.000 A 
ATOM     16  C   UNL     1       3.630   4.658  18.744  0.00  0.00    +0.000 A 
ATOM     17  C   UNL     1       3.104   5.958  18.820  0.00  0.00    +0.000 A 
BRANCH   9  18
ATOM     18  C   UNL     1       4.188   7.128  16.876  0.00  0.00    +0.000 C 
BRANCH  18  19
ATOM     19  C   UNL     1       5.663   6.976  17.231  0.00  0.00    +0.000 C 
BRANCH  19  21
ATOM     20  C   UNL     1       5.536   5.482  15.413  0.00  0.00    +0.000 C 
ATOM     21  O   UNL     1       6.352   6.417  16.109  0.00  0.00    +0.000 OA
ENDBRANCH  19  21
ENDBRANCH  18  19
ENDBRANCH   9  18
ENDBRANCH   1  11
BRANCH   6  22
ATOM     22  C   UNL     1       1.440  12.838  19.883  0.00  0.00    +0.000 A 
ATOM     23  C   UNL     1       1.745  12.597  18.530  0.00  0.00    +0.000 A 
ATOM     24  C   UNL     1       2.771  13.279  17.876  0.00  0.00    +0.000 A 
ATOM     25  C   UNL     1       3.559  14.193  18.568  0.00  0.00    +0.000 A 
ATOM     26  C   UNL     1       3.319  14.386  19.934  0.00  0.00    +0.000 A 
ATOM     27  F   UNL     1       4.080  15.237  20.641  0.00  0.00    +0.000 F 
ATOM     28  C   UNL     1       2.282  13.705  20.604  0.00  0.00    +0.000 A 
BRANCH  25  29
ATOM     29  O   UNL     1       4.496  14.808  17.782  0.00  0.00    +0.000 OA
ATOM     30  C   UNL     1       5.841  14.366  17.906  0.00  0.00    +0.000 C 
ENDBRANCH  25  29
BRANCH  28  31
ATOM     31  O   UNL     1       2.079  14.086  21.910  0.00  0.00    +0.000 OA
ATOM     32  C   UNL     1       1.179  15.164  22.135  0.00  0.00    +0.000 C 
ENDBRANCH  28  31
ENDBRANCH   6  22
TORSDOF 7
ENDMDL
MODEL 8
REMARK VINA RESULT:      -6.7      3.534      7.861
REMARK  Name = 
REMARK  10 active torsions:
REMARK  status: ('A' for Active; 'I' for Inactive)
REMARK    1  A    between atoms: C_1  and  O_2
REMARK    2  A    between atoms: O_2  and  C_3
REMARK    3  A    between atoms: C_3  and  C_4
REMARK    4  A    between atoms: C_4  and  N_5
REMARK    5  A    between atoms: C_7  and  C_8
REMARK    6  A    between atoms: N_13  and  C_14
REMARK    7  A    between atoms: C_17  and  O_18
REMARK    8  A    between atoms: O_18  and  C_19
REMARK    9  A    between atoms: C_22  and  O_23
REMARK   10  A    between atoms: O_23  and  C_24
REMARK                            x       y       z     vdW  Elec       q    Type
REMARK                         _______ _______ _______ _____ _____    ______ ____
ROOT
ATOM      1  C   UNL     1       1.739   7.866  19.872  0.00  0.00    +0.000 A 
ATOM      2  C   UNL     1       1.119   7.198  20.904  0.00  0.00    +0.000 A 
ATOM      3  C   UNL     1       0.277   7.954  21.679  0.00  0.00    +0.000 A 
ATOM      4  N   UNL     1       0.043   9.260  21.472  0.00  0.00    +0.000 NA
ATOM      5  C   UNL     1       0.725   9.847  20.487  0.00  0.00    +0.000 A 
ATOM      6  N   UNL     1       0.472  11.207  20.238  0.00  0.00    +0.000 N 
ATOM      7  N   UNL     1       1.562   9.187  19.675  0.00  0.00    +0.000 NA
ATOM      8  H   UNL     1      -0.371  11.191  19.680  0.00  0.00    +0.000 HD
ENDROOT
BRANCH   1  11
ATOM      9  N   UNL     1       4.180   6.762  17.401  0.00  0.00    +0.000 N 
ATOM     10  C   UNL     1       3.577   7.735  18.155  0.00  0.00    +0.000 A 
ATOM     11  C   UNL     1       2.534   7.164  18.862  0.00  0.00    +0.000 A 
ATOM     12  C   UNL     1       2.470   5.786  18.454  0.00  0.00    +0.000 A 
ATOM     13  C   UNL     1       1.627   4.697  18.779  0.00  0.00    +0.000 A 
ATOM     14  C   UNL     1       1.873   3.430  18.239  0.00  0.00    +0.000 A 
ATOM     15  C   UNL     1       2.956   3.225  17.396  0.00  0.00    +0.000 A 
ATOM     16  C   UNL     1       3.811   4.276  17.062  0.00  0.00    +0.000 A 
ATOM     17  C   UNL     1       3.541   5.552  17.583  0.00  0.00    +0.000 A 
BRANCH   9  18
ATOM     18  C   UNL     1       5.371   6.969  16.598  0.00  0.00    +0.000 C 
BRANCH  18  19
ATOM     19  C   UNL     1       6.672   6.788  17.372  0.00  0.00    +0.000 C 
BRANCH  19  21
ATOM     20  C   UNL     1       8.036   8.646  17.866  0.00  0.00    +0.000 C 
ATOM     21  O   UNL     1       7.641   7.711  16.867  0.00  0.00    +0.000 OA
ENDBRANCH  19  21
ENDBRANCH  18  19
ENDBRANCH   9  18
ENDBRANCH   1  11
BRANCH   6  22
ATOM     22  C   UNL     1       1.425  12.101  19.681  0.00  0.00    +0.000 A 
ATOM     23  C   UNL     1       1.867  11.880  18.364  0.00  0.00    +0.000 A 
ATOM     24  C   UNL     1       2.771  12.741  17.740  0.00  0.00    +0.000 A 
ATOM     25  C   UNL     1       3.299  13.826  18.430  0.00  0.00    +0.000 A 
ATOM     26  C   UNL     1       2.928  14.013  19.768  0.00  0.00    +0.000 A 
ATOM     27  F   UNL     1       3.443  15.033  20.476  0.00  0.00    +0.000 F 
ATOM     28  C   UNL     1       2.013  13.152  20.408  0.00  0.00    +0.000 A 
BRANCH  25  29
ATOM     29  O   UNL     1       4.139  14.597  17.673  0.00  0.00    +0.000 OA
ATOM     30  C   UNL     1       5.531  14.500  17.941  0.00  0.00    +0.000 C 
ENDBRANCH  25  29
BRANCH  28  31
ATOM     31  O   UNL     1       1.644  13.530  21.678  0.00  0.00    +0.000 OA
ATOM     32  C   UNL     1       0.536  14.414  21.791  0.00  0.00    +0.000 C 
ENDBRANCH  28  31
ENDBRANCH   6  22
TORSDOF 7
ENDMDL
MODEL 9
REMARK VINA RESULT:      -6.6      4.479      7.096
REMARK  Name = 
REMARK  10 active torsions:
REMARK  status: ('A' for Active; 'I' for Inactive)
REMARK    1  A    between atoms: C_1  and  O_2
REMARK    2  A    between atoms: O_2  and  C_3
REMARK    3  A    between atoms: C_3  and  C_4
REMARK    4  A    between atoms: C_4  and  N_5
REMARK    5  A    between atoms: C_7  and  C_8
REMARK    6  A    between atoms: N_13  and  C_14
REMARK    7  A    between atoms: C_17  and  O_18
REMARK    8  A    between atoms: O_18  and  C_19
REMARK    9  A    between atoms: C_22  and  O_23
REMARK   10  A    between atoms: O_23  and  C_24
REMARK                            x       y       z     vdW  Elec       q    Type
REMARK                         _______ _______ _______ _____ _____    ______ ____
ROOT
ATOM      1  C   UNL     1      -0.922  10.460  19.947  0.00  0.00    +0.000 A 
ATOM      2  C   UNL     1      -1.106  11.324  21.003  0.00  0.00    +0.000 A 
ATOM      3  C   UNL     1      -0.207  11.203  22.032  0.00  0.00    +0.000 A 
ATOM      4  N   UNL     1       0.802  10.316  22.042  0.00  0.00    +0.000 NA
ATOM      5  C   UNL     1       0.877   9.476  21.008  0.00  0.00    +0.000 A 
ATOM      6  N   UNL     1       1.943   8.560  20.988  0.00  0.00    +0.000 N 
ATOM      7  N   UNL     1       0.049   9.526  19.957  0.00  0.00    +0.000 NA
ATOM      8  H   UNL     1       2.716   9.106  20.634  0.00  0.00    +0.000 HD
ENDROOT
BRANCH   1  11
ATOM      9  N   UNL     1      -2.343  10.194  16.601  0.00  0.00    +0.000 N 
ATOM     10  C   UNL     1      -1.331   9.998  17.505  0.00  0.00    +0.000 A 
ATOM     11  C   UNL     1      -1.695  10.576  18.709  0.00  0.00    +0.000 A 
ATOM     12  C   UNL     1      -2.967  11.211  18.489  0.00  0.00    +0.000 A 
ATOM     13  C   UNL     1      -3.841  11.978  19.295  0.00  0.00    +0.000 A 
ATOM     14  C   UNL     1      -5.068  12.414  18.786  0.00  0.00    +0.000 A 
ATOM     15  C   UNL     1      -5.450  12.081  17.494  0.00  0.00    +0.000 A 
ATOM     16  C   UNL     1      -4.614  11.319  16.675  0.00  0.00    +0.000 A 
ATOM     17  C   UNL     1      -3.370  10.911  17.182  0.00  0.00    +0.000 A 
BRANCH   9  18
ATOM     18  C   UNL     1      -2.358   9.647  15.257  0.00  0.00    +0.000 C 
BRANCH  18  19
ATOM     19  C   UNL     1      -3.513  10.153  14.401  0.00  0.00    +0.000 C 
BRANCH  19  21
ATOM     20  C   UNL     1      -4.477   9.850  12.272  0.00  0.00    +0.000 C 
ATOM     21  O   UNL     1      -3.283   9.770  13.042  0.00  0.00    +0.000 OA
ENDBRANCH  19  21
ENDBRANCH  18  19
ENDBRANCH   9  18
ENDBRANCH   1  11
BRANCH   6  22
ATOM     22  C   UNL     1       1.887   7.295  20.346  0.00  0.00    +0.000 A 
ATOM     23  C   UNL     1       1.281   6.220  21.022  0.00  0.00    +0.000 A 
ATOM     24  C   UNL     1       1.155   4.961  20.435  0.00  0.00    +0.000 A 
ATOM     25  C   UNL     1       1.673   4.722  19.167  0.00  0.00    +0.000 A 
ATOM     26  C   UNL     1       2.347   5.760  18.513  0.00  0.00    +0.000 A 
ATOM     27  F   UNL     1       2.889   5.557  17.300  0.00  0.00    +0.000 F 
ATOM     28  C   UNL     1       2.479   7.038  19.095  0.00  0.00    +0.000 A 
BRANCH  25  29
ATOM     29  O   UNL     1       1.436   3.453  18.712  0.00  0.00    +0.000 OA
ATOM     30  C   UNL     1       1.756   2.378  19.584  0.00  0.00    +0.000 C 
ENDBRANCH  25  29
BRANCH  28  31
ATOM     31  O   UNL     1       3.052   7.993  18.288  0.00  0.00    +0.000 OA
ATOM     32  C   UNL     1       2.168   8.811  17.530  0.00  0.00    +0.000 C 
ENDBRANCH  28  31
ENDBRANCH   6  22
TORSDOF 7
ENDMDL
