MODEL 1
REMARK VINA RESULT:      -7.8      0.000      0.000
REMARK  Name = 
REMARK  4 active torsions:
REMARK  status: ('A' for Active; 'I' for Inactive)
REMARK    1  A    between atoms: C_1  and  O_2
REMARK    2  A    between atoms: O_2  and  C_3
REMARK    3  A    between atoms: C_8  and  C_9
REMARK    4  A    between atoms: C_14  and  C_15
REMARK                            x       y       z     vdW  Elec       q    Type
REMARK                         _______ _______ _______ _____ _____    ______ ____
ROOT
ATOM      1  C   UNL     1       3.801   3.683  18.276  0.00  0.00    +0.000 C 
ATOM      2  O   UNL     1       3.347   3.359  17.182  0.00  0.00    +0.000 OA
ATOM      3  N   UNL     1       4.973   4.383  18.463  0.00  0.00    +0.000 N 
ATOM      4  C   UNL     1       5.751   4.747  17.398  0.00  0.00    +0.000 A 
ATOM      5  N   UNL     1       5.663   4.410  16.139  0.00  0.00    +0.000 NA
ATOM      6  C   UNL     1       6.690   5.030  15.423  0.00  0.00    +0.000 A 
ATOM      7  N   UNL     1       7.516   5.849  16.094  0.00  0.00    +0.000 NA
ATOM      8  S   UNL     1       7.051   5.805  17.700  0.00  0.00    +0.000 S 
ATOM      9  H   UNL     1       5.255   4.660  19.392  0.00  0.00    +0.000 HD
ENDROOT
BRANCH   1  15
ATOM     10  C   UNL     1       3.504   2.681  20.651  0.00  0.00    +0.000 A 
ATOM     11  C   UNL     1       2.619   2.395  21.705  0.00  0.00    +0.000 A 
ATOM     12  C   UNL     1       1.273   2.766  21.644  0.00  0.00    +0.000 A 
ATOM     13  C   UNL     1       0.785   3.421  20.523  0.00  0.00    +0.000 A 
ATOM     14  C   UNL     1       1.642   3.695  19.460  0.00  0.00    +0.000 A 
ATOM     15  C   UNL     1       3.006   3.327  19.501  0.00  0.00    +0.000 A 
BRANCH  10  17
ATOM     16  C   UNL     1       5.142   1.022  21.150  0.00  0.00    +0.000 C 
ATOM     17  O   UNL     1       4.835   2.336  20.680  0.00  0.00    +0.000 OA
ENDBRANCH  10  17
ENDBRANCH   1  15
BRANCH   6  18
ATOM     18  C   UNL     1       6.852   4.737  13.993  0.00  0.00    +0.000 A 
ATOM     19  C   UNL     1       6.134   3.685  13.401  0.00  0.00    +0.000 A 
ATOM     20  C   UNL     1       6.314   3.362  12.052  0.00  0.00    +0.000 A 
ATOM     21  C   UNL     1       7.211   4.091  11.276  0.00  0.00    +0.000 A 
ATOM     22  C   UNL     1       7.922   5.147  11.844  0.00  0.00    +0.000 A 
ATOM     23  C   UNL     1       7.744   5.469  13.194  0.00  0.00    +0.000 A 
ENDBRANCH   6  18
TORSDOF 3
ENDMDL
MODEL 2
REMARK VINA RESULT:      -7.7      0.070      1.031
REMARK  Name = 
REMARK  4 active torsions:
REMARK  status: ('A' for Active; 'I' for Inactive)
REMARK    1  A    between atoms: C_1  and  O_2
REMARK    2  A    between atoms: O_2  and  C_3
REMARK    3  A    between atoms: C_8  and  C_9
REMARK    4  A    between atoms: C_14  and  C_15
REMARK                            x       y       z     vdW  Elec       q    Type
REMARK                         _______ _______ _______ _____ _____    ______ ____
ROOT
ATOM      1  C   UNL     1       3.792   3.679  18.290  0.00  0.00    +0.000 C 
ATOM      2  O   UNL     1       3.363   3.319  17.197  0.00  0.00    +0.000 OA
ATOM      3  N   UNL     1       4.942   4.413  18.478  0.00  0.00    +0.000 N 
ATOM      4  C   UNL     1       5.726   4.774  17.417  0.00  0.00    +0.000 A 
ATOM      5  N   UNL     1       5.667   4.408  16.165  0.00  0.00    +0.000 NA
ATOM      6  C   UNL     1       6.687   5.040  15.451  0.00  0.00    +0.000 A 
ATOM      7  N   UNL     1       7.482   5.894  16.115  0.00  0.00    +0.000 NA
ATOM      8  S   UNL     1       6.994   5.873  17.715  0.00  0.00    +0.000 S 
ATOM      9  H   UNL     1       5.203   4.717  19.406  0.00  0.00    +0.000 HD
ENDROOT
BRANCH   1  15
ATOM     10  C   UNL     1       3.483   2.707  20.676  0.00  0.00    +0.000 A 
ATOM     11  C   UNL     1       2.589   2.423  21.724  0.00  0.00    +0.000 A 
ATOM     12  C   UNL     1       1.239   2.771  21.641  0.00  0.00    +0.000 A 
ATOM     13  C   UNL     1       0.753   3.402  20.506  0.00  0.00    +0.000 A 
ATOM     14  C   UNL     1       1.619   3.673  19.449  0.00  0.00    +0.000 A 
ATOM     15  C   UNL     1       2.987   3.328  19.511  0.00  0.00    +0.000 A 
BRANCH  10  17
ATOM     16  C   UNL     1       5.132   1.006  20.942  0.00  0.00    +0.000 C 
ATOM     17  O   UNL     1       4.818   2.383  20.726  0.00  0.00    +0.000 OA
ENDBRANCH  10  17
ENDBRANCH   1  15
BRANCH   6  18
ATOM     18  C   UNL     1       6.878   4.721  14.030  0.00  0.00    +0.000 A 
ATOM     19  C   UNL     1       7.745   5.497  13.241  0.00  0.00    +0.000 A 
ATOM     20  C   UNL     1       7.900   5.237  11.876  0.00  0.00    +0.000 A 
ATOM     21  C   UNL     1       7.195   4.193  11.282  0.00  0.00    +0.000 A 
ATOM     22  C   UNL     1       6.342   3.404  12.053  0.00  0.00    +0.000 A 
ATOM     23  C   UNL     1       6.185   3.665  13.418  0.00  0.00    +0.000 A 
ENDBRANCH   6  18
TORSDOF 3
ENDMDL
MODEL 3
REMARK VINA RESULT:      -7.1      5.197      6.625
REMARK  Name = 
REMARK  4 active torsions:
REMARK  status: ('A' for Active; 'I' for Inactive)
REMARK    1  A    between atoms: C_1  and  O_2
REMARK    2  A    between atoms: O_2  and  C_3
REMARK    3  A    between atoms: C_8  and  C_9
REMARK    4  A    between atoms: C_14  and  C_15
REMARK                            x       y       z     vdW  Elec       q    Type
REMARK                         _______ _______ _______ _____ _____    ______ ____
ROOT
ATOM      1  C   UNL     1       1.377   8.514  20.355  0.00  0.00    +0.000 C 
ATOM      2  O   UNL     1       2.045   8.999  19.447  0.00  0.00    +0.000 OA
ATOM      3  N   UNL     1       1.417   7.192  20.740  0.00  0.00    +0.000 N 
ATOM      4  C   UNL     1       2.217   6.295  20.086  0.00  0.00    +0.000 A 
ATOM      5  N   UNL     1       2.904   6.429  18.983  0.00  0.00    +0.000 NA
ATOM      6  C   UNL     1       3.565   5.231  18.703  0.00  0.00    +0.000 A 
ATOM      7  N   UNL     1       3.430   4.221  19.577  0.00  0.00    +0.000 NA
ATOM      8  S   UNL     1       2.383   4.744  20.772  0.00  0.00    +0.000 S 
ATOM      9  H   UNL     1       0.876   6.877  21.532  0.00  0.00    +0.000 HD
ENDROOT
BRANCH   1  15
ATOM     10  C   UNL     1      -0.249  10.522  20.602  0.00  0.00    +0.000 A 
ATOM     11  C   UNL     1      -1.032  11.302  21.472  0.00  0.00    +0.000 A 
ATOM     12  C   UNL     1      -1.129  10.997  22.832  0.00  0.00    +0.000 A 
ATOM     13  C   UNL     1      -0.437   9.912  23.351  0.00  0.00    +0.000 A 
ATOM     14  C   UNL     1       0.360   9.141  22.509  0.00  0.00    +0.000 A 
ATOM     15  C   UNL     1       0.474   9.432  21.131  0.00  0.00    +0.000 A 
BRANCH  10  17
ATOM     16  C   UNL     1      -1.246  10.420  18.439  0.00  0.00    +0.000 C 
ATOM     17  O   UNL     1      -0.135  10.790  19.259  0.00  0.00    +0.000 OA
ENDBRANCH  10  17
ENDBRANCH   1  15
BRANCH   6  18
ATOM     18  C   UNL     1       4.339   5.107  17.461  0.00  0.00    +0.000 A 
ATOM     19  C   UNL     1       4.647   6.249  16.703  0.00  0.00    +0.000 A 
ATOM     20  C   UNL     1       5.341   6.142  15.493  0.00  0.00    +0.000 A 
ATOM     21  C   UNL     1       5.740   4.892  15.028  0.00  0.00    +0.000 A 
ATOM     22  C   UNL     1       5.455   3.750  15.775  0.00  0.00    +0.000 A 
ATOM     23  C   UNL     1       4.760   3.856  16.984  0.00  0.00    +0.000 A 
ENDBRANCH   6  18
TORSDOF 3
ENDMDL
MODEL 4
REMARK VINA RESULT:      -7.1      1.296      2.104
REMARK  Name = 
REMARK  4 active torsions:
REMARK  status: ('A' for Active; 'I' for Inactive)
REMARK    1  A    between atoms: C_1  and  O_2
REMARK    2  A    between atoms: O_2  and  C_3
REMARK    3  A    between atoms: C_8  and  C_9
REMARK    4  A    between atoms: C_14  and  C_15
REMARK                            x       y       z     vdW  Elec       q    Type
REMARK                         _______ _______ _______ _____ _____    ______ ____
ROOT
ATOM      1  C   UNL     1       3.702   3.950  18.143  0.00  0.00    +0.000 C 
ATOM      2  O   UNL     1       3.263   3.575  17.060  0.00  0.00    +0.000 OA
ATOM      3  N   UNL     1       4.886   4.633  18.316  0.00  0.00    +0.000 N 
ATOM      4  C   UNL     1       5.695   4.918  17.250  0.00  0.00    +0.000 A 
ATOM      5  N   UNL     1       5.625   4.513  16.010  0.00  0.00    +0.000 NA
ATOM      6  C   UNL     1       6.680   5.068  15.284  0.00  0.00    +0.000 A 
ATOM      7  N   UNL     1       7.512   5.904  15.925  0.00  0.00    +0.000 NA
ATOM      8  S   UNL     1       7.013   5.962  17.520  0.00  0.00    +0.000 S 
ATOM      9  H   UNL     1       5.156   4.955  19.235  0.00  0.00    +0.000 HD
ENDROOT
BRANCH   1  15
ATOM     10  C   UNL     1       2.600   4.605  20.399  0.00  0.00    +0.000 A 
ATOM     11  C   UNL     1       1.825   4.187  21.496  0.00  0.00    +0.000 A 
ATOM     12  C   UNL     1       1.301   2.893  21.563  0.00  0.00    +0.000 A 
ATOM     13  C   UNL     1       1.549   1.990  20.540  0.00  0.00    +0.000 A 
ATOM     14  C   UNL     1       2.332   2.380  19.456  0.00  0.00    +0.000 A 
ATOM     15  C   UNL     1       2.873   3.682  19.369  0.00  0.00    +0.000 A 
BRANCH  10  17
ATOM     16  C   UNL     1       2.258   6.884  19.784  0.00  0.00    +0.000 C 
ATOM     17  O   UNL     1       3.126   5.871  20.298  0.00  0.00    +0.000 OA
ENDBRANCH  10  17
ENDBRANCH   1  15
BRANCH   6  18
ATOM     18  C   UNL     1       6.865   4.691  13.876  0.00  0.00    +0.000 A 
ATOM     19  C   UNL     1       7.735   5.428  13.055  0.00  0.00    +0.000 A 
ATOM     20  C   UNL     1       7.884   5.112  11.701  0.00  0.00    +0.000 A 
ATOM     21  C   UNL     1       7.169   4.052  11.151  0.00  0.00    +0.000 A 
ATOM     22  C   UNL     1       6.311   3.301  11.954  0.00  0.00    +0.000 A 
ATOM     23  C   UNL     1       6.160   3.618  13.308  0.00  0.00    +0.000 A 
ENDBRANCH   6  18
TORSDOF 3
ENDMDL
MODEL 5
REMARK VINA RESULT:      -7.1      4.480      8.287
REMARK  Name = 
REMARK  4 active torsions:
REMARK  status: ('A' for Active; 'I' for Inactive)
REMARK    1  A    between atoms: C_1  and  O_2
REMARK    2  A    between atoms: O_2  and  C_3
REMARK    3  A    between atoms: C_8  and  C_9
REMARK    4  A    between atoms: C_14  and  C_15
REMARK                            x       y       z     vdW  Elec       q    Type
REMARK                         _______ _______ _______ _____ _____    ______ ____
ROOT
ATOM      1  C   UNL     1       4.293   6.375  17.740  0.00  0.00    +0.000 C 
ATOM      2  O   UNL     1       4.000   7.531  17.452  0.00  0.00    +0.000 OA
ATOM      3  N   UNL     1       3.719   5.650  18.760  0.00  0.00    +0.000 N 
ATOM      4  C   UNL     1       2.767   6.209  19.570  0.00  0.00    +0.000 A 
ATOM      5  N   UNL     1       2.363   7.448  19.659  0.00  0.00    +0.000 NA
ATOM      6  C   UNL     1       1.370   7.539  20.637  0.00  0.00    +0.000 A 
ATOM      7  N   UNL     1       0.991   6.408  21.253  0.00  0.00    +0.000 NA
ATOM      8  S   UNL     1       1.947   5.177  20.648  0.00  0.00    +0.000 S 
ATOM      9  H   UNL     1       3.976   4.684  18.904  0.00  0.00    +0.000 HD
ENDROOT
BRANCH   1  15
ATOM     10  C   UNL     1       6.450   4.977  17.379  0.00  0.00    +0.000 A 
ATOM     11  C   UNL     1       7.340   4.405  16.454  0.00  0.00    +0.000 A 
ATOM     12  C   UNL     1       7.115   4.496  15.078  0.00  0.00    +0.000 A 
ATOM     13  C   UNL     1       6.000   5.169  14.600  0.00  0.00    +0.000 A 
ATOM     14  C   UNL     1       5.118   5.760  15.502  0.00  0.00    +0.000 A 
ATOM     15  C   UNL     1       5.327   5.682  16.897  0.00  0.00    +0.000 A 
BRANCH  10  17
ATOM     16  C   UNL     1       7.662   5.735  19.288  0.00  0.00    +0.000 C 
ATOM     17  O   UNL     1       6.638   4.902  18.739  0.00  0.00    +0.000 OA
ENDBRANCH  10  17
ENDBRANCH   1  15
BRANCH   6  18
ATOM     18  C   UNL     1       0.815   8.854  20.982  0.00  0.00    +0.000 A 
ATOM     19  C   UNL     1       0.289   9.086  22.264  0.00  0.00    +0.000 A 
ATOM     20  C   UNL     1      -0.288  10.317  22.592  0.00  0.00    +0.000 A 
ATOM     21  C   UNL     1      -0.342  11.335  21.644  0.00  0.00    +0.000 A 
ATOM     22  C   UNL     1       0.187  11.127  20.371  0.00  0.00    +0.000 A 
ATOM     23  C   UNL     1       0.763   9.895  20.042  0.00  0.00    +0.000 A 
ENDBRANCH   6  18
TORSDOF 3
ENDMDL
MODEL 6
REMARK VINA RESULT:      -7.1      5.218      6.583
REMARK  Name = 
REMARK  4 active torsions:
REMARK  status: ('A' for Active; 'I' for Inactive)
REMARK    1  A    between atoms: C_1  and  O_2
REMARK    2  A    between atoms: O_2  and  C_3
REMARK    3  A    between atoms: C_8  and  C_9
REMARK    4  A    between atoms: C_14  and  C_15
REMARK                            x       y       z     vdW  Elec       q    Type
REMARK                         _______ _______ _______ _____ _____    ______ ____
ROOT
ATOM      1  C   UNL     1       1.386   8.487  20.332  0.00  0.00    +0.000 C 
ATOM      2  O   UNL     1       2.028   8.976  19.407  0.00  0.00    +0.000 OA
ATOM      3  N   UNL     1       1.450   7.167  20.720  0.00  0.00    +0.000 N 
ATOM      4  C   UNL     1       2.244   6.275  20.051  0.00  0.00    +0.000 A 
ATOM      5  N   UNL     1       2.903   6.413  18.931  0.00  0.00    +0.000 NA
ATOM      6  C   UNL     1       3.570   5.221  18.641  0.00  0.00    +0.000 A 
ATOM      7  N   UNL     1       3.466   4.213  19.521  0.00  0.00    +0.000 NA
ATOM      8  S   UNL     1       2.443   4.729  20.738  0.00  0.00    +0.000 S 
ATOM      9  H   UNL     1       0.930   6.849  21.526  0.00  0.00    +0.000 HD
ENDROOT
BRANCH   1  15
ATOM     10  C   UNL     1      -0.256  10.477  20.610  0.00  0.00    +0.000 A 
ATOM     11  C   UNL     1      -1.027  11.251  21.495  0.00  0.00    +0.000 A 
ATOM     12  C   UNL     1      -1.087  10.952  22.858  0.00  0.00    +0.000 A 
ATOM     13  C   UNL     1      -0.371   9.878  23.365  0.00  0.00    +0.000 A 
ATOM     14  C   UNL     1       0.415   9.111  22.507  0.00  0.00    +0.000 A 
ATOM     15  C   UNL     1       0.491   9.398  21.126  0.00  0.00    +0.000 A 
BRANCH  10  17
ATOM     16  C   UNL     1      -1.383  11.174  18.628  0.00  0.00    +0.000 C 
ATOM     17  O   UNL     1      -0.179  10.740  19.263  0.00  0.00    +0.000 OA
ENDBRANCH  10  17
ENDBRANCH   1  15
BRANCH   6  18
ATOM     18  C   UNL     1       4.317   5.101  17.381  0.00  0.00    +0.000 A 
ATOM     19  C   UNL     1       4.742   3.840  16.929  0.00  0.00    +0.000 A 
ATOM     20  C   UNL     1       5.496   3.714  15.758  0.00  0.00    +0.000 A 
ATOM     21  C   UNL     1       5.830   4.847  15.020  0.00  0.00    +0.000 A 
ATOM     22  C   UNL     1       5.404   6.104  15.447  0.00  0.00    +0.000 A 
ATOM     23  C   UNL     1       4.652   6.231  16.619  0.00  0.00    +0.000 A 
ENDBRANCH   6  18
TORSDOF 3
ENDMDL
MODEL 7
REMARK VINA RESULT:      -7.1      4.500      8.306
REMARK  Name = 
REMARK  4 active torsions:
REMARK  status: ('A' for Active; 'I' for Inactive)
REMARK    1  A    between atoms: C_1  and  O_2
REMARK    2  A    between atoms: O_2  and  C_3
REMARK    3  A    between atoms: C_8  and  C_9
REMARK    4  A    between atoms: C_14  and  C_15
REMARK                            x       y       z     vdW  Elec       q    Type
REMARK                         _______ _______ _______ _____ _____    ______ ____
ROOT
ATOM      1  C   UNL     1       4.292   6.389  17.745  0.00  0.00    +0.000 C 
ATOM      2  O   UNL     1       3.989   7.539  17.443  0.00  0.00    +0.000 OA
ATOM      3  N   UNL     1       3.720   5.670  18.772  0.00  0.00    +0.000 N 
ATOM      4  C   UNL     1       2.760   6.229  19.570  0.00  0.00    +0.000 A 
ATOM      5  N   UNL     1       2.343   7.465  19.644  0.00  0.00    +0.000 NA
ATOM      6  C   UNL     1       1.345   7.557  20.617  0.00  0.00    +0.000 A 
ATOM      7  N   UNL     1       0.973   6.430  21.243  0.00  0.00    +0.000 NA
ATOM      8  S   UNL     1       1.944   5.201  20.656  0.00  0.00    +0.000 S 
ATOM      9  H   UNL     1       3.985   4.708  18.927  0.00  0.00    +0.000 HD
ENDROOT
BRANCH   1  15
ATOM     10  C   UNL     1       6.464   5.008  17.410  0.00  0.00    +0.000 A 
ATOM     11  C   UNL     1       7.364   4.433  16.495  0.00  0.00    +0.000 A 
ATOM     12  C   UNL     1       7.143   4.507  15.117  0.00  0.00    +0.000 A 
ATOM     13  C   UNL     1       6.024   5.164  14.628  0.00  0.00    +0.000 A 
ATOM     14  C   UNL     1       5.132   5.756  15.518  0.00  0.00    +0.000 A 
ATOM     15  C   UNL     1       5.337   5.696  16.915  0.00  0.00    +0.000 A 
BRANCH  10  17
ATOM     16  C   UNL     1       7.741   5.702  19.300  0.00  0.00    +0.000 C 
ATOM     17  O   UNL     1       6.647   4.950  18.772  0.00  0.00    +0.000 OA
ENDBRANCH  10  17
ENDBRANCH   1  15
BRANCH   6  18
ATOM     18  C   UNL     1       0.776   8.871  20.944  0.00  0.00    +0.000 A 
ATOM     19  C   UNL     1       0.852   9.925  20.018  0.00  0.00    +0.000 A 
ATOM     20  C   UNL     1       0.359  11.195  20.334  0.00  0.00    +0.000 A 
ATOM     21  C   UNL     1      -0.222  11.427  21.578  0.00  0.00    +0.000 A 
ATOM     22  C   UNL     1      -0.317  10.388  22.504  0.00  0.00    +0.000 A 
ATOM     23  C   UNL     1       0.178   9.119  22.189  0.00  0.00    +0.000 A 
ENDBRANCH   6  18
TORSDOF 3
ENDMDL
MODEL 8
REMARK VINA RESULT:      -7.1      5.487      8.548
REMARK  Name = 
REMARK  4 active torsions:
REMARK  status: ('A' for Active; 'I' for Inactive)
REMARK    1  A    between atoms: C_1  and  O_2
REMARK    2  A    between atoms: O_2  and  C_3
REMARK    3  A    between atoms: C_8  and  C_9
REMARK    4  A    between atoms: C_14  and  C_15
REMARK                            x       y       z     vdW  Elec       q    Type
REMARK                         _______ _______ _______ _____ _____    ______ ____
ROOT
ATOM      1  C   UNL     1       2.160   5.916  19.604  0.00  0.00    +0.000 C 
ATOM      2  O   UNL     1       1.783   6.030  20.766  0.00  0.00    +0.000 OA
ATOM      3  N   UNL     1       2.194   6.942  18.685  0.00  0.00    +0.000 N 
ATOM      4  C   UNL     1       1.762   8.197  19.018  0.00  0.00    +0.000 A 
ATOM      5  N   UNL     1       1.139   8.616  20.087  0.00  0.00    +0.000 NA
ATOM      6  C   UNL     1       0.899   9.986  19.973  0.00  0.00    +0.000 A 
ATOM      7  N   UNL     1       1.354  10.615  18.877  0.00  0.00    +0.000 NA
ATOM      8  S   UNL     1       2.057   9.451  17.903  0.00  0.00    +0.000 S 
ATOM      9  H   UNL     1       2.568   6.783  17.760  0.00  0.00    +0.000 HD
ENDROOT
BRANCH   1  15
ATOM     10  C   UNL     1       3.931   4.299  18.612  0.00  0.00    +0.000 A 
ATOM     11  C   UNL     1       4.233   2.984  18.215  0.00  0.00    +0.000 A 
ATOM     12  C   UNL     1       3.311   1.947  18.380  0.00  0.00    +0.000 A 
ATOM     13  C   UNL     1       2.066   2.206  18.935  0.00  0.00    +0.000 A 
ATOM     14  C   UNL     1       1.742   3.507  19.314  0.00  0.00    +0.000 A 
ATOM     15  C   UNL     1       2.658   4.570  19.155  0.00  0.00    +0.000 A 
BRANCH  10  17
ATOM     16  C   UNL     1       6.062   5.219  19.158  0.00  0.00    +0.000 C 
ATOM     17  O   UNL     1       4.815   5.342  18.469  0.00  0.00    +0.000 OA
ENDBRANCH  10  17
ENDBRANCH   1  15
BRANCH   6  18
ATOM     18  C   UNL     1       0.132  10.674  21.020  0.00  0.00    +0.000 A 
ATOM     19  C   UNL     1      -0.083  12.061  20.944  0.00  0.00    +0.000 A 
ATOM     20  C   UNL     1      -0.769  12.738  21.957  0.00  0.00    +0.000 A 
ATOM     21  C   UNL     1      -1.253  12.036  23.058  0.00  0.00    +0.000 A 
ATOM     22  C   UNL     1      -1.061  10.658  23.143  0.00  0.00    +0.000 A 
ATOM     23  C   UNL     1      -0.374   9.981  22.131  0.00  0.00    +0.000 A 
ENDBRANCH   6  18
TORSDOF 3
ENDMDL
MODEL 9
REMARK VINA RESULT:      -7.1      1.291      1.836
REMARK  Name = 
REMARK  4 active torsions:
REMARK  status: ('A' for Active; 'I' for Inactive)
REMARK    1  A    between atoms: C_1  and  O_2
REMARK    2  A    between atoms: O_2  and  C_3
REMARK    3  A    between atoms: C_8  and  C_9
REMARK    4  A    between atoms: C_14  and  C_15
REMARK                            x       y       z     vdW  Elec       q    Type
REMARK                         _______ _______ _______ _____ _____    ______ ____
ROOT
ATOM      1  C   UNL     1       3.694   3.952  18.168  0.00  0.00    +0.000 C 
ATOM      2  O   UNL     1       3.237   3.594  17.087  0.00  0.00    +0.000 OA
ATOM      3  N   UNL     1       4.888   4.620  18.334  0.00  0.00    +0.000 N 
ATOM      4  C   UNL     1       5.686   4.908  17.260  0.00  0.00    +0.000 A 
ATOM      5  N   UNL     1       5.595   4.517  16.017  0.00  0.00    +0.000 NA
ATOM      6  C   UNL     1       6.647   5.069  15.283  0.00  0.00    +0.000 A 
ATOM      7  N   UNL     1       7.497   5.889  15.923  0.00  0.00    +0.000 NA
ATOM      8  S   UNL     1       7.019   5.935  17.525  0.00  0.00    +0.000 S 
ATOM      9  H   UNL     1       5.173   4.929  19.252  0.00  0.00    +0.000 HD
ENDROOT
BRANCH   1  15
ATOM     10  C   UNL     1       2.607   4.602  20.433  0.00  0.00    +0.000 A 
ATOM     11  C   UNL     1       1.845   4.180  21.537  0.00  0.00    +0.000 A 
ATOM     12  C   UNL     1       1.332   2.882  21.611  0.00  0.00    +0.000 A 
ATOM     13  C   UNL     1       1.579   1.979  20.587  0.00  0.00    +0.000 A 
ATOM     14  C   UNL     1       2.349   2.373  19.496  0.00  0.00    +0.000 A 
ATOM     15  C   UNL     1       2.878   3.680  19.402  0.00  0.00    +0.000 A 
BRANCH  10  17
ATOM     16  C   UNL     1       2.238   6.878  19.827  0.00  0.00    +0.000 C 
ATOM     17  O   UNL     1       3.122   5.872  20.326  0.00  0.00    +0.000 OA
ENDBRANCH  10  17
ENDBRANCH   1  15
BRANCH   6  18
ATOM     18  C   UNL     1       6.810   4.706  13.869  0.00  0.00    +0.000 A 
ATOM     19  C   UNL     1       6.081   3.634  13.327  0.00  0.00    +0.000 A 
ATOM     20  C   UNL     1       6.261   3.245  11.995  0.00  0.00    +0.000 A 
ATOM     21  C   UNL     1       7.168   3.926  11.188  0.00  0.00    +0.000 A 
ATOM     22  C   UNL     1       7.889   5.001  11.706  0.00  0.00    +0.000 A 
ATOM     23  C   UNL     1       7.711   5.389  13.038  0.00  0.00    +0.000 A 
ENDBRANCH   6  18
TORSDOF 3
ENDMDL
