MODEL 1
REMARK VINA RESULT:      -8.4      0.000      0.000
REMARK  Name = 
REMARK  15 active torsions:
REMARK  status: ('A' for Active; 'I' for Inactive)
REMARK    1  A    between atoms: C_1  and  O_2
REMARK    2  A    between atoms: O_2  and  C_3
REMARK    3  A    between atoms: C_6  and  C_7
REMARK    4  A    between atoms: C_9  and  C_10
REMARK    5  A    between atoms: C_10  and  S_11
REMARK    6  A    between atoms: S_11  and  C_14
REMARK    7  A    between atoms: C_14  and  C_15
REMARK    8  A    between atoms: N_17  and  C_18
REMARK    9  A    between atoms: C_18  and  C_19
REMARK   10  A    between atoms: C_19  and  C_20
REMARK   11  A    between atoms: C_22  and  O_23
REMARK   12  A    between atoms: O_23  and  C_24
REMARK   13  A    between atoms: C_27  and  O_28
REMARK   14  A    between atoms: O_28  and  C_29
REMARK   15  A    between atoms: C_30  and  C_31
REMARK                            x       y       z     vdW  Elec       q    Type
REMARK                         _______ _______ _______ _____ _____    ______ ____
ROOT
ATOM      1  S   UNL     1       7.024   5.059  17.564  0.00  0.00    +0.000 S 
ATOM      2  O   UNL     1       6.817   5.071  19.002  0.00  0.00    +0.000 OA
ATOM      3  O   UNL     1       8.165   4.326  17.030  0.00  0.00    +0.000 OA
ENDROOT
BRANCH   1   4
ATOM      4  C   UNL     1       5.540   4.412  16.801  0.00  0.00    +0.000 C 
BRANCH   4   7
ATOM      5  C   UNL     1       2.951   6.430  18.149  0.00  0.00    +0.000 A 
ATOM      6  N   UNL     1       4.125   6.306  17.558  0.00  0.00    +0.000 NA
ATOM      7  C   UNL     1       4.274   4.949  17.353  0.00  0.00    +0.000 A 
ATOM      8  C   UNL     1       3.145   4.299  17.818  0.00  0.00    +0.000 A 
ATOM      9  C   UNL     1       2.666   2.910  17.921  0.00  0.00    +0.000 C 
ATOM     10  O   UNL     1       2.300   5.242  18.325  0.00  0.00    +0.000 OA
BRANCH   5  14
ATOM     11  C   UNL     1       0.968   9.940  19.590  0.00  0.00    +0.000 A 
ATOM     12  C   UNL     1       1.201   8.855  20.439  0.00  0.00    +0.000 A 
ATOM     13  C   UNL     1       1.847   7.707  19.968  0.00  0.00    +0.000 A 
ATOM     14  C   UNL     1       2.258   7.621  18.632  0.00  0.00    +0.000 A 
ATOM     15  C   UNL     1       1.982   8.702  17.779  0.00  0.00    +0.000 A 
ATOM     16  C   UNL     1       1.342   9.853  18.251  0.00  0.00    +0.000 A 
BRANCH  11  18
ATOM     17  C   UNL     1      -0.714  11.588  19.403  0.00  0.00    +0.000 C 
ATOM     18  O   UNL     1       0.342  11.011  20.165  0.00  0.00    +0.000 OA
ENDBRANCH  11  18
ENDBRANCH   5  14
ENDBRANCH   4   7
ENDBRANCH   1   4
BRANCH   1  19
ATOM     19  C   UNL     1       7.201   6.750  17.070  0.00  0.00    +0.000 C 
BRANCH  19  20
ATOM     20  C   UNL     1       7.992   7.512  18.082  0.00  0.00    +0.000 C 
ATOM     21  O   UNL     1       8.510   6.921  19.035  0.00  0.00    +0.000 OA
ATOM     22  N   UNL     1       8.104   8.892  17.938  0.00  0.00    +0.000 N 
ATOM     23  H   UNL     1       8.060   9.257  16.994  0.00  0.00    +0.000 HD
BRANCH  22  24
ATOM     24  C   UNL     1       8.974   9.547  18.912  0.00  0.00    +0.000 C 
BRANCH  24  25
ATOM     25  C   UNL     1       9.567  10.909  18.546  0.00  0.00    +0.000 C 
BRANCH  25  26
ATOM     26  C   UNL     1       9.649  11.768  19.802  0.00  0.00    +0.000 A 
ATOM     27  C   UNL     1       9.009  11.219  20.951  0.00  0.00    +0.000 A 
ATOM     28  C   UNL     1       8.868  11.920  22.156  0.00  0.00    +0.000 A 
ATOM     29  C   UNL     1       9.425  13.181  22.260  0.00  0.00    +0.000 A 
ATOM     30  C   UNL     1      10.049  13.741  21.148  0.00  0.00    +0.000 A 
ATOM     31  C   UNL     1      10.154  13.074  19.911  0.00  0.00    +0.000 A 
BRANCH  28  32
ATOM     32  O   UNL     1       8.149  11.288  23.133  0.00  0.00    +0.000 OA
ATOM     33  C   UNL     1       8.102  11.930  24.404  0.00  0.00    +0.000 C 
ENDBRANCH  28  32
BRANCH  31  34
ATOM     34  O   UNL     1      10.720  13.925  19.016  0.00  0.00    +0.000 OA
ATOM     35  C   UNL     1      10.323  14.079  17.675  0.00  0.00    +0.000 C 
ENDBRANCH  31  34
ENDBRANCH  25  26
ENDBRANCH  24  25
ENDBRANCH  22  24
ENDBRANCH  19  20
ENDBRANCH   1  19
TORSDOF 11
ENDMDL
MODEL 2
REMARK VINA RESULT:      -8.0      1.127      1.277
REMARK  Name = 
REMARK  15 active torsions:
REMARK  status: ('A' for Active; 'I' for Inactive)
REMARK    1  A    between atoms: C_1  and  O_2
REMARK    2  A    between atoms: O_2  and  C_3
REMARK    3  A    between atoms: C_6  and  C_7
REMARK    4  A    between atoms: C_9  and  C_10
REMARK    5  A    between atoms: C_10  and  S_11
REMARK    6  A    between atoms: S_11  and  C_14
REMARK    7  A    between atoms: C_14  and  C_15
REMARK    8  A    between atoms: N_17  and  C_18
REMARK    9  A    between atoms: C_18  and  C_19
REMARK   10  A    between atoms: C_19  and  C_20
REMARK   11  A    between atoms: C_22  and  O_23
REMARK   12  A    between atoms: O_23  and  C_24
REMARK   13  A    between atoms: C_27  and  O_28
REMARK   14  A    between atoms: O_28  and  C_29
REMARK   15  A    between atoms: C_30  and  C_31
REMARK                            x       y       z     vdW  Elec       q    Type
REMARK                         _______ _______ _______ _____ _____    ______ ____
ROOT
ATOM      1  S   UNL     1       7.079   5.196  17.238  0.00  0.00    +0.000 S 
ATOM      2  O   UNL     1       8.179   4.311  16.894  0.00  0.00    +0.000 OA
ATOM      3  O   UNL     1       6.528   6.060  16.201  0.00  0.00    +0.000 OA
ENDROOT
BRANCH   1   4
ATOM      4  C   UNL     1       5.749   4.190  17.889  0.00  0.00    +0.000 C 
BRANCH   4   7
ATOM      5  C   UNL     1       3.029   6.422  18.348  0.00  0.00    +0.000 A 
ATOM      6  N   UNL     1       4.326   6.179  18.319  0.00  0.00    +0.000 NA
ATOM      7  C   UNL     1       4.427   4.858  17.927  0.00  0.00    +0.000 A 
ATOM      8  C   UNL     1       3.157   4.358  17.705  0.00  0.00    +0.000 A 
ATOM      9  C   UNL     1       2.559   3.075  17.300  0.00  0.00    +0.000 C 
ATOM     10  O   UNL     1       2.264   5.355  17.972  0.00  0.00    +0.000 OA
BRANCH   5  14
ATOM     11  C   UNL     1       0.951  10.002  19.440  0.00  0.00    +0.000 A 
ATOM     12  C   UNL     1       1.103   8.959  20.358  0.00  0.00    +0.000 A 
ATOM     13  C   UNL     1       1.780   7.788  20.000  0.00  0.00    +0.000 A 
ATOM     14  C   UNL     1       2.304   7.636  18.711  0.00  0.00    +0.000 A 
ATOM     15  C   UNL     1       2.110   8.676  17.785  0.00  0.00    +0.000 A 
ATOM     16  C   UNL     1       1.439   9.849  18.145  0.00  0.00    +0.000 A 
BRANCH  11  18
ATOM     17  C   UNL     1       1.070  12.025  20.654  0.00  0.00    +0.000 C 
ATOM     18  O   UNL     1       0.284  11.101  19.907  0.00  0.00    +0.000 OA
ENDBRANCH  11  18
ENDBRANCH   5  14
ENDBRANCH   4   7
ENDBRANCH   1   4
BRANCH   1  19
ATOM     19  C   UNL     1       7.665   6.240  18.542  0.00  0.00    +0.000 C 
BRANCH  19  20
ATOM     20  C   UNL     1       7.866   7.634  18.047  0.00  0.00    +0.000 C 
ATOM     21  O   UNL     1       7.341   7.998  16.991  0.00  0.00    +0.000 OA
ATOM     22  N   UNL     1       8.675   8.492  18.787  0.00  0.00    +0.000 N 
ATOM     23  H   UNL     1       8.719   8.330  19.786  0.00  0.00    +0.000 HD
BRANCH  22  24
ATOM     24  C   UNL     1       8.741   9.864  18.287  0.00  0.00    +0.000 C 
BRANCH  24  25
ATOM     25  C   UNL     1      10.073  10.608  18.400  0.00  0.00    +0.000 C 
BRANCH  25  26
ATOM     26  C   UNL     1       9.841  11.940  19.101  0.00  0.00    +0.000 A 
ATOM     27  C   UNL     1       9.128  11.857  20.333  0.00  0.00    +0.000 A 
ATOM     28  C   UNL     1       8.709  12.983  21.052  0.00  0.00    +0.000 A 
ATOM     29  C   UNL     1       9.050  14.237  20.580  0.00  0.00    +0.000 A 
ATOM     30  C   UNL     1       9.740  14.344  19.375  0.00  0.00    +0.000 A 
ATOM     31  C   UNL     1      10.123  13.224  18.610  0.00  0.00    +0.000 A 
BRANCH  28  32
ATOM     32  O   UNL     1       7.956  12.734  22.167  0.00  0.00    +0.000 OA
ATOM     33  C   UNL     1       8.348  11.617  22.961  0.00  0.00    +0.000 C 
ENDBRANCH  28  32
BRANCH  31  34
ATOM     34  O   UNL     1      10.682  13.671  17.454  0.00  0.00    +0.000 OA
ATOM     35  C   UNL     1      11.013  15.009  17.174  0.00  0.00    +0.000 C 
ENDBRANCH  31  34
ENDBRANCH  25  26
ENDBRANCH  24  25
ENDBRANCH  22  24
ENDBRANCH  19  20
ENDBRANCH   1  19
TORSDOF 11
ENDMDL
MODEL 3
REMARK VINA RESULT:      -8.0      6.046     11.687
REMARK  Name = 
REMARK  15 active torsions:
REMARK  status: ('A' for Active; 'I' for Inactive)
REMARK    1  A    between atoms: C_1  and  O_2
REMARK    2  A    between atoms: O_2  and  C_3
REMARK    3  A    between atoms: C_6  and  C_7
REMARK    4  A    between atoms: C_9  and  C_10
REMARK    5  A    between atoms: C_10  and  S_11
REMARK    6  A    between atoms: S_11  and  C_14
REMARK    7  A    between atoms: C_14  and  C_15
REMARK    8  A    between atoms: N_17  and  C_18
REMARK    9  A    between atoms: C_18  and  C_19
REMARK   10  A    between atoms: C_19  and  C_20
REMARK   11  A    between atoms: C_22  and  O_23
REMARK   12  A    between atoms: O_23  and  C_24
REMARK   13  A    between atoms: C_27  and  O_28
REMARK   14  A    between atoms: O_28  and  C_29
REMARK   15  A    between atoms: C_30  and  C_31
REMARK                            x       y       z     vdW  Elec       q    Type
REMARK                         _______ _______ _______ _____ _____    ______ ____
ROOT
ATOM      1  S   UNL     1      -1.412  12.235  19.290  0.00  0.00    +0.000 S 
ATOM      2  O   UNL     1      -2.688  12.656  19.843  0.00  0.00    +0.000 OA
ATOM      3  O   UNL     1      -0.768  13.086  18.297  0.00  0.00    +0.000 OA
ENDROOT
BRANCH   1   4
ATOM      4  C   UNL     1      -0.272  12.009  20.652  0.00  0.00    +0.000 C 
BRANCH   4   7
ATOM      5  C   UNL     1       1.355   8.916  20.042  0.00  0.00    +0.000 A 
ATOM      6  N   UNL     1       1.069  10.155  19.689  0.00  0.00    +0.000 NA
ATOM      7  C   UNL     1       0.328  10.658  20.741  0.00  0.00    +0.000 A 
ATOM      8  C   UNL     1       0.219   9.685  21.717  0.00  0.00    +0.000 A 
ATOM      9  C   UNL     1      -0.421   9.549  23.037  0.00  0.00    +0.000 C 
ATOM     10  O   UNL     1       0.874   8.573  21.274  0.00  0.00    +0.000 OA
BRANCH   5  14
ATOM     11  C   UNL     1       3.471   5.847  17.936  0.00  0.00    +0.000 A 
ATOM     12  C   UNL     1       2.919   5.596  19.194  0.00  0.00    +0.000 A 
ATOM     13  C   UNL     1       2.230   6.599  19.884  0.00  0.00    +0.000 A 
ATOM     14  C   UNL     1       2.094   7.878  19.330  0.00  0.00    +0.000 A 
ATOM     15  C   UNL     1       2.688   8.129  18.081  0.00  0.00    +0.000 A 
ATOM     16  C   UNL     1       3.371   7.125  17.389  0.00  0.00    +0.000 A 
BRANCH  11  18
ATOM     17  C   UNL     1       5.133   4.180  18.134  0.00  0.00    +0.000 C 
ATOM     18  O   UNL     1       4.109   4.788  17.352  0.00  0.00    +0.000 OA
ENDBRANCH  11  18
ENDBRANCH   5  14
ENDBRANCH   4   7
ENDBRANCH   1   4
BRANCH   1  19
ATOM     19  C   UNL     1      -1.688  10.656  18.539  0.00  0.00    +0.000 C 
BRANCH  19  20
ATOM     20  C   UNL     1      -3.031  10.613  17.888  0.00  0.00    +0.000 C 
ATOM     21  O   UNL     1      -3.667   9.556  17.852  0.00  0.00    +0.000 OA
ATOM     22  N   UNL     1      -3.527  11.777  17.308  0.00  0.00    +0.000 N 
ATOM     23  H   UNL     1      -3.221  12.654  17.712  0.00  0.00    +0.000 HD
BRANCH  22  24
ATOM     24  C   UNL     1      -4.886  11.675  16.781  0.00  0.00    +0.000 C 
BRANCH  24  25
ATOM     25  C   UNL     1      -5.896  12.753  17.179  0.00  0.00    +0.000 C 
BRANCH  25  26
ATOM     26  C   UNL     1      -6.281  12.558  18.640  0.00  0.00    +0.000 A 
ATOM     27  C   UNL     1      -6.002  13.667  19.491  0.00  0.00    +0.000 A 
ATOM     28  C   UNL     1      -6.165  13.625  20.881  0.00  0.00    +0.000 A 
ATOM     29  C   UNL     1      -6.677  12.476  21.455  0.00  0.00    +0.000 A 
ATOM     30  C   UNL     1      -6.951  11.377  20.645  0.00  0.00    +0.000 A 
ATOM     31  C   UNL     1      -6.742  11.382  19.252  0.00  0.00    +0.000 A 
BRANCH  28  32
ATOM     32  O   UNL     1      -5.766  14.742  21.563  0.00  0.00    +0.000 OA
ATOM     33  C   UNL     1      -6.678  15.838  21.578  0.00  0.00    +0.000 C 
ENDBRANCH  28  32
BRANCH  31  34
ATOM     34  O   UNL     1      -7.007  10.135  18.778  0.00  0.00    +0.000 OA
ATOM     35  C   UNL     1      -6.912   8.945  19.522  0.00  0.00    +0.000 C 
ENDBRANCH  31  34
ENDBRANCH  25  26
ENDBRANCH  24  25
ENDBRANCH  22  24
ENDBRANCH  19  20
ENDBRANCH   1  19
TORSDOF 11
ENDMDL
MODEL 4
REMARK VINA RESULT:      -8.0      1.817      2.488
REMARK  Name = 
REMARK  15 active torsions:
REMARK  status: ('A' for Active; 'I' for Inactive)
REMARK    1  A    between atoms: C_1  and  O_2
REMARK    2  A    between atoms: O_2  and  C_3
REMARK    3  A    between atoms: C_6  and  C_7
REMARK    4  A    between atoms: C_9  and  C_10
REMARK    5  A    between atoms: C_10  and  S_11
REMARK    6  A    between atoms: S_11  and  C_14
REMARK    7  A    between atoms: C_14  and  C_15
REMARK    8  A    between atoms: N_17  and  C_18
REMARK    9  A    between atoms: C_18  and  C_19
REMARK   10  A    between atoms: C_19  and  C_20
REMARK   11  A    between atoms: C_22  and  O_23
REMARK   12  A    between atoms: O_23  and  C_24
REMARK   13  A    between atoms: C_27  and  O_28
REMARK   14  A    between atoms: O_28  and  C_29
REMARK   15  A    between atoms: C_30  and  C_31
REMARK                            x       y       z     vdW  Elec       q    Type
REMARK                         _______ _______ _______ _____ _____    ______ ____
ROOT
ATOM      1  S   UNL     1       6.937   5.064  16.752  0.00  0.00    +0.000 S 
ATOM      2  O   UNL     1       7.888   3.999  17.016  0.00  0.00    +0.000 OA
ATOM      3  O   UNL     1       7.128   5.892  15.567  0.00  0.00    +0.000 OA
ENDROOT
BRANCH   1   4
ATOM      4  C   UNL     1       5.305   4.332  16.662  0.00  0.00    +0.000 C 
BRANCH   4   7
ATOM      5  C   UNL     1       3.067   6.339  18.548  0.00  0.00    +0.000 A 
ATOM      6  N   UNL     1       3.795   6.132  17.467  0.00  0.00    +0.000 NA
ATOM      7  C   UNL     1       4.330   4.870  17.639  0.00  0.00    +0.000 A 
ATOM      8  C   UNL     1       3.870   4.348  18.834  0.00  0.00    +0.000 A 
ATOM      9  C   UNL     1       4.048   3.109  19.610  0.00  0.00    +0.000 C 
ATOM     10  O   UNL     1       3.063   5.283  19.415  0.00  0.00    +0.000 OA
BRANCH   5  14
ATOM     11  C   UNL     1       0.807   9.771  19.748  0.00  0.00    +0.000 A 
ATOM     12  C   UNL     1       1.047   8.728  20.645  0.00  0.00    +0.000 A 
ATOM     13  C   UNL     1       1.783   7.605  20.253  0.00  0.00    +0.000 A 
ATOM     14  C   UNL     1       2.280   7.502  18.948  0.00  0.00    +0.000 A 
ATOM     15  C   UNL     1       1.998   8.540  18.044  0.00  0.00    +0.000 A 
ATOM     16  C   UNL     1       1.268   9.666  18.438  0.00  0.00    +0.000 A 
BRANCH  11  18
ATOM     17  C   UNL     1      -0.274  10.720  21.622  0.00  0.00    +0.000 C 
ATOM     18  O   UNL     1       0.089  10.822  20.248  0.00  0.00    +0.000 OA
ENDBRANCH  11  18
ENDBRANCH   5  14
ENDBRANCH   4   7
ENDBRANCH   1   4
BRANCH   1  19
ATOM     19  C   UNL     1       6.980   6.136  18.161  0.00  0.00    +0.000 C 
BRANCH  19  20
ATOM     20  C   UNL     1       7.230   7.546  17.739  0.00  0.00    +0.000 C 
ATOM     21  O   UNL     1       6.506   8.075  16.890  0.00  0.00    +0.000 OA
ATOM     22  N   UNL     1       8.304   8.229  18.303  0.00  0.00    +0.000 N 
ATOM     23  H   UNL     1       8.578   7.956  19.239  0.00  0.00    +0.000 HD
BRANCH  22  24
ATOM     24  C   UNL     1       8.419   9.632  17.910  0.00  0.00    +0.000 C 
BRANCH  24  25
ATOM     25  C   UNL     1       9.674  10.397  18.335  0.00  0.00    +0.000 C 
BRANCH  25  26
ATOM     26  C   UNL     1       9.282  11.817  18.723  0.00  0.00    +0.000 A 
ATOM     27  C   UNL     1       8.199  12.369  17.979  0.00  0.00    +0.000 A 
ATOM     28  C   UNL     1       7.785  13.701  18.104  0.00  0.00    +0.000 A 
ATOM     29  C   UNL     1       8.414  14.507  19.035  0.00  0.00    +0.000 A 
ATOM     30  C   UNL     1       9.479  13.993  19.769  0.00  0.00    +0.000 A 
ATOM     31  C   UNL     1       9.946  12.671  19.618  0.00  0.00    +0.000 A 
BRANCH  28  32
ATOM     32  O   UNL     1       6.791  14.100  17.252  0.00  0.00    +0.000 OA
ATOM     33  C   UNL     1       5.818  14.995  17.785  0.00  0.00    +0.000 C 
ENDBRANCH  28  32
BRANCH  31  34
ATOM     34  O   UNL     1      11.049  12.519  20.397  0.00  0.00    +0.000 OA
ATOM     35  C   UNL     1      12.328  12.161  19.935  0.00  0.00    +0.000 C 
ENDBRANCH  31  34
ENDBRANCH  25  26
ENDBRANCH  24  25
ENDBRANCH  22  24
ENDBRANCH  19  20
ENDBRANCH   1  19
TORSDOF 11
ENDMDL
MODEL 5
REMARK VINA RESULT:      -7.9      2.084      8.213
REMARK  Name = 
REMARK  15 active torsions:
REMARK  status: ('A' for Active; 'I' for Inactive)
REMARK    1  A    between atoms: C_1  and  O_2
REMARK    2  A    between atoms: O_2  and  C_3
REMARK    3  A    between atoms: C_6  and  C_7
REMARK    4  A    between atoms: C_9  and  C_10
REMARK    5  A    between atoms: C_10  and  S_11
REMARK    6  A    between atoms: S_11  and  C_14
REMARK    7  A    between atoms: C_14  and  C_15
REMARK    8  A    between atoms: N_17  and  C_18
REMARK    9  A    between atoms: C_18  and  C_19
REMARK   10  A    between atoms: C_19  and  C_20
REMARK   11  A    between atoms: C_22  and  O_23
REMARK   12  A    between atoms: O_23  and  C_24
REMARK   13  A    between atoms: C_27  and  O_28
REMARK   14  A    between atoms: O_28  and  C_29
REMARK   15  A    between atoms: C_30  and  C_31
REMARK                            x       y       z     vdW  Elec       q    Type
REMARK                         _______ _______ _______ _____ _____    ______ ____
ROOT
ATOM      1  S   UNL     1       5.022   5.669  16.476  0.00  0.00    +0.000 S 
ATOM      2  O   UNL     1       4.479   6.870  15.865  0.00  0.00    +0.000 OA
ATOM      3  O   UNL     1       4.620   4.373  15.942  0.00  0.00    +0.000 OA
ENDROOT
BRANCH   1   4
ATOM      4  C   UNL     1       6.807   5.774  16.401  0.00  0.00    +0.000 C 
BRANCH   4   7
ATOM      5  C   UNL     1       8.216   8.542  18.117  0.00  0.00    +0.000 A 
ATOM      6  N   UNL     1       7.549   8.040  17.095  0.00  0.00    +0.000 NA
ATOM      7  C   UNL     1       7.416   6.696  17.387  0.00  0.00    +0.000 A 
ATOM      8  C   UNL     1       8.001   6.445  18.615  0.00  0.00    +0.000 A 
ATOM      9  C   UNL     1       8.224   5.278  19.486  0.00  0.00    +0.000 C 
ATOM     10  O   UNL     1       8.511   7.621  19.083  0.00  0.00    +0.000 OA
BRANCH   5  14
ATOM     11  C   UNL     1       9.511  12.552  18.873  0.00  0.00    +0.000 A 
ATOM     12  C   UNL     1       8.720  12.258  17.760  0.00  0.00    +0.000 A 
ATOM     13  C   UNL     1       8.299  10.947  17.511  0.00  0.00    +0.000 A 
ATOM     14  C   UNL     1       8.676   9.905  18.367  0.00  0.00    +0.000 A 
ATOM     15  C   UNL     1       9.504  10.208  19.460  0.00  0.00    +0.000 A 
ATOM     16  C   UNL     1       9.920  11.519  19.713  0.00  0.00    +0.000 A 
BRANCH  11  18
ATOM     17  C   UNL     1      10.631  14.177  20.171  0.00  0.00    +0.000 C 
ATOM     18  O   UNL     1       9.849  13.869  19.021  0.00  0.00    +0.000 OA
ENDBRANCH  11  18
ENDBRANCH   5  14
ENDBRANCH   4   7
ENDBRANCH   1   4
BRANCH   1  19
ATOM     19  C   UNL     1       4.541   5.714  18.180  0.00  0.00    +0.000 C 
BRANCH  19  20
ATOM     20  C   UNL     1       3.221   6.395  18.334  0.00  0.00    +0.000 C 
ATOM     21  O   UNL     1       2.210   5.735  18.590  0.00  0.00    +0.000 OA
ATOM     22  N   UNL     1       3.161   7.775  18.158  0.00  0.00    +0.000 N 
ATOM     23  H   UNL     1       3.998   8.301  18.380  0.00  0.00    +0.000 HD
BRANCH  22  24
ATOM     24  C   UNL     1       1.855   8.375  18.423  0.00  0.00    +0.000 C 
BRANCH  24  25
ATOM     25  C   UNL     1       1.698   9.881  18.204  0.00  0.00    +0.000 C 
BRANCH  25  26
ATOM     26  C   UNL     1       0.514  10.381  19.023  0.00  0.00    +0.000 A 
ATOM     27  C   UNL     1      -0.573  10.898  18.259  0.00  0.00    +0.000 A 
ATOM     28  C   UNL     1      -1.687  11.519  18.838  0.00  0.00    +0.000 A 
ATOM     29  C   UNL     1      -1.771  11.583  20.216  0.00  0.00    +0.000 A 
ATOM     30  C   UNL     1      -0.718  11.091  20.984  0.00  0.00    +0.000 A 
ATOM     31  C   UNL     1       0.436  10.511  20.419  0.00  0.00    +0.000 A 
BRANCH  28  32
ATOM     32  O   UNL     1      -2.599  12.044  17.963  0.00  0.00    +0.000 OA
ATOM     33  C   UNL     1      -3.545  11.134  17.408  0.00  0.00    +0.000 C 
ENDBRANCH  28  32
BRANCH  31  34
ATOM     34  O   UNL     1       1.305  10.230  21.425  0.00  0.00    +0.000 OA
ATOM     35  C   UNL     1       1.318   9.044  22.181  0.00  0.00    +0.000 C 
ENDBRANCH  31  34
ENDBRANCH  25  26
ENDBRANCH  24  25
ENDBRANCH  22  24
ENDBRANCH  19  20
ENDBRANCH   1  19
TORSDOF 11
ENDMDL
MODEL 6
REMARK VINA RESULT:      -7.8      2.240      8.576
REMARK  Name = 
REMARK  15 active torsions:
REMARK  status: ('A' for Active; 'I' for Inactive)
REMARK    1  A    between atoms: C_1  and  O_2
REMARK    2  A    between atoms: O_2  and  C_3
REMARK    3  A    between atoms: C_6  and  C_7
REMARK    4  A    between atoms: C_9  and  C_10
REMARK    5  A    between atoms: C_10  and  S_11
REMARK    6  A    between atoms: S_11  and  C_14
REMARK    7  A    between atoms: C_14  and  C_15
REMARK    8  A    between atoms: N_17  and  C_18
REMARK    9  A    between atoms: C_18  and  C_19
REMARK   10  A    between atoms: C_19  and  C_20
REMARK   11  A    between atoms: C_22  and  O_23
REMARK   12  A    between atoms: O_23  and  C_24
REMARK   13  A    between atoms: C_27  and  O_28
REMARK   14  A    between atoms: O_28  and  C_29
REMARK   15  A    between atoms: C_30  and  C_31
REMARK                            x       y       z     vdW  Elec       q    Type
REMARK                         _______ _______ _______ _____ _____    ______ ____
ROOT
ATOM      1  S   UNL     1       5.568   5.747  16.690  0.00  0.00    +0.000 S 
ATOM      2  O   UNL     1       5.203   6.040  18.066  0.00  0.00    +0.000 OA
ATOM      3  O   UNL     1       4.732   6.276  15.619  0.00  0.00    +0.000 OA
ENDROOT
BRANCH   1   4
ATOM      4  C   UNL     1       7.241   6.331  16.431  0.00  0.00    +0.000 C 
BRANCH   4   7
ATOM      5  C   UNL     1       8.541   9.022  18.343  0.00  0.00    +0.000 A 
ATOM      6  N   UNL     1       7.988   8.557  17.239  0.00  0.00    +0.000 NA
ATOM      7  C   UNL     1       7.759   7.219  17.497  0.00  0.00    +0.000 A 
ATOM      8  C   UNL     1       8.172   6.935  18.786  0.00  0.00    +0.000 A 
ATOM      9  C   UNL     1       8.229   5.754  19.664  0.00  0.00    +0.000 C 
ATOM     10  O   UNL     1       8.669   8.084  19.328  0.00  0.00    +0.000 OA
BRANCH   5  14
ATOM     11  C   UNL     1      10.014  12.933  19.270  0.00  0.00    +0.000 A 
ATOM     12  C   UNL     1      10.208  11.871  20.157  0.00  0.00    +0.000 A 
ATOM     13  C   UNL     1       9.724  10.594  19.855  0.00  0.00    +0.000 A 
ATOM     14  C   UNL     1       9.025  10.362  18.665  0.00  0.00    +0.000 A 
ATOM     15  C   UNL     1       8.802  11.447  17.801  0.00  0.00    +0.000 A 
ATOM     16  C   UNL     1       9.292  12.722  18.098  0.00  0.00    +0.000 A 
BRANCH  11  18
ATOM     17  C   UNL     1      10.606  15.137  18.658  0.00  0.00    +0.000 C 
ATOM     18  O   UNL     1      10.543  14.131  19.665  0.00  0.00    +0.000 OA
ENDBRANCH  11  18
ENDBRANCH   5  14
ENDBRANCH   4   7
ENDBRANCH   1   4
BRANCH   1  19
ATOM     19  C   UNL     1       5.574   3.983  16.538  0.00  0.00    +0.000 C 
BRANCH  19  20
ATOM     20  C   UNL     1       4.566   3.375  17.457  0.00  0.00    +0.000 C 
ATOM     21  O   UNL     1       4.815   3.261  18.661  0.00  0.00    +0.000 OA
ATOM     22  N   UNL     1       3.365   2.920  16.919  0.00  0.00    +0.000 N 
ATOM     23  H   UNL     1       3.029   3.393  16.089  0.00  0.00    +0.000 HD
BRANCH  22  24
ATOM     24  C   UNL     1       2.397   2.429  17.898  0.00  0.00    +0.000 C 
BRANCH  24  25
ATOM     25  C   UNL     1       1.110   3.232  18.102  0.00  0.00    +0.000 C 
BRANCH  25  26
ATOM     26  C   UNL     1       1.432   4.493  18.895  0.00  0.00    +0.000 A 
ATOM     27  C   UNL     1       1.757   5.635  18.106  0.00  0.00    +0.000 A 
ATOM     28  C   UNL     1       2.206   6.843  18.656  0.00  0.00    +0.000 A 
ATOM     29  C   UNL     1       2.282   6.958  20.032  0.00  0.00    +0.000 A 
ATOM     30  C   UNL     1       1.976   5.853  20.823  0.00  0.00    +0.000 A 
ATOM     31  C   UNL     1       1.575   4.614  20.286  0.00  0.00    +0.000 A 
BRANCH  28  32
ATOM     32  O   UNL     1       2.564   7.811  17.758  0.00  0.00    +0.000 OA
ATOM     33  C   UNL     1       1.765   8.991  17.744  0.00  0.00    +0.000 C 
ENDBRANCH  28  32
BRANCH  31  34
ATOM     34  O   UNL     1       1.453   3.727  21.309  0.00  0.00    +0.000 OA
ATOM     35  C   UNL     1       2.392   2.734  21.641  0.00  0.00    +0.000 C 
ENDBRANCH  31  34
ENDBRANCH  25  26
ENDBRANCH  24  25
ENDBRANCH  22  24
ENDBRANCH  19  20
ENDBRANCH   1  19
TORSDOF 11
ENDMDL
MODEL 7
REMARK VINA RESULT:      -7.8      2.218      8.503
REMARK  Name = 
REMARK  15 active torsions:
REMARK  status: ('A' for Active; 'I' for Inactive)
REMARK    1  A    between atoms: C_1  and  O_2
REMARK    2  A    between atoms: O_2  and  C_3
REMARK    3  A    between atoms: C_6  and  C_7
REMARK    4  A    between atoms: C_9  and  C_10
REMARK    5  A    between atoms: C_10  and  S_11
REMARK    6  A    between atoms: S_11  and  C_14
REMARK    7  A    between atoms: C_14  and  C_15
REMARK    8  A    between atoms: N_17  and  C_18
REMARK    9  A    between atoms: C_18  and  C_19
REMARK   10  A    between atoms: C_19  and  C_20
REMARK   11  A    between atoms: C_22  and  O_23
REMARK   12  A    between atoms: O_23  and  C_24
REMARK   13  A    between atoms: C_27  and  O_28
REMARK   14  A    between atoms: O_28  and  C_29
REMARK   15  A    between atoms: C_30  and  C_31
REMARK                            x       y       z     vdW  Elec       q    Type
REMARK                         _______ _______ _______ _____ _____    ______ ____
ROOT
ATOM      1  S   UNL     1       6.507   5.660  15.771  0.00  0.00    +0.000 S 
ATOM      2  O   UNL     1       5.445   5.419  14.809  0.00  0.00    +0.000 OA
ATOM      3  O   UNL     1       7.825   6.037  15.275  0.00  0.00    +0.000 OA
ENDROOT
BRANCH   1   4
ATOM      4  C   UNL     1       5.949   6.937  16.895  0.00  0.00    +0.000 C 
BRANCH   4   7
ATOM      5  C   UNL     1       8.369   9.130  18.283  0.00  0.00    +0.000 A 
ATOM      6  N   UNL     1       7.311   8.916  17.524  0.00  0.00    +0.000 NA
ATOM      7  C   UNL     1       7.024   7.576  17.690  0.00  0.00    +0.000 A 
ATOM      8  C   UNL     1       7.928   7.032  18.585  0.00  0.00    +0.000 A 
ATOM      9  C   UNL     1       8.197   5.710  19.177  0.00  0.00    +0.000 C 
ATOM     10  O   UNL     1       8.785   8.022  18.965  0.00  0.00    +0.000 OA
BRANCH   5  14
ATOM     11  C   UNL     1      10.604  12.731  18.888  0.00  0.00    +0.000 A 
ATOM     12  C   UNL     1      10.775  11.974  17.727  0.00  0.00    +0.000 A 
ATOM     13  C   UNL     1      10.047  10.796  17.530  0.00  0.00    +0.000 A 
ATOM     14  C   UNL     1       9.144  10.348  18.502  0.00  0.00    +0.000 A 
ATOM     15  C   UNL     1       9.009  11.098  19.683  0.00  0.00    +0.000 A 
ATOM     16  C   UNL     1       9.732  12.279  19.877  0.00  0.00    +0.000 A 
BRANCH  11  18
ATOM     17  C   UNL     1      11.369  14.517  20.233  0.00  0.00    +0.000 C 
ATOM     18  O   UNL     1      11.359  13.869  18.964  0.00  0.00    +0.000 OA
ENDBRANCH  11  18
ENDBRANCH   5  14
ENDBRANCH   4   7
ENDBRANCH   1   4
BRANCH   1  19
ATOM     19  C   UNL     1       6.696   4.162  16.695  0.00  0.00    +0.000 C 
BRANCH  19  20
ATOM     20  C   UNL     1       5.377   3.481  16.865  0.00  0.00    +0.000 C 
ATOM     21  O   UNL     1       4.900   2.819  15.939  0.00  0.00    +0.000 OA
ATOM     22  N   UNL     1       4.699   3.635  18.071  0.00  0.00    +0.000 N 
ATOM     23  H   UNL     1       5.266   3.790  18.896  0.00  0.00    +0.000 HD
BRANCH  22  24
ATOM     24  C   UNL     1       3.467   2.859  18.191  0.00  0.00    +0.000 C 
BRANCH  24  25
ATOM     25  C   UNL     1       2.148   3.544  17.829  0.00  0.00    +0.000 C 
BRANCH  25  26
ATOM     26  C   UNL     1       1.988   4.796  18.682  0.00  0.00    +0.000 A 
ATOM     27  C   UNL     1       2.333   6.017  18.032  0.00  0.00    +0.000 A 
ATOM     28  C   UNL     1       2.375   7.250  18.694  0.00  0.00    +0.000 A 
ATOM     29  C   UNL     1       2.007   7.302  20.026  0.00  0.00    +0.000 A 
ATOM     30  C   UNL     1       1.672   6.121  20.684  0.00  0.00    +0.000 A 
ATOM     31  C   UNL     1       1.677   4.863  20.049  0.00  0.00    +0.000 A 
BRANCH  28  32
ATOM     32  O   UNL     1       2.814   8.312  17.951  0.00  0.00    +0.000 OA
ATOM     33  C   UNL     1       2.002   9.483  17.973  0.00  0.00    +0.000 C 
ENDBRANCH  28  32
BRANCH  31  34
ATOM     34  O   UNL     1       1.406   3.915  20.984  0.00  0.00    +0.000 OA
ATOM     35  C   UNL     1       2.363   3.108  21.626  0.00  0.00    +0.000 C 
ENDBRANCH  31  34
ENDBRANCH  25  26
ENDBRANCH  24  25
ENDBRANCH  22  24
ENDBRANCH  19  20
ENDBRANCH   1  19
TORSDOF 11
ENDMDL
MODEL 8
REMARK VINA RESULT:      -7.6      1.237      2.858
REMARK  Name = 
REMARK  15 active torsions:
REMARK  status: ('A' for Active; 'I' for Inactive)
REMARK    1  A    between atoms: C_1  and  O_2
REMARK    2  A    between atoms: O_2  and  C_3
REMARK    3  A    between atoms: C_6  and  C_7
REMARK    4  A    between atoms: C_9  and  C_10
REMARK    5  A    between atoms: C_10  and  S_11
REMARK    6  A    between atoms: S_11  and  C_14
REMARK    7  A    between atoms: C_14  and  C_15
REMARK    8  A    between atoms: N_17  and  C_18
REMARK    9  A    between atoms: C_18  and  C_19
REMARK   10  A    between atoms: C_19  and  C_20
REMARK   11  A    between atoms: C_22  and  O_23
REMARK   12  A    between atoms: O_23  and  C_24
REMARK   13  A    between atoms: C_27  and  O_28
REMARK   14  A    between atoms: O_28  and  C_29
REMARK   15  A    between atoms: C_30  and  C_31
REMARK                            x       y       z     vdW  Elec       q    Type
REMARK                         _______ _______ _______ _____ _____    ______ ____
ROOT
ATOM      1  S   UNL     1       6.874   5.261  18.182  0.00  0.00    +0.000 S 
ATOM      2  O   UNL     1       6.012   4.768  19.242  0.00  0.00    +0.000 OA
ATOM      3  O   UNL     1       7.639   4.297  17.400  0.00  0.00    +0.000 OA
ENDROOT
BRANCH   1   4
ATOM      4  C   UNL     1       5.864   6.217  17.054  0.00  0.00    +0.000 C 
BRANCH   4   7
ATOM      5  C   UNL     1       2.775   7.445  18.294  0.00  0.00    +0.000 A 
ATOM      6  N   UNL     1       4.009   7.649  17.874  0.00  0.00    +0.000 NA
ATOM      7  C   UNL     1       4.459   6.403  17.485  0.00  0.00    +0.000 A 
ATOM      8  C   UNL     1       3.443   5.482  17.669  0.00  0.00    +0.000 A 
ATOM      9  C   UNL     1       3.253   4.033  17.482  0.00  0.00    +0.000 C 
ATOM     10  O   UNL     1       2.368   6.145  18.183  0.00  0.00    +0.000 OA
BRANCH   5  14
ATOM     11  C   UNL     1      -0.132  10.152  19.891  0.00  0.00    +0.000 A 
ATOM     12  C   UNL     1       0.229  10.209  18.543  0.00  0.00    +0.000 A 
ATOM     13  C   UNL     1       1.181   9.327  18.021  0.00  0.00    +0.000 A 
ATOM     14  C   UNL     1       1.799   8.379  18.847  0.00  0.00    +0.000 A 
ATOM     15  C   UNL     1       1.456   8.358  20.209  0.00  0.00    +0.000 A 
ATOM     16  C   UNL     1       0.499   9.235  20.729  0.00  0.00    +0.000 A 
BRANCH  11  18
ATOM     17  C   UNL     1      -1.453  12.020  19.306  0.00  0.00    +0.000 C 
ATOM     18  O   UNL     1      -1.082  11.054  20.284  0.00  0.00    +0.000 OA
ENDBRANCH  11  18
ENDBRANCH   5  14
ENDBRANCH   4   7
ENDBRANCH   1   4
BRANCH   1  19
ATOM     19  C   UNL     1       8.031   6.361  18.947  0.00  0.00    +0.000 C 
BRANCH  19  20
ATOM     20  C   UNL     1       8.126   7.639  18.180  0.00  0.00    +0.000 C 
ATOM     21  O   UNL     1       7.822   7.666  16.984  0.00  0.00    +0.000 OA
ATOM     22  N   UNL     1       8.588   8.776  18.837  0.00  0.00    +0.000 N 
ATOM     23  H   UNL     1       8.413   8.830  19.833  0.00  0.00    +0.000 HD
BRANCH  22  24
ATOM     24  C   UNL     1       8.557  10.003  18.043  0.00  0.00    +0.000 C 
BRANCH  24  25
ATOM     25  C   UNL     1       9.807  10.885  18.035  0.00  0.00    +0.000 C 
BRANCH  25  26
ATOM     26  C   UNL     1       9.513  12.170  18.799  0.00  0.00    +0.000 A 
ATOM     27  C   UNL     1       9.770  13.373  18.079  0.00  0.00    +0.000 A 
ATOM     28  C   UNL     1       9.683  14.645  18.658  0.00  0.00    +0.000 A 
ATOM     29  C   UNL     1       9.272  14.749  19.974  0.00  0.00    +0.000 A 
ATOM     30  C   UNL     1       9.022  13.587  20.701  0.00  0.00    +0.000 A 
ATOM     31  C   UNL     1       9.156  12.297  20.151  0.00  0.00    +0.000 A 
BRANCH  28  32
ATOM     32  O   UNL     1      10.050  15.692  17.858  0.00  0.00    +0.000 OA
ATOM     33  C   UNL     1      11.129  15.455  16.957  0.00  0.00    +0.000 C 
ENDBRANCH  28  32
BRANCH  31  34
ATOM     34  O   UNL     1       8.941  11.390  21.140  0.00  0.00    +0.000 OA
ATOM     35  C   UNL     1       8.362  11.671  22.391  0.00  0.00    +0.000 C 
ENDBRANCH  31  34
ENDBRANCH  25  26
ENDBRANCH  24  25
ENDBRANCH  22  24
ENDBRANCH  19  20
ENDBRANCH   1  19
TORSDOF 11
ENDMDL
MODEL 9
REMARK VINA RESULT:      -7.6      2.206      7.278
REMARK  Name = 
REMARK  15 active torsions:
REMARK  status: ('A' for Active; 'I' for Inactive)
REMARK    1  A    between atoms: C_1  and  O_2
REMARK    2  A    between atoms: O_2  and  C_3
REMARK    3  A    between atoms: C_6  and  C_7
REMARK    4  A    between atoms: C_9  and  C_10
REMARK    5  A    between atoms: C_10  and  S_11
REMARK    6  A    between atoms: S_11  and  C_14
REMARK    7  A    between atoms: C_14  and  C_15
REMARK    8  A    between atoms: N_17  and  C_18
REMARK    9  A    between atoms: C_18  and  C_19
REMARK   10  A    between atoms: C_19  and  C_20
REMARK   11  A    between atoms: C_22  and  O_23
REMARK   12  A    between atoms: O_23  and  C_24
REMARK   13  A    between atoms: C_27  and  O_28
REMARK   14  A    between atoms: O_28  and  C_29
REMARK   15  A    between atoms: C_30  and  C_31
REMARK                            x       y       z     vdW  Elec       q    Type
REMARK                         _______ _______ _______ _____ _____    ______ ____
ROOT
ATOM      1  S   UNL     1       4.412   4.973  17.751  0.00  0.00    +0.000 S 
ATOM      2  O   UNL     1       3.116   4.911  17.097  0.00  0.00    +0.000 OA
ATOM      3  O   UNL     1       5.078   3.723  18.097  0.00  0.00    +0.000 OA
ENDROOT
BRANCH   1   4
ATOM      4  C   UNL     1       5.512   5.918  16.701  0.00  0.00    +0.000 C 
BRANCH   4   7
ATOM      5  C   UNL     1       7.751   8.360  17.971  0.00  0.00    +0.000 A 
ATOM      6  N   UNL     1       6.657   8.036  17.308  0.00  0.00    +0.000 NA
ATOM      7  C   UNL     1       6.570   6.662  17.423  0.00  0.00    +0.000 A 
ATOM      8  C   UNL     1       7.627   6.209  18.191  0.00  0.00    +0.000 A 
ATOM      9  C   UNL     1       8.131   4.912  18.675  0.00  0.00    +0.000 C 
ATOM     10  O   UNL     1       8.381   7.291  18.542  0.00  0.00    +0.000 OA
BRANCH   5  14
ATOM     11  C   UNL     1       9.631  12.161  18.563  0.00  0.00    +0.000 A 
ATOM     12  C   UNL     1       9.983  11.062  19.351  0.00  0.00    +0.000 A 
ATOM     13  C   UNL     1       9.367   9.821  19.160  0.00  0.00    +0.000 A 
ATOM     14  C   UNL     1       8.376   9.662  18.183  0.00  0.00    +0.000 A 
ATOM     15  C   UNL     1       8.003  10.784  17.424  0.00  0.00    +0.000 A 
ATOM     16  C   UNL     1       8.623  12.024  17.611  0.00  0.00    +0.000 A 
BRANCH  11  18
ATOM     17  C   UNL     1      11.133  13.291  19.994  0.00  0.00    +0.000 C 
ATOM     18  O   UNL     1      10.309  13.317  18.831  0.00  0.00    +0.000 OA
ENDBRANCH  11  18
ENDBRANCH   5  14
ENDBRANCH   4   7
ENDBRANCH   1   4
BRANCH   1  19
ATOM     19  C   UNL     1       4.173   5.880  19.252  0.00  0.00    +0.000 C 
BRANCH  19  20
ATOM     20  C   UNL     1       2.974   6.763  19.146  0.00  0.00    +0.000 C 
ATOM     21  O   UNL     1       2.090   6.712  20.006  0.00  0.00    +0.000 OA
ATOM     22  N   UNL     1       2.869   7.614  18.049  0.00  0.00    +0.000 N 
ATOM     23  H   UNL     1       3.736   7.937  17.638  0.00  0.00    +0.000 HD
BRANCH  22  24
ATOM     24  C   UNL     1       1.717   8.512  18.071  0.00  0.00    +0.000 C 
BRANCH  24  25
ATOM     25  C   UNL     1       1.955   9.996  17.783  0.00  0.00    +0.000 C 
BRANCH  25  26
ATOM     26  C   UNL     1       1.492  10.815  18.982  0.00  0.00    +0.000 A 
ATOM     27  C   UNL     1       0.768  10.084  19.968  0.00  0.00    +0.000 A 
ATOM     28  C   UNL     1       0.152  10.690  21.071  0.00  0.00    +0.000 A 
ATOM     29  C   UNL     1       0.301  12.053  21.249  0.00  0.00    +0.000 A 
ATOM     30  C   UNL     1       0.998  12.789  20.294  0.00  0.00    +0.000 A 
ATOM     31  C   UNL     1       1.578  12.206  19.150  0.00  0.00    +0.000 A 
BRANCH  28  32
ATOM     32  O   UNL     1      -0.582   9.861  21.875  0.00  0.00    +0.000 OA
ATOM     33  C   UNL     1      -1.002  10.398  23.127  0.00  0.00    +0.000 C 
ENDBRANCH  28  32
BRANCH  31  34
ATOM     34  O   UNL     1       2.090  13.201  18.379  0.00  0.00    +0.000 OA
ATOM     35  C   UNL     1       1.835  14.574  18.548  0.00  0.00    +0.000 C 
ENDBRANCH  31  34
ENDBRANCH  25  26
ENDBRANCH  24  25
ENDBRANCH  22  24
ENDBRANCH  19  20
ENDBRANCH   1  19
TORSDOF 11
ENDMDL
