MODEL 1
REMARK VINA RESULT:      -7.6      0.000      0.000
REMARK  Name = 
REMARK  9 active torsions:
REMARK  status: ('A' for Active; 'I' for Inactive)
REMARK    1  A    between atoms: C_1  and  C_2
REMARK    2  A    between atoms: C_2  and  O_3
REMARK    3  A    between atoms: O_3  and  C_4
REMARK    4  A    between atoms: C_9  and  N_10
REMARK    5  A    between atoms: C_11  and  C_13
REMARK    6  A    between atoms: C_13  and  C_14
REMARK    7  A    between atoms: C_13  and  N_21
REMARK    8  A    between atoms: C_14  and  C_15
REMARK    9  A    between atoms: C_22  and  C_24
REMARK                            x       y       z     vdW  Elec       q    Type
REMARK                         _______ _______ _______ _____ _____    ______ ____
ROOT
ATOM      1  C   UNL     1       3.191   7.658  18.142  0.00  0.00    +0.000 C 
ENDROOT
BRANCH   1   3
ATOM      2  N   UNL     1       1.338   8.852  19.231  0.00  0.00    +0.000 N 
ATOM      3  C   UNL     1       2.222   8.863  18.156  0.00  0.00    +0.000 C 
ATOM      4  O   UNL     1       2.307   9.740  17.295  0.00  0.00    +0.000 OA
ATOM      5  H   UNL     1       1.344   8.041  19.828  0.00  0.00    +0.000 HD
BRANCH   2  11
ATOM      6  C   UNL     1      -0.619  10.301  18.860  0.00  0.00    +0.000 A 
ATOM      7  C   UNL     1      -1.409  11.385  19.278  0.00  0.00    +0.000 A 
ATOM      8  C   UNL     1      -1.127  12.074  20.457  0.00  0.00    +0.000 A 
ATOM      9  C   UNL     1      -0.041  11.690  21.229  0.00  0.00    +0.000 A 
ATOM     10  C   UNL     1       0.752  10.612  20.829  0.00  0.00    +0.000 A 
ATOM     11  C   UNL     1       0.487   9.904  19.646  0.00  0.00    +0.000 A 
BRANCH   6  12
ATOM     12  O   UNL     1      -1.037   9.786  17.657  0.00  0.00    +0.000 OA
BRANCH  12  14
ATOM     13  C   UNL     1      -2.583  10.366  15.890  0.00  0.00    +0.000 C 
ATOM     14  C   UNL     1      -2.417   9.876  17.318  0.00  0.00    +0.000 C 
ENDBRANCH  12  14
ENDBRANCH   6  12
ENDBRANCH   2  11
ENDBRANCH   1   3
BRANCH   1  15
ATOM     15  N   UNL     1       2.504   6.484  18.677  0.00  0.00    +0.000 N 
ATOM     16  C   UNL     1       3.131   5.535  19.449  0.00  0.00    +0.000 C 
ATOM     17  O   UNL     1       4.307   5.672  19.786  0.00  0.00    +0.000 OA
ATOM     18  H   UNL     1       1.562   6.307  18.339  0.00  0.00    +0.000 HD
BRANCH  16  19
ATOM     19  C   UNL     1       2.341   4.367  19.813  0.00  0.00    +0.000 A 
ATOM     20  C   UNL     1       2.079   3.918  21.096  0.00  0.00    +0.000 A 
ATOM     21  C   UNL     1       1.223   2.779  21.117  0.00  0.00    +0.000 A 
ATOM     22  C   UNL     1       0.873   2.379  19.848  0.00  0.00    +0.000 A 
ATOM     23  S   UNL     1       1.593   3.360  18.646  0.00  0.00    +0.000 S 
ENDBRANCH  16  19
ENDBRANCH   1  15
BRANCH   1  24
ATOM     24  C   UNL     1       3.776   7.418  16.734  0.00  0.00    +0.000 C 
BRANCH  24  25
ATOM     25  C   UNL     1       4.974   6.495  16.694  0.00  0.00    +0.000 A 
ATOM     26  C   UNL     1       4.877   5.192  16.191  0.00  0.00    +0.000 A 
ATOM     27  C   UNL     1       5.988   4.352  16.162  0.00  0.00    +0.000 A 
ATOM     28  C   UNL     1       7.209   4.798  16.662  0.00  0.00    +0.000 A 
ATOM     29  C   UNL     1       7.318   6.085  17.179  0.00  0.00    +0.000 A 
ATOM     30  C   UNL     1       6.209   6.932  17.187  0.00  0.00    +0.000 A 
ENDBRANCH  24  25
ENDBRANCH   1  24
TORSDOF 8
ENDMDL
MODEL 2
REMARK VINA RESULT:      -7.5      2.507      7.225
REMARK  Name = 
REMARK  9 active torsions:
REMARK  status: ('A' for Active; 'I' for Inactive)
REMARK    1  A    between atoms: C_1  and  C_2
REMARK    2  A    between atoms: C_2  and  O_3
REMARK    3  A    between atoms: O_3  and  C_4
REMARK    4  A    between atoms: C_9  and  N_10
REMARK    5  A    between atoms: C_11  and  C_13
REMARK    6  A    between atoms: C_13  and  C_14
REMARK    7  A    between atoms: C_13  and  N_21
REMARK    8  A    between atoms: C_14  and  C_15
REMARK    9  A    between atoms: C_22  and  C_24
REMARK                            x       y       z     vdW  Elec       q    Type
REMARK                         _______ _______ _______ _____ _____    ______ ____
ROOT
ATOM      1  C   UNL     1       2.392   6.872  19.858  0.00  0.00    +0.000 C 
ENDROOT
BRANCH   1   3
ATOM      2  N   UNL     1       4.299   6.089  18.518  0.00  0.00    +0.000 N 
ATOM      3  C   UNL     1       2.987   6.549  18.467  0.00  0.00    +0.000 C 
ATOM      4  O   UNL     1       2.297   6.665  17.453  0.00  0.00    +0.000 OA
ATOM      5  H   UNL     1       4.760   6.097  19.414  0.00  0.00    +0.000 HD
BRANCH   2  11
ATOM      6  C   UNL     1       6.107   6.209  16.850  0.00  0.00    +0.000 A 
ATOM      7  C   UNL     1       6.786   5.625  15.767  0.00  0.00    +0.000 A 
ATOM      8  C   UNL     1       6.433   4.364  15.287  0.00  0.00    +0.000 A 
ATOM      9  C   UNL     1       5.386   3.676  15.883  0.00  0.00    +0.000 A 
ATOM     10  C   UNL     1       4.703   4.242  16.961  0.00  0.00    +0.000 A 
ATOM     11  C   UNL     1       5.042   5.510  17.461  0.00  0.00    +0.000 A 
BRANCH   6  12
ATOM     12  O   UNL     1       6.579   7.466  17.142  0.00  0.00    +0.000 OA
BRANCH  12  14
ATOM     13  C   UNL     1       8.194   9.048  18.000  0.00  0.00    +0.000 C 
ATOM     14  C   UNL     1       7.817   7.587  17.835  0.00  0.00    +0.000 C 
ENDBRANCH  12  14
ENDBRANCH   6  12
ENDBRANCH   2  11
ENDBRANCH   1   3
BRANCH   1  15
ATOM     15  N   UNL     1       1.581   8.084  19.763  0.00  0.00    +0.000 N 
ATOM     16  C   UNL     1       1.143   8.783  20.862  0.00  0.00    +0.000 C 
ATOM     17  O   UNL     1       1.481   8.447  21.998  0.00  0.00    +0.000 OA
ATOM     18  H   UNL     1       1.219   8.326  18.843  0.00  0.00    +0.000 HD
BRANCH  16  19
ATOM     19  C   UNL     1       0.250   9.905  20.608  0.00  0.00    +0.000 A 
ATOM     20  C   UNL     1      -0.301  10.258  19.389  0.00  0.00    +0.000 A 
ATOM     21  C   UNL     1      -1.184  11.372  19.486  0.00  0.00    +0.000 A 
ATOM     22  C   UNL     1      -1.264  11.851  20.773  0.00  0.00    +0.000 A 
ATOM     23  S   UNL     1      -0.263  10.973  21.847  0.00  0.00    +0.000 S 
ENDBRANCH  16  19
ENDBRANCH   1  15
BRANCH   1  24
ATOM     24  C   UNL     1       1.610   5.672  20.432  0.00  0.00    +0.000 C 
BRANCH  24  25
ATOM     25  C   UNL     1       2.017   4.326  19.876  0.00  0.00    +0.000 A 
ATOM     26  C   UNL     1       1.299   3.715  18.840  0.00  0.00    +0.000 A 
ATOM     27  C   UNL     1       1.685   2.474  18.338  0.00  0.00    +0.000 A 
ATOM     28  C   UNL     1       2.782   1.814  18.885  0.00  0.00    +0.000 A 
ATOM     29  C   UNL     1       3.498   2.402  19.924  0.00  0.00    +0.000 A 
ATOM     30  C   UNL     1       3.123   3.654  20.411  0.00  0.00    +0.000 A 
ENDBRANCH  24  25
ENDBRANCH   1  24
TORSDOF 8
ENDMDL
MODEL 3
REMARK VINA RESULT:      -7.4      2.418      7.621
REMARK  Name = 
REMARK  9 active torsions:
REMARK  status: ('A' for Active; 'I' for Inactive)
REMARK    1  A    between atoms: C_1  and  C_2
REMARK    2  A    between atoms: C_2  and  O_3
REMARK    3  A    between atoms: O_3  and  C_4
REMARK    4  A    between atoms: C_9  and  N_10
REMARK    5  A    between atoms: C_11  and  C_13
REMARK    6  A    between atoms: C_13  and  C_14
REMARK    7  A    between atoms: C_13  and  N_21
REMARK    8  A    between atoms: C_14  and  C_15
REMARK    9  A    between atoms: C_22  and  C_24
REMARK                            x       y       z     vdW  Elec       q    Type
REMARK                         _______ _______ _______ _____ _____    ______ ____
ROOT
ATOM      1  C   UNL     1       2.616   6.841  18.858  0.00  0.00    +0.000 C 
ENDROOT
BRANCH   1   3
ATOM      2  N   UNL     1       4.403   5.621  17.690  0.00  0.00    +0.000 N 
ATOM      3  C   UNL     1       3.719   6.830  17.773  0.00  0.00    +0.000 C 
ATOM      4  O   UNL     1       3.894   7.814  17.054  0.00  0.00    +0.000 OA
ATOM      5  H   UNL     1       4.192   4.919  18.381  0.00  0.00    +0.000 HD
BRANCH   2  11
ATOM      6  C   UNL     1       6.656   5.631  16.695  0.00  0.00    +0.000 A 
ATOM      7  C   UNL     1       7.507   5.257  15.641  0.00  0.00    +0.000 A 
ATOM      8  C   UNL     1       7.045   4.482  14.578  0.00  0.00    +0.000 A 
ATOM      9  C   UNL     1       5.718   4.078  14.554  0.00  0.00    +0.000 A 
ATOM     10  C   UNL     1       4.861   4.439  15.595  0.00  0.00    +0.000 A 
ATOM     11  C   UNL     1       5.304   5.219  16.675  0.00  0.00    +0.000 A 
BRANCH   6  12
ATOM     12  O   UNL     1       7.291   6.424  17.620  0.00  0.00    +0.000 OA
BRANCH  12  14
ATOM     13  C   UNL     1       8.383   8.459  18.337  0.00  0.00    +0.000 C 
ATOM     14  C   UNL     1       7.431   7.814  17.345  0.00  0.00    +0.000 C 
ENDBRANCH  12  14
ENDBRANCH   6  12
ENDBRANCH   2  11
ENDBRANCH   1   3
BRANCH   1  15
ATOM     15  N   UNL     1       2.013   8.171  18.915  0.00  0.00    +0.000 N 
ATOM     16  C   UNL     1       1.415   8.676  20.046  0.00  0.00    +0.000 C 
ATOM     17  O   UNL     1       1.423   8.041  21.100  0.00  0.00    +0.000 OA
ATOM     18  H   UNL     1       1.917   8.673  18.036  0.00  0.00    +0.000 HD
BRANCH  16  19
ATOM     19  C   UNL     1       0.761   9.970  19.913  0.00  0.00    +0.000 A 
ATOM     20  C   UNL     1       0.716  10.757  18.776  0.00  0.00    +0.000 A 
ATOM     21  C   UNL     1      -0.057  11.941  18.955  0.00  0.00    +0.000 A 
ATOM     22  C   UNL     1      -0.561  12.033  20.231  0.00  0.00    +0.000 A 
ATOM     23  S   UNL     1      -0.086  10.711  21.206  0.00  0.00    +0.000 S 
ENDBRANCH  16  19
ENDBRANCH   1  15
BRANCH   1  24
ATOM     24  C   UNL     1       1.578   5.723  18.621  0.00  0.00    +0.000 C 
BRANCH  24  25
ATOM     25  C   UNL     1       1.658   4.569  19.595  0.00  0.00    +0.000 A 
ATOM     26  C   UNL     1       2.190   4.730  20.881  0.00  0.00    +0.000 A 
ATOM     27  C   UNL     1       2.259   3.657  21.766  0.00  0.00    +0.000 A 
ATOM     28  C   UNL     1       1.817   2.398  21.367  0.00  0.00    +0.000 A 
ATOM     29  C   UNL     1       1.299   2.218  20.089  0.00  0.00    +0.000 A 
ATOM     30  C   UNL     1       1.211   3.299  19.211  0.00  0.00    +0.000 A 
ENDBRANCH  24  25
ENDBRANCH   1  24
TORSDOF 8
ENDMDL
MODEL 4
REMARK VINA RESULT:      -7.4      2.426      7.745
REMARK  Name = 
REMARK  9 active torsions:
REMARK  status: ('A' for Active; 'I' for Inactive)
REMARK    1  A    between atoms: C_1  and  C_2
REMARK    2  A    between atoms: C_2  and  O_3
REMARK    3  A    between atoms: O_3  and  C_4
REMARK    4  A    between atoms: C_9  and  N_10
REMARK    5  A    between atoms: C_11  and  C_13
REMARK    6  A    between atoms: C_13  and  C_14
REMARK    7  A    between atoms: C_13  and  N_21
REMARK    8  A    between atoms: C_14  and  C_15
REMARK    9  A    between atoms: C_22  and  C_24
REMARK                            x       y       z     vdW  Elec       q    Type
REMARK                         _______ _______ _______ _____ _____    ______ ____
ROOT
ATOM      1  C   UNL     1       3.005   6.560  18.323  0.00  0.00    +0.000 C 
ENDROOT
BRANCH   1   3
ATOM      2  N   UNL     1       4.486   5.259  16.853  0.00  0.00    +0.000 N 
ATOM      3  C   UNL     1       4.161   6.538  17.295  0.00  0.00    +0.000 C 
ATOM      4  O   UNL     1       4.672   7.590  16.911  0.00  0.00    +0.000 OA
ATOM      5  H   UNL     1       4.022   4.482  17.297  0.00  0.00    +0.000 HD
BRANCH   2  11
ATOM      6  C   UNL     1       6.726   5.151  15.835  0.00  0.00    +0.000 A 
ATOM      7  C   UNL     1       7.527   4.853  14.721  0.00  0.00    +0.000 A 
ATOM      8  C   UNL     1       6.976   4.326  13.553  0.00  0.00    +0.000 A 
ATOM      9  C   UNL     1       5.609   4.101  13.485  0.00  0.00    +0.000 A 
ATOM     10  C   UNL     1       4.800   4.390  14.585  0.00  0.00    +0.000 A 
ATOM     11  C   UNL     1       5.333   4.920  15.771  0.00  0.00    +0.000 A 
BRANCH   6  12
ATOM     12  O   UNL     1       7.452   5.696  16.867  0.00  0.00    +0.000 OA
BRANCH  12  14
ATOM     13  C   UNL     1       7.193   5.630  19.270  0.00  0.00    +0.000 C 
ATOM     14  C   UNL     1       7.686   4.907  18.029  0.00  0.00    +0.000 C 
ENDBRANCH  12  14
ENDBRANCH   6  12
ENDBRANCH   2  11
ENDBRANCH   1   3
BRANCH   1  15
ATOM     15  N   UNL     1       2.267   7.814  18.189  0.00  0.00    +0.000 N 
ATOM     16  C   UNL     1       1.675   8.454  19.251  0.00  0.00    +0.000 C 
ATOM     17  O   UNL     1       1.801   8.023  20.397  0.00  0.00    +0.000 OA
ATOM     18  H   UNL     1       2.076   8.138  17.244  0.00  0.00    +0.000 HD
BRANCH  16  19
ATOM     19  C   UNL     1       0.880   9.634  18.940  0.00  0.00    +0.000 A 
ATOM     20  C   UNL     1      -0.306   9.663  18.228  0.00  0.00    +0.000 A 
ATOM     21  C   UNL     1      -0.869  10.969  18.148  0.00  0.00    +0.000 A 
ATOM     22  C   UNL     1      -0.084  11.904  18.782  0.00  0.00    +0.000 A 
ATOM     23  S   UNL     1       1.329  11.208  19.448  0.00  0.00    +0.000 S 
ENDBRANCH  16  19
ENDBRANCH   1  15
BRANCH   1  24
ATOM     24  C   UNL     1       2.102   5.316  18.186  0.00  0.00    +0.000 C 
BRANCH  24  25
ATOM     25  C   UNL     1       2.195   4.335  19.333  0.00  0.00    +0.000 A 
ATOM     26  C   UNL     1       3.383   3.649  19.615  0.00  0.00    +0.000 A 
ATOM     27  C   UNL     1       3.454   2.747  20.674  0.00  0.00    +0.000 A 
ATOM     28  C   UNL     1       2.327   2.500  21.453  0.00  0.00    +0.000 A 
ATOM     29  C   UNL     1       1.135   3.164  21.177  0.00  0.00    +0.000 A 
ATOM     30  C   UNL     1       1.072   4.082  20.129  0.00  0.00    +0.000 A 
ENDBRANCH  24  25
ENDBRANCH   1  24
TORSDOF 8
ENDMDL
MODEL 5
REMARK VINA RESULT:      -7.3      2.389      7.721
REMARK  Name = 
REMARK  9 active torsions:
REMARK  status: ('A' for Active; 'I' for Inactive)
REMARK    1  A    between atoms: C_1  and  C_2
REMARK    2  A    between atoms: C_2  and  O_3
REMARK    3  A    between atoms: O_3  and  C_4
REMARK    4  A    between atoms: C_9  and  N_10
REMARK    5  A    between atoms: C_11  and  C_13
REMARK    6  A    between atoms: C_13  and  C_14
REMARK    7  A    between atoms: C_13  and  N_21
REMARK    8  A    between atoms: C_14  and  C_15
REMARK    9  A    between atoms: C_22  and  C_24
REMARK                            x       y       z     vdW  Elec       q    Type
REMARK                         _______ _______ _______ _____ _____    ______ ____
ROOT
ATOM      1  C   UNL     1       2.581   6.857  18.763  0.00  0.00    +0.000 C 
ENDROOT
BRANCH   1   3
ATOM      2  N   UNL     1       4.269   5.516  17.579  0.00  0.00    +0.000 N 
ATOM      3  C   UNL     1       3.858   6.809  17.890  0.00  0.00    +0.000 C 
ATOM      4  O   UNL     1       4.386   7.852  17.503  0.00  0.00    +0.000 OA
ATOM      5  H   UNL     1       3.772   4.754  18.012  0.00  0.00    +0.000 HD
BRANCH   2  11
ATOM      6  C   UNL     1       6.519   4.664  17.052  0.00  0.00    +0.000 A 
ATOM      7  C   UNL     1       7.490   4.351  16.087  0.00  0.00    +0.000 A 
ATOM      8  C   UNL     1       7.230   4.494  14.724  0.00  0.00    +0.000 A 
ATOM      9  C   UNL     1       5.991   4.962  14.312  0.00  0.00    +0.000 A 
ATOM     10  C   UNL     1       5.014   5.275  15.258  0.00  0.00    +0.000 A 
ATOM     11  C   UNL     1       5.254   5.139  16.636  0.00  0.00    +0.000 A 
BRANCH   6  12
ATOM     12  O   UNL     1       6.984   4.494  18.333  0.00  0.00    +0.000 OA
BRANCH  12  14
ATOM     13  C   UNL     1       7.925   6.711  18.551  0.00  0.00    +0.000 C 
ATOM     14  C   UNL     1       7.068   5.631  19.186  0.00  0.00    +0.000 C 
ENDBRANCH  12  14
ENDBRANCH   6  12
ENDBRANCH   2  11
ENDBRANCH   1   3
BRANCH   1  15
ATOM     15  N   UNL     1       1.922   8.148  18.579  0.00  0.00    +0.000 N 
ATOM     16  C   UNL     1       1.354   8.855  19.611  0.00  0.00    +0.000 C 
ATOM     17  O   UNL     1       1.436   8.452  20.772  0.00  0.00    +0.000 OA
ATOM     18  H   UNL     1       1.766   8.454  17.621  0.00  0.00    +0.000 HD
BRANCH  16  19
ATOM     19  C   UNL     1       0.637  10.070  19.252  0.00  0.00    +0.000 A 
ATOM     20  C   UNL     1      -0.735  10.215  19.144  0.00  0.00    +0.000 A 
ATOM     21  C   UNL     1      -1.126  11.549  18.834  0.00  0.00    +0.000 A 
ATOM     22  C   UNL     1      -0.039  12.380  18.693  0.00  0.00    +0.000 A 
ATOM     23  S   UNL     1       1.438  11.547  18.913  0.00  0.00    +0.000 S 
ENDBRANCH  16  19
ENDBRANCH   1  15
BRANCH   1  24
ATOM     24  C   UNL     1       1.649   5.663  18.468  0.00  0.00    +0.000 C 
BRANCH  24  25
ATOM     25  C   UNL     1       1.660   4.576  19.520  0.00  0.00    +0.000 A 
ATOM     26  C   UNL     1       2.220   4.788  20.786  0.00  0.00    +0.000 A 
ATOM     27  C   UNL     1       2.225   3.777  21.744  0.00  0.00    +0.000 A 
ATOM     28  C   UNL     1       1.690   2.528  21.439  0.00  0.00    +0.000 A 
ATOM     29  C   UNL     1       1.143   2.297  20.181  0.00  0.00    +0.000 A 
ATOM     30  C   UNL     1       1.120   3.317  19.230  0.00  0.00    +0.000 A 
ENDBRANCH  24  25
ENDBRANCH   1  24
TORSDOF 8
ENDMDL
MODEL 6
REMARK VINA RESULT:      -7.3      2.522      7.285
REMARK  Name = 
REMARK  9 active torsions:
REMARK  status: ('A' for Active; 'I' for Inactive)
REMARK    1  A    between atoms: C_1  and  C_2
REMARK    2  A    between atoms: C_2  and  O_3
REMARK    3  A    between atoms: O_3  and  C_4
REMARK    4  A    between atoms: C_9  and  N_10
REMARK    5  A    between atoms: C_11  and  C_13
REMARK    6  A    between atoms: C_13  and  C_14
REMARK    7  A    between atoms: C_13  and  N_21
REMARK    8  A    between atoms: C_14  and  C_15
REMARK    9  A    between atoms: C_22  and  C_24
REMARK                            x       y       z     vdW  Elec       q    Type
REMARK                         _______ _______ _______ _____ _____    ______ ____
ROOT
ATOM      1  C   UNL     1       2.316   6.927  19.911  0.00  0.00    +0.000 C 
ENDROOT
BRANCH   1   3
ATOM      2  N   UNL     1       4.185   6.108  18.539  0.00  0.00    +0.000 N 
ATOM      3  C   UNL     1       2.880   6.591  18.510  0.00  0.00    +0.000 C 
ATOM      4  O   UNL     1       2.174   6.717  17.509  0.00  0.00    +0.000 OA
ATOM      5  H   UNL     1       4.662   6.110  19.426  0.00  0.00    +0.000 HD
BRANCH   2  11
ATOM      6  C   UNL     1       5.934   6.212  16.808  0.00  0.00    +0.000 A 
ATOM      7  C   UNL     1       6.583   5.612  15.716  0.00  0.00    +0.000 A 
ATOM      8  C   UNL     1       6.228   4.337  15.274  0.00  0.00    +0.000 A 
ATOM      9  C   UNL     1       5.210   3.651  15.919  0.00  0.00    +0.000 A 
ATOM     10  C   UNL     1       4.558   4.233  17.008  0.00  0.00    +0.000 A 
ATOM     11  C   UNL     1       4.898   5.515  17.470  0.00  0.00    +0.000 A 
BRANCH   6  12
ATOM     12  O   UNL     1       6.401   7.480  17.057  0.00  0.00    +0.000 OA
BRANCH  12  14
ATOM     13  C   UNL     1       7.949   6.617  18.703  0.00  0.00    +0.000 C 
ATOM     14  C   UNL     1       7.709   7.632  17.599  0.00  0.00    +0.000 C 
ENDBRANCH  12  14
ENDBRANCH   6  12
ENDBRANCH   2  11
ENDBRANCH   1   3
BRANCH   1  15
ATOM     15  N   UNL     1       1.527   8.154  19.828  0.00  0.00    +0.000 N 
ATOM     16  C   UNL     1       1.139   8.873  20.934  0.00  0.00    +0.000 C 
ATOM     17  O   UNL     1       1.506   8.542  22.061  0.00  0.00    +0.000 OA
ATOM     18  H   UNL     1       1.140   8.394  18.919  0.00  0.00    +0.000 HD
BRANCH  16  19
ATOM     19  C   UNL     1       0.261  10.010  20.696  0.00  0.00    +0.000 A 
ATOM     20  C   UNL     1      -0.129  10.505  19.464  0.00  0.00    +0.000 A 
ATOM     21  C   UNL     1      -1.044  11.592  19.572  0.00  0.00    +0.000 A 
ATOM     22  C   UNL     1      -1.309  11.909  20.884  0.00  0.00    +0.000 A 
ATOM     23  S   UNL     1      -0.441  10.915  21.971  0.00  0.00    +0.000 S 
ENDBRANCH  16  19
ENDBRANCH   1  15
BRANCH   1  24
ATOM     24  C   UNL     1       1.521   5.743  20.500  0.00  0.00    +0.000 C 
BRANCH  24  25
ATOM     25  C   UNL     1       1.936   4.383  19.985  0.00  0.00    +0.000 A 
ATOM     26  C   UNL     1       3.042   3.705  20.513  0.00  0.00    +0.000 A 
ATOM     27  C   UNL     1       3.413   2.453  20.027  0.00  0.00    +0.000 A 
ATOM     28  C   UNL     1       2.694   1.872  18.985  0.00  0.00    +0.000 A 
ATOM     29  C   UNL     1       1.601   2.538  18.440  0.00  0.00    +0.000 A 
ATOM     30  C   UNL     1       1.219   3.782  18.942  0.00  0.00    +0.000 A 
ENDBRANCH  24  25
ENDBRANCH   1  24
TORSDOF 8
ENDMDL
MODEL 7
REMARK VINA RESULT:      -7.3      2.441      7.505
REMARK  Name = 
REMARK  9 active torsions:
REMARK  status: ('A' for Active; 'I' for Inactive)
REMARK    1  A    between atoms: C_1  and  C_2
REMARK    2  A    between atoms: C_2  and  O_3
REMARK    3  A    between atoms: O_3  and  C_4
REMARK    4  A    between atoms: C_9  and  N_10
REMARK    5  A    between atoms: C_11  and  C_13
REMARK    6  A    between atoms: C_13  and  C_14
REMARK    7  A    between atoms: C_13  and  N_21
REMARK    8  A    between atoms: C_14  and  C_15
REMARK    9  A    between atoms: C_22  and  C_24
REMARK                            x       y       z     vdW  Elec       q    Type
REMARK                         _______ _______ _______ _____ _____    ______ ____
ROOT
ATOM      1  C   UNL     1       2.599   6.805  18.995  0.00  0.00    +0.000 C 
ENDROOT
BRANCH   1   3
ATOM      2  N   UNL     1       4.403   5.623  17.814  0.00  0.00    +0.000 N 
ATOM      3  C   UNL     1       3.696   6.819  17.905  0.00  0.00    +0.000 C 
ATOM      4  O   UNL     1       3.849   7.809  17.188  0.00  0.00    +0.000 OA
ATOM      5  H   UNL     1       4.209   4.915  18.504  0.00  0.00    +0.000 HD
BRANCH   2  11
ATOM      6  C   UNL     1       6.640   5.709  16.788  0.00  0.00    +0.000 A 
ATOM      7  C   UNL     1       7.492   5.353  15.729  0.00  0.00    +0.000 A 
ATOM      8  C   UNL     1       7.049   4.543  14.684  0.00  0.00    +0.000 A 
ATOM      9  C   UNL     1       5.739   4.085  14.684  0.00  0.00    +0.000 A 
ATOM     10  C   UNL     1       4.881   4.428  15.731  0.00  0.00    +0.000 A 
ATOM     11  C   UNL     1       5.306   5.242  16.793  0.00  0.00    +0.000 A 
BRANCH   6  12
ATOM     12  O   UNL     1       7.254   6.543  17.691  0.00  0.00    +0.000 OA
BRANCH  12  14
ATOM     13  C   UNL     1       8.418   8.592  18.235  0.00  0.00    +0.000 C 
ATOM     14  C   UNL     1       7.345   7.931  17.387  0.00  0.00    +0.000 C 
ENDBRANCH  12  14
ENDBRANCH   6  12
ENDBRANCH   2  11
ENDBRANCH   1   3
BRANCH   1  15
ATOM     15  N   UNL     1       2.012   8.139  19.102  0.00  0.00    +0.000 N 
ATOM     16  C   UNL     1       1.402   8.602  20.243  0.00  0.00    +0.000 C 
ATOM     17  O   UNL     1       1.384   7.921  21.269  0.00  0.00    +0.000 OA
ATOM     18  H   UNL     1       1.938   8.681  18.244  0.00  0.00    +0.000 HD
BRANCH  16  19
ATOM     19  C   UNL     1       0.767   9.910  20.158  0.00  0.00    +0.000 A 
ATOM     20  C   UNL     1       0.080  10.558  21.170  0.00  0.00    +0.000 A 
ATOM     21  C   UNL     1      -0.371  11.854  20.786  0.00  0.00    +0.000 A 
ATOM     22  C   UNL     1      -0.034  12.148  19.486  0.00  0.00    +0.000 A 
ATOM     23  S   UNL     1       0.801  10.860  18.732  0.00  0.00    +0.000 S 
ENDBRANCH  16  19
ENDBRANCH   1  15
BRANCH   1  24
ATOM     24  C   UNL     1       1.547   5.709  18.725  0.00  0.00    +0.000 C 
BRANCH  24  25
ATOM     25  C   UNL     1       1.650   4.498  19.625  0.00  0.00    +0.000 A 
ATOM     26  C   UNL     1       1.255   3.226  19.190  0.00  0.00    +0.000 A 
ATOM     27  C   UNL     1       1.354   2.120  20.030  0.00  0.00    +0.000 A 
ATOM     28  C   UNL     1       1.827   2.275  21.330  0.00  0.00    +0.000 A 
ATOM     29  C   UNL     1       2.210   3.534  21.783  0.00  0.00    +0.000 A 
ATOM     30  C   UNL     1       2.130   4.638  20.933  0.00  0.00    +0.000 A 
ENDBRANCH  24  25
ENDBRANCH   1  24
TORSDOF 8
ENDMDL
MODEL 8
REMARK VINA RESULT:      -7.3      1.663      4.279
REMARK  Name = 
REMARK  9 active torsions:
REMARK  status: ('A' for Active; 'I' for Inactive)
REMARK    1  A    between atoms: C_1  and  C_2
REMARK    2  A    between atoms: C_2  and  O_3
REMARK    3  A    between atoms: O_3  and  C_4
REMARK    4  A    between atoms: C_9  and  N_10
REMARK    5  A    between atoms: C_11  and  C_13
REMARK    6  A    between atoms: C_13  and  C_14
REMARK    7  A    between atoms: C_13  and  N_21
REMARK    8  A    between atoms: C_14  and  C_15
REMARK    9  A    between atoms: C_22  and  C_24
REMARK                            x       y       z     vdW  Elec       q    Type
REMARK                         _______ _______ _______ _____ _____    ______ ____
ROOT
ATOM      1  C   UNL     1       2.231   6.873  18.476  0.00  0.00    +0.000 C 
ENDROOT
BRANCH   1   3
ATOM      2  N   UNL     1       0.859   8.885  18.818  0.00  0.00    +0.000 N 
ATOM      3  C   UNL     1       1.930   8.346  18.111  0.00  0.00    +0.000 C 
ATOM      4  O   UNL     1       2.636   8.942  17.298  0.00  0.00    +0.000 OA
ATOM      5  H   UNL     1       0.335   8.263  19.413  0.00  0.00    +0.000 HD
BRANCH   2  11
ATOM      6  C   UNL     1      -0.700  10.699  18.232  0.00  0.00    +0.000 A 
ATOM      7  C   UNL     1      -1.021  12.067  18.266  0.00  0.00    +0.000 A 
ATOM      8  C   UNL     1      -0.207  12.986  18.928  0.00  0.00    +0.000 A 
ATOM      9  C   UNL     1       0.948  12.544  19.558  0.00  0.00    +0.000 A 
ATOM     10  C   UNL     1       1.279  11.188  19.536  0.00  0.00    +0.000 A 
ATOM     11  C   UNL     1       0.474  10.245  18.876  0.00  0.00    +0.000 A 
BRANCH   6  12
ATOM     12  O   UNL     1      -1.604   9.970  17.498  0.00  0.00    +0.000 OA
BRANCH  12  14
ATOM     13  C   UNL     1      -2.803  10.080  15.401  0.00  0.00    +0.000 C 
ATOM     14  C   UNL     1      -2.627  10.664  16.791  0.00  0.00    +0.000 C 
ENDBRANCH  12  14
ENDBRANCH   6  12
ENDBRANCH   2  11
ENDBRANCH   1   3
BRANCH   1  15
ATOM     15  N   UNL     1       3.533   6.499  17.927  0.00  0.00    +0.000 N 
ATOM     16  C   UNL     1       3.782   5.275  17.355  0.00  0.00    +0.000 C 
ATOM     17  O   UNL     1       2.881   4.447  17.218  0.00  0.00    +0.000 OA
ATOM     18  H   UNL     1       4.309   7.131  18.109  0.00  0.00    +0.000 HD
BRANCH  16  19
ATOM     19  C   UNL     1       5.158   5.011  16.955  0.00  0.00    +0.000 A 
ATOM     20  C   UNL     1       5.632   4.908  15.659  0.00  0.00    +0.000 A 
ATOM     21  C   UNL     1       7.041   4.704  15.604  0.00  0.00    +0.000 A 
ATOM     22  C   UNL     1       7.598   4.636  16.859  0.00  0.00    +0.000 A 
ATOM     23  S   UNL     1       6.423   4.796  18.091  0.00  0.00    +0.000 S 
ENDBRANCH  16  19
ENDBRANCH   1  15
BRANCH   1  24
ATOM     24  C   UNL     1       2.134   6.636  19.998  0.00  0.00    +0.000 C 
BRANCH  24  25
ATOM     25  C   UNL     1       1.862   5.203  20.399  0.00  0.00    +0.000 A 
ATOM     26  C   UNL     1       0.889   4.433  19.751  0.00  0.00    +0.000 A 
ATOM     27  C   UNL     1       0.648   3.115  20.133  0.00  0.00    +0.000 A 
ATOM     28  C   UNL     1       1.364   2.556  21.188  0.00  0.00    +0.000 A 
ATOM     29  C   UNL     1       2.325   3.313  21.852  0.00  0.00    +0.000 A 
ATOM     30  C   UNL     1       2.579   4.625  21.455  0.00  0.00    +0.000 A 
ENDBRANCH  24  25
ENDBRANCH   1  24
TORSDOF 8
ENDMDL
MODEL 9
REMARK VINA RESULT:      -7.3      2.721      7.358
REMARK  Name = 
REMARK  9 active torsions:
REMARK  status: ('A' for Active; 'I' for Inactive)
REMARK    1  A    between atoms: C_1  and  C_2
REMARK    2  A    between atoms: C_2  and  O_3
REMARK    3  A    between atoms: O_3  and  C_4
REMARK    4  A    between atoms: C_9  and  N_10
REMARK    5  A    between atoms: C_11  and  C_13
REMARK    6  A    between atoms: C_13  and  C_14
REMARK    7  A    between atoms: C_13  and  N_21
REMARK    8  A    between atoms: C_14  and  C_15
REMARK    9  A    between atoms: C_22  and  C_24
REMARK                            x       y       z     vdW  Elec       q    Type
REMARK                         _______ _______ _______ _____ _____    ______ ____
ROOT
ATOM      1  C   UNL     1       2.018   7.212  20.238  0.00  0.00    +0.000 C 
ENDROOT
BRANCH   1   3
ATOM      2  N   UNL     1       3.836   6.203  18.926  0.00  0.00    +0.000 N 
ATOM      3  C   UNL     1       2.611   6.859  18.854  0.00  0.00    +0.000 C 
ATOM      4  O   UNL     1       1.988   7.121  17.824  0.00  0.00    +0.000 OA
ATOM      5  H   UNL     1       4.257   6.104  19.836  0.00  0.00    +0.000 HD
BRANCH   2  11
ATOM      6  C   UNL     1       5.631   6.177  17.240  0.00  0.00    +0.000 A 
ATOM      7  C   UNL     1       6.255   5.535  16.157  0.00  0.00    +0.000 A 
ATOM      8  C   UNL     1       5.808   4.299  15.693  0.00  0.00    +0.000 A 
ATOM      9  C   UNL     1       4.719   3.693  16.305  0.00  0.00    +0.000 A 
ATOM     10  C   UNL     1       4.090   4.318  17.384  0.00  0.00    +0.000 A 
ATOM     11  C   UNL     1       4.525   5.562  17.868  0.00  0.00    +0.000 A 
BRANCH   6  12
ATOM     12  O   UNL     1       6.196   7.399  17.515  0.00  0.00    +0.000 OA
BRANCH  12  14
ATOM     13  C   UNL     1       8.037   8.923  17.887  0.00  0.00    +0.000 C 
ATOM     14  C   UNL     1       7.615   7.509  17.529  0.00  0.00    +0.000 C 
ENDBRANCH  12  14
ENDBRANCH   6  12
ENDBRANCH   2  11
ENDBRANCH   1   3
BRANCH   1  15
ATOM     15  N   UNL     1       1.437   8.551  20.184  0.00  0.00    +0.000 N 
ATOM     16  C   UNL     1       1.213   9.318  21.302  0.00  0.00    +0.000 C 
ATOM     17  O   UNL     1       1.563   8.927  22.415  0.00  0.00    +0.000 OA
ATOM     18  H   UNL     1       1.061   8.856  19.289  0.00  0.00    +0.000 HD
BRANCH  16  19
ATOM     19  C   UNL     1       0.525  10.585  21.096  0.00  0.00    +0.000 A 
ATOM     20  C   UNL     1      -0.578  11.045  21.794  0.00  0.00    +0.000 A 
ATOM     21  C   UNL     1      -0.978  12.353  21.393  0.00  0.00    +0.000 A 
ATOM     22  C   UNL     1      -0.181  12.844  20.386  0.00  0.00    +0.000 A 
ATOM     23  S   UNL     1       1.024  11.725  19.917  0.00  0.00    +0.000 S 
ENDBRANCH  16  19
ENDBRANCH   1  15
BRANCH   1  24
ATOM     24  C   UNL     1       1.011   6.142  20.711  0.00  0.00    +0.000 C 
BRANCH  24  25
ATOM     25  C   UNL     1       1.451   4.713  20.484  0.00  0.00    +0.000 A 
ATOM     26  C   UNL     1       2.380   4.090  21.328  0.00  0.00    +0.000 A 
ATOM     27  C   UNL     1       2.778   2.774  21.106  0.00  0.00    +0.000 A 
ATOM     28  C   UNL     1       2.270   2.069  20.019  0.00  0.00    +0.000 A 
ATOM     29  C   UNL     1       1.357   2.677  19.163  0.00  0.00    +0.000 A 
ATOM     30  C   UNL     1       0.943   3.989  19.399  0.00  0.00    +0.000 A 
ENDBRANCH  24  25
ENDBRANCH   1  24
TORSDOF 8
ENDMDL
