MODEL 1
REMARK VINA RESULT:      -8.8      0.000      0.000
REMARK  Name = 
REMARK  5 active torsions:
REMARK  status: ('A' for Active; 'I' for Inactive)
REMARK    1  A    between atoms: N_1  and  C_2
REMARK    2  A    between atoms: C_5  and  C_6
REMARK    3  A    between atoms: N_9  and  C_10
REMARK    4  A    between atoms: C_18  and  C_19
REMARK    5  A    between atoms: C_24  and  N_25
REMARK                            x       y       z     vdW  Elec       q    Type
REMARK                         _______ _______ _______ _____ _____    ______ ____
ROOT
ATOM      1  C   UNL     1      -0.209  10.414  22.671  0.00  0.00    +0.000 A 
ATOM      2  N   UNL     1      -0.829  11.498  23.176  0.00  0.00    +0.000 NA
ATOM      3  C   UNL     1      -0.807  12.629  22.459  0.00  0.00    +0.000 A 
ATOM      4  C   UNL     1      -0.198  12.722  21.213  0.00  0.00    +0.000 A 
ATOM      5  C   UNL     1       0.396  11.556  20.683  0.00  0.00    +0.000 A 
ATOM      6  C   UNL     1       0.422  10.349  21.401  0.00  0.00    +0.000 A 
ENDROOT
BRANCH   6   7
ATOM      7  C   UNL     1       1.037   9.095  20.822  0.00  0.00    +0.000 A 
ATOM      8  N   UNL     1       1.191   7.939  21.443  0.00  0.00    +0.000 NA
ATOM      9  C   UNL     1       1.692   7.082  20.490  0.00  0.00    +0.000 A 
ATOM     10  C   UNL     1       1.875   5.705  20.577  0.00  0.00    +0.000 A 
ATOM     11  C   UNL     1       2.123   5.020  19.380  0.00  0.00    +0.000 A 
ATOM     12  C   UNL     1       2.656   5.633  18.253  0.00  0.00    +0.000 A 
ATOM     13  C   UNL     1       2.456   7.043  18.130  0.00  0.00    +0.000 A 
ATOM     14  C   UNL     1       1.901   7.725  19.275  0.00  0.00    +0.000 A 
ATOM     15  O   UNL     1       1.465   9.040  19.474  0.00  0.00    +0.000 OA
BRANCH  12  16
ATOM     16  N   UNL     1       3.435   4.799  17.360  0.00  0.00    +0.000 N 
ATOM     17  C   UNL     1       4.735   5.023  16.801  0.00  0.00    +0.000 A 
ATOM     18  C   UNL     1       5.232   4.075  15.857  0.00  0.00    +0.000 A 
ATOM     19  C   UNL     1       6.572   4.115  15.449  0.00  0.00    +0.000 A 
ATOM     20  C   UNL     1       7.371   5.138  15.910  0.00  0.00    +0.000 A 
ATOM     21  C   UNL     1       6.789   6.090  16.739  0.00  0.00    +0.000 A 
ATOM     22  N   UNL     1       5.515   6.038  17.198  0.00  0.00    +0.000 NA
ATOM     23  H   UNL     1       2.855   4.620  16.543  0.00  0.00    +0.000 HD
ENDBRANCH  12  16
ENDBRANCH   6   7
BRANCH   4  24
ATOM     24  C   UNL     1      -0.187  13.999  20.522  0.00  0.00    +0.000 A 
ATOM     25  C   UNL     1      -1.190  14.963  20.317  0.00  0.00    +0.000 A 
ATOM     26  N   UNL     1      -0.727  16.033  19.585  0.00  0.00    +0.000 NA
ATOM     27  N   UNL     1       0.546  15.680  19.311  0.00  0.00    +0.000 N 
ATOM     28  C   UNL     1       0.918  14.488  19.869  0.00  0.00    +0.000 A 
BRANCH  27  29
ATOM     29  C   UNL     1       1.419  16.546  18.524  0.00  0.00    +0.000 C 
ATOM     30  C   UNL     1       2.891  16.121  18.447  0.00  0.00    +0.000 C 
ATOM     31  C   UNL     1       3.648  16.449  19.736  0.00  0.00    +0.000 C 
ATOM     32  N   UNL     1       3.521  17.867  20.087  0.00  0.00    +0.000 NA
ATOM     33  C   UNL     1       2.118  18.230  20.274  0.00  0.00    +0.000 C 
ATOM     34  C   UNL     1       1.317  18.005  18.998  0.00  0.00    +0.000 C 
ATOM     35  H   UNL     1       3.928  18.438  19.346  0.00  0.00    +0.000 HD
ENDBRANCH  27  29
ENDBRANCH   4  24
BRANCH   1  36
ATOM     36  N   UNL     1      -0.177   9.369  23.635  0.00  0.00    +0.000 N 
ATOM     37  H   UNL     1       0.399   9.685  24.385  0.00  0.00    +0.000 HD
ATOM     38  H   UNL     1      -1.082   9.038  23.873  0.00  0.00    +0.000 HD
ENDBRANCH   1  36
TORSDOF 5
ENDMDL
MODEL 2
REMARK VINA RESULT:      -8.7      3.660     11.458
REMARK  Name = 
REMARK  5 active torsions:
REMARK  status: ('A' for Active; 'I' for Inactive)
REMARK    1  A    between atoms: N_1  and  C_2
REMARK    2  A    between atoms: C_5  and  C_6
REMARK    3  A    between atoms: N_9  and  C_10
REMARK    4  A    between atoms: C_18  and  C_19
REMARK    5  A    between atoms: C_24  and  N_25
REMARK                            x       y       z     vdW  Elec       q    Type
REMARK                         _______ _______ _______ _____ _____    ______ ____
ROOT
ATOM      1  C   UNL     1       1.521  10.291  18.241  0.00  0.00    +0.000 A 
ATOM      2  N   UNL     1       2.345   9.643  17.394  0.00  0.00    +0.000 NA
ATOM      3  C   UNL     1       2.787   8.429  17.748  0.00  0.00    +0.000 A 
ATOM      4  C   UNL     1       2.414   7.806  18.933  0.00  0.00    +0.000 A 
ATOM      5  C   UNL     1       1.506   8.484  19.776  0.00  0.00    +0.000 A 
ATOM      6  C   UNL     1       1.028   9.767  19.465  0.00  0.00    +0.000 A 
ENDROOT
BRANCH   6   7
ATOM      7  C   UNL     1       0.038  10.482  20.356  0.00  0.00    +0.000 A 
ATOM      8  N   UNL     1      -0.282  10.151  21.594  0.00  0.00    +0.000 NA
ATOM      9  C   UNL     1      -1.131  11.144  22.025  0.00  0.00    +0.000 A 
ATOM     10  C   UNL     1      -1.625  11.364  23.308  0.00  0.00    +0.000 A 
ATOM     11  C   UNL     1      -2.233  12.603  23.552  0.00  0.00    +0.000 A 
ATOM     12  C   UNL     1      -2.787  13.385  22.547  0.00  0.00    +0.000 A 
ATOM     13  C   UNL     1      -2.276  13.195  21.226  0.00  0.00    +0.000 A 
ATOM     14  C   UNL     1      -1.385  12.077  21.025  0.00  0.00    +0.000 A 
ATOM     15  O   UNL     1      -0.616  11.663  19.931  0.00  0.00    +0.000 OA
BRANCH  12  16
ATOM     16  N   UNL     1      -3.886  14.251  22.922  0.00  0.00    +0.000 N 
ATOM     17  C   UNL     1      -5.248  13.924  23.224  0.00  0.00    +0.000 A 
ATOM     18  C   UNL     1      -6.159  14.995  23.466  0.00  0.00    +0.000 A 
ATOM     19  C   UNL     1      -7.435  14.739  23.983  0.00  0.00    +0.000 A 
ATOM     20  C   UNL     1      -7.820  13.429  24.169  0.00  0.00    +0.000 A 
ATOM     21  C   UNL     1      -6.921  12.433  23.806  0.00  0.00    +0.000 A 
ATOM     22  N   UNL     1      -5.659  12.656  23.365  0.00  0.00    +0.000 NA
ATOM     23  H   UNL     1      -3.970  14.954  22.189  0.00  0.00    +0.000 HD
ENDBRANCH  12  16
ENDBRANCH   6   7
BRANCH   4  24
ATOM     24  C   UNL     1       2.973   6.505  19.257  0.00  0.00    +0.000 A 
ATOM     25  C   UNL     1       4.290   6.015  19.224  0.00  0.00    +0.000 A 
ATOM     26  N   UNL     1       4.354   4.696  19.614  0.00  0.00    +0.000 NA
ATOM     27  N   UNL     1       3.060   4.386  19.834  0.00  0.00    +0.000 N 
ATOM     28  C   UNL     1       2.204   5.438  19.657  0.00  0.00    +0.000 A 
BRANCH  27  29
ATOM     29  C   UNL     1       2.665   3.047  20.262  0.00  0.00    +0.000 C 
ATOM     30  C   UNL     1       3.205   1.888  19.414  0.00  0.00    +0.000 C 
ATOM     31  C   UNL     1       2.442   1.742  18.095  0.00  0.00    +0.000 C 
ATOM     32  N   UNL     1       1.000   1.611  18.320  0.00  0.00    +0.000 NA
ATOM     33  C   UNL     1       0.477   2.780  19.024  0.00  0.00    +0.000 C 
ATOM     34  C   UNL     1       1.137   2.940  20.389  0.00  0.00    +0.000 C 
ATOM     35  H   UNL     1       0.816   0.770  18.867  0.00  0.00    +0.000 HD
ENDBRANCH  27  29
ENDBRANCH   4  24
BRANCH   1  36
ATOM     36  N   UNL     1       1.300  11.622  17.793  0.00  0.00    +0.000 N 
ATOM     37  H   UNL     1       0.784  12.086  18.508  0.00  0.00    +0.000 HD
ATOM     38  H   UNL     1       2.131  12.065  17.478  0.00  0.00    +0.000 HD
ENDBRANCH   1  36
TORSDOF 5
ENDMDL
MODEL 3
REMARK VINA RESULT:      -8.6      0.799      1.201
REMARK  Name = 
REMARK  5 active torsions:
REMARK  status: ('A' for Active; 'I' for Inactive)
REMARK    1  A    between atoms: N_1  and  C_2
REMARK    2  A    between atoms: C_5  and  C_6
REMARK    3  A    between atoms: N_9  and  C_10
REMARK    4  A    between atoms: C_18  and  C_19
REMARK    5  A    between atoms: C_24  and  N_25
REMARK                            x       y       z     vdW  Elec       q    Type
REMARK                         _______ _______ _______ _____ _____    ______ ____
ROOT
ATOM      1  C   UNL     1      -0.239  10.501  22.550  0.00  0.00    +0.000 A 
ATOM      2  N   UNL     1      -0.823  11.616  23.030  0.00  0.00    +0.000 NA
ATOM      3  C   UNL     1      -0.618  12.768  22.377  0.00  0.00    +0.000 A 
ATOM      4  C   UNL     1       0.150  12.855  21.222  0.00  0.00    +0.000 A 
ATOM      5  C   UNL     1       0.705  11.661  20.710  0.00  0.00    +0.000 A 
ATOM      6  C   UNL     1       0.540  10.430  21.365  0.00  0.00    +0.000 A 
ENDROOT
BRANCH   6   7
ATOM      7  C   UNL     1       1.115   9.150  20.803  0.00  0.00    +0.000 A 
ATOM      8  N   UNL     1       1.246   8.002  21.444  0.00  0.00    +0.000 NA
ATOM      9  C   UNL     1       1.714   7.115  20.502  0.00  0.00    +0.000 A 
ATOM     10  C   UNL     1       1.862   5.735  20.613  0.00  0.00    +0.000 A 
ATOM     11  C   UNL     1       2.079   5.022  19.426  0.00  0.00    +0.000 A 
ATOM     12  C   UNL     1       2.616   5.599  18.283  0.00  0.00    +0.000 A 
ATOM     13  C   UNL     1       2.451   7.011  18.135  0.00  0.00    +0.000 A 
ATOM     14  C   UNL     1       1.927   7.730  19.273  0.00  0.00    +0.000 A 
ATOM     15  O   UNL     1       1.527   9.059  19.452  0.00  0.00    +0.000 OA
BRANCH  12  16
ATOM     16  N   UNL     1       3.363   4.729  17.398  0.00  0.00    +0.000 N 
ATOM     17  C   UNL     1       4.656   4.915  16.809  0.00  0.00    +0.000 A 
ATOM     18  C   UNL     1       5.118   3.934  15.881  0.00  0.00    +0.000 A 
ATOM     19  C   UNL     1       6.450   3.939  15.447  0.00  0.00    +0.000 A 
ATOM     20  C   UNL     1       7.276   4.959  15.866  0.00  0.00    +0.000 A 
ATOM     21  C   UNL     1       6.726   5.942  16.681  0.00  0.00    +0.000 A 
ATOM     22  N   UNL     1       5.461   5.926  17.165  0.00  0.00    +0.000 NA
ATOM     23  H   UNL     1       2.764   4.540  16.596  0.00  0.00    +0.000 HD
ENDBRANCH  12  16
ENDBRANCH   6   7
BRANCH   4  24
ATOM     24  C   UNL     1       0.354  14.151  20.601  0.00  0.00    +0.000 A 
ATOM     25  C   UNL     1      -0.550  15.097  20.084  0.00  0.00    +0.000 A 
ATOM     26  N   UNL     1       0.100  16.199  19.576  0.00  0.00    +0.000 NA
ATOM     27  N   UNL     1       1.401  15.885  19.750  0.00  0.00    +0.000 N 
ATOM     28  C   UNL     1       1.599  14.687  20.377  0.00  0.00    +0.000 A 
BRANCH  27  29
ATOM     29  C   UNL     1       2.461  16.797  19.327  0.00  0.00    +0.000 C 
ATOM     30  C   UNL     1       2.716  16.870  17.816  0.00  0.00    +0.000 C 
ATOM     31  C   UNL     1       3.495  15.654  17.309  0.00  0.00    +0.000 C 
ATOM     32  N   UNL     1       4.744  15.468  18.053  0.00  0.00    +0.000 NA
ATOM     33  C   UNL     1       4.477  15.279  19.477  0.00  0.00    +0.000 C 
ATOM     34  C   UNL     1       3.773  16.494  20.069  0.00  0.00    +0.000 C 
ATOM     35  H   UNL     1       5.343  16.283  17.920  0.00  0.00    +0.000 HD
ENDBRANCH  27  29
ENDBRANCH   4  24
BRANCH   1  36
ATOM     36  N   UNL     1      -0.415   9.421  23.458  0.00  0.00    +0.000 N 
ATOM     37  H   UNL     1       0.461   9.276  23.909  0.00  0.00    +0.000 HD
ATOM     38  H   UNL     1      -1.209   9.537  24.043  0.00  0.00    +0.000 HD
ENDBRANCH   1  36
TORSDOF 5
ENDMDL
MODEL 4
REMARK VINA RESULT:      -8.5      3.712      6.199
REMARK  Name = 
REMARK  5 active torsions:
REMARK  status: ('A' for Active; 'I' for Inactive)
REMARK    1  A    between atoms: N_1  and  C_2
REMARK    2  A    between atoms: C_5  and  C_6
REMARK    3  A    between atoms: N_9  and  C_10
REMARK    4  A    between atoms: C_18  and  C_19
REMARK    5  A    between atoms: C_24  and  N_25
REMARK                            x       y       z     vdW  Elec       q    Type
REMARK                         _______ _______ _______ _____ _____    ______ ____
ROOT
ATOM      1  C   UNL     1       0.126  13.228  21.733  0.00  0.00    +0.000 A 
ATOM      2  N   UNL     1      -0.406  14.179  22.526  0.00  0.00    +0.000 NA
ATOM      3  C   UNL     1      -1.645  13.987  22.996  0.00  0.00    +0.000 A 
ATOM      4  C   UNL     1      -2.390  12.846  22.722  0.00  0.00    +0.000 A 
ATOM      5  C   UNL     1      -1.787  11.841  21.934  0.00  0.00    +0.000 A 
ATOM      6  C   UNL     1      -0.499  11.998  21.396  0.00  0.00    +0.000 A 
ENDROOT
BRANCH   6   7
ATOM      7  C   UNL     1       0.154  10.912  20.573  0.00  0.00    +0.000 A 
ATOM      8  N   UNL     1       0.426  10.964  19.281  0.00  0.00    +0.000 NA
ATOM      9  C   UNL     1       1.106   9.800  19.008  0.00  0.00    +0.000 A 
ATOM     10  C   UNL     1       1.762   9.436  17.835  0.00  0.00    +0.000 A 
ATOM     11  C   UNL     1       2.623   8.333  17.904  0.00  0.00    +0.000 A 
ATOM     12  C   UNL     1       2.501   7.337  18.864  0.00  0.00    +0.000 A 
ATOM     13  C   UNL     1       1.855   7.695  20.088  0.00  0.00    +0.000 A 
ATOM     14  C   UNL     1       1.214   8.988  20.132  0.00  0.00    +0.000 A 
ATOM     15  O   UNL     1       0.607   9.709  21.167  0.00  0.00    +0.000 OA
BRANCH  12  16
ATOM     16  N   UNL     1       2.964   6.013  18.498  0.00  0.00    +0.000 N 
ATOM     17  C   UNL     1       2.535   4.731  18.971  0.00  0.00    +0.000 A 
ATOM     18  C   UNL     1       3.238   3.576  18.514  0.00  0.00    +0.000 A 
ATOM     19  C   UNL     1       2.732   2.293  18.759  0.00  0.00    +0.000 A 
ATOM     20  C   UNL     1       1.592   2.169  19.523  0.00  0.00    +0.000 A 
ATOM     21  C   UNL     1       1.023   3.332  20.029  0.00  0.00    +0.000 A 
ATOM     22  N   UNL     1       1.456   4.586  19.754  0.00  0.00    +0.000 NA
ATOM     23  H   UNL     1       3.969   5.998  18.656  0.00  0.00    +0.000 HD
ENDBRANCH  12  16
ENDBRANCH   6   7
BRANCH   4  24
ATOM     24  C   UNL     1      -3.741  12.739  23.241  0.00  0.00    +0.000 A 
ATOM     25  C   UNL     1      -4.235  12.357  24.501  0.00  0.00    +0.000 A 
ATOM     26  N   UNL     1      -5.610  12.395  24.543  0.00  0.00    +0.000 NA
ATOM     27  N   UNL     1      -5.938  12.754  23.285  0.00  0.00    +0.000 N 
ATOM     28  C   UNL     1      -4.858  12.992  22.481  0.00  0.00    +0.000 A 
BRANCH  27  29
ATOM     29  C   UNL     1      -7.334  12.903  22.880  0.00  0.00    +0.000 C 
ATOM     30  C   UNL     1      -7.906  11.765  22.025  0.00  0.00    +0.000 C 
ATOM     31  C   UNL     1      -7.427  11.846  20.573  0.00  0.00    +0.000 C 
ATOM     32  N   UNL     1      -7.720  13.155  19.983  0.00  0.00    +0.000 NA
ATOM     33  C   UNL     1      -7.068  14.222  20.740  0.00  0.00    +0.000 C 
ATOM     34  C   UNL     1      -7.562  14.253  22.182  0.00  0.00    +0.000 C 
ATOM     35  H   UNL     1      -8.728  13.307  19.974  0.00  0.00    +0.000 HD
ENDBRANCH  27  29
ENDBRANCH   4  24
BRANCH   1  36
ATOM     36  N   UNL     1       1.360  13.675  21.186  0.00  0.00    +0.000 N 
ATOM     37  H   UNL     1       1.197  13.865  20.221  0.00  0.00    +0.000 HD
ATOM     38  H   UNL     1       1.778  14.398  21.722  0.00  0.00    +0.000 HD
ENDBRANCH   1  36
TORSDOF 5
ENDMDL
MODEL 5
REMARK VINA RESULT:      -8.4      3.629      6.081
REMARK  Name = 
REMARK  5 active torsions:
REMARK  status: ('A' for Active; 'I' for Inactive)
REMARK    1  A    between atoms: N_1  and  C_2
REMARK    2  A    between atoms: C_5  and  C_6
REMARK    3  A    between atoms: N_9  and  C_10
REMARK    4  A    between atoms: C_18  and  C_19
REMARK    5  A    between atoms: C_24  and  N_25
REMARK                            x       y       z     vdW  Elec       q    Type
REMARK                         _______ _______ _______ _____ _____    ______ ____
ROOT
ATOM      1  C   UNL     1      -0.287  12.997  19.360  0.00  0.00    +0.000 A 
ATOM      2  N   UNL     1      -0.944  14.106  19.753  0.00  0.00    +0.000 NA
ATOM      3  C   UNL     1      -1.918  13.973  20.663  0.00  0.00    +0.000 A 
ATOM      4  C   UNL     1      -2.261  12.751  21.229  0.00  0.00    +0.000 A 
ATOM      5  C   UNL     1      -1.519  11.614  20.840  0.00  0.00    +0.000 A 
ATOM      6  C   UNL     1      -0.501  11.692  19.875  0.00  0.00    +0.000 A 
ENDROOT
BRANCH   6   7
ATOM      7  C   UNL     1       0.307  10.478  19.476  0.00  0.00    +0.000 A 
ATOM      8  N   UNL     1       0.811  10.231  18.280  0.00  0.00    +0.000 NA
ATOM      9  C   UNL     1       1.546   9.078  18.430  0.00  0.00    +0.000 A 
ATOM     10  C   UNL     1       2.412   8.480  17.518  0.00  0.00    +0.000 A 
ATOM     11  C   UNL     1       3.261   7.479  18.010  0.00  0.00    +0.000 A 
ATOM     12  C   UNL     1       2.979   6.742  19.153  0.00  0.00    +0.000 A 
ATOM     13  C   UNL     1       2.114   7.348  20.115  0.00  0.00    +0.000 A 
ATOM     14  C   UNL     1       1.457   8.572  19.723  0.00  0.00    +0.000 A 
ATOM     15  O   UNL     1       0.660   9.486  20.421  0.00  0.00    +0.000 OA
BRANCH  12  16
ATOM     16  N   UNL     1       3.520   5.399  19.216  0.00  0.00    +0.000 N 
ATOM     17  C   UNL     1       2.845   4.137  19.147  0.00  0.00    +0.000 A 
ATOM     18  C   UNL     1       3.616   2.951  19.341  0.00  0.00    +0.000 A 
ATOM     19  C   UNL     1       3.065   1.693  19.065  0.00  0.00    +0.000 A 
ATOM     20  C   UNL     1       1.741   1.621  18.689  0.00  0.00    +0.000 A 
ATOM     21  C   UNL     1       1.021   2.808  18.630  0.00  0.00    +0.000 A 
ATOM     22  N   UNL     1       1.546   4.041  18.829  0.00  0.00    +0.000 NA
ATOM     23  H   UNL     1       4.051   5.335  20.082  0.00  0.00    +0.000 HD
ENDBRANCH  12  16
ENDBRANCH   6   7
BRANCH   4  24
ATOM     24  C   UNL     1      -3.358  12.691  22.179  0.00  0.00    +0.000 A 
ATOM     25  C   UNL     1      -3.388  12.446  23.563  0.00  0.00    +0.000 A 
ATOM     26  N   UNL     1      -4.672  12.478  24.059  0.00  0.00    +0.000 NA
ATOM     27  N   UNL     1      -5.414  12.697  22.954  0.00  0.00    +0.000 N 
ATOM     28  C   UNL     1      -4.673  12.853  21.816  0.00  0.00    +0.000 A 
BRANCH  27  29
ATOM     29  C   UNL     1      -6.870  12.791  23.027  0.00  0.00    +0.000 C 
ATOM     30  C   UNL     1      -7.579  13.200  21.729  0.00  0.00    +0.000 C 
ATOM     31  C   UNL     1      -7.447  14.700  21.455  0.00  0.00    +0.000 C 
ATOM     32  N   UNL     1      -7.916  15.497  22.592  0.00  0.00    +0.000 NA
ATOM     33  C   UNL     1      -7.150  15.183  23.796  0.00  0.00    +0.000 C 
ATOM     34  C   UNL     1      -7.302  13.715  24.176  0.00  0.00    +0.000 C 
ATOM     35  H   UNL     1      -8.905  15.308  22.754  0.00  0.00    +0.000 HD
ENDBRANCH  27  29
ENDBRANCH   4  24
BRANCH   1  36
ATOM     36  N   UNL     1       0.579  13.297  18.272  0.00  0.00    +0.000 N 
ATOM     37  H   UNL     1       0.001  13.583  17.512  0.00  0.00    +0.000 HD
ATOM     38  H   UNL     1       1.320  13.905  18.527  0.00  0.00    +0.000 HD
ENDBRANCH   1  36
TORSDOF 5
ENDMDL
MODEL 6
REMARK VINA RESULT:      -8.3      3.639     11.131
REMARK  Name = 
REMARK  5 active torsions:
REMARK  status: ('A' for Active; 'I' for Inactive)
REMARK    1  A    between atoms: N_1  and  C_2
REMARK    2  A    between atoms: C_5  and  C_6
REMARK    3  A    between atoms: N_9  and  C_10
REMARK    4  A    between atoms: C_18  and  C_19
REMARK    5  A    between atoms: C_24  and  N_25
REMARK                            x       y       z     vdW  Elec       q    Type
REMARK                         _______ _______ _______ _____ _____    ______ ____
ROOT
ATOM      1  C   UNL     1       2.021  10.131  18.106  0.00  0.00    +0.000 A 
ATOM      2  N   UNL     1       2.888   9.603  17.220  0.00  0.00    +0.000 NA
ATOM      3  C   UNL     1       3.302   8.344  17.415  0.00  0.00    +0.000 A 
ATOM      4  C   UNL     1       2.858   7.558  18.471  0.00  0.00    +0.000 A 
ATOM      5  C   UNL     1       1.907   8.117  19.353  0.00  0.00    +0.000 A 
ATOM      6  C   UNL     1       1.455   9.439  19.210  0.00  0.00    +0.000 A 
ENDROOT
BRANCH   6   7
ATOM      7  C   UNL     1       0.419  10.028  20.140  0.00  0.00    +0.000 A 
ATOM      8  N   UNL     1       0.219   9.694  21.402  0.00  0.00    +0.000 NA
ATOM      9  C   UNL     1      -0.743  10.565  21.858  0.00  0.00    +0.000 A 
ATOM     10  C   UNL     1      -1.193  10.750  23.162  0.00  0.00    +0.000 A 
ATOM     11  C   UNL     1      -1.965  11.893  23.412  0.00  0.00    +0.000 A 
ATOM     12  C   UNL     1      -2.683  12.552  22.423  0.00  0.00    +0.000 A 
ATOM     13  C   UNL     1      -2.222  12.398  21.079  0.00  0.00    +0.000 A 
ATOM     14  C   UNL     1      -1.186  11.418  20.853  0.00  0.00    +0.000 A 
ATOM     15  O   UNL     1      -0.425  11.087  19.727  0.00  0.00    +0.000 OA
BRANCH  12  16
ATOM     16  N   UNL     1      -3.877  13.259  22.841  0.00  0.00    +0.000 N 
ATOM     17  C   UNL     1      -5.215  13.172  22.338  0.00  0.00    +0.000 A 
ATOM     18  C   UNL     1      -6.192  14.067  22.869  0.00  0.00    +0.000 A 
ATOM     19  C   UNL     1      -7.552  13.882  22.586  0.00  0.00    +0.000 A 
ATOM     20  C   UNL     1      -7.914  12.875  21.718  0.00  0.00    +0.000 A 
ATOM     21  C   UNL     1      -6.899  12.113  21.152  0.00  0.00    +0.000 A 
ATOM     22  N   UNL     1      -5.584  12.230  21.458  0.00  0.00    +0.000 NA
ATOM     23  H   UNL     1      -3.667  14.254  22.779  0.00  0.00    +0.000 HD
ENDBRANCH  12  16
ENDBRANCH   6   7
BRANCH   4  24
ATOM     24  C   UNL     1       3.389   6.216  18.629  0.00  0.00    +0.000 A 
ATOM     25  C   UNL     1       4.668   5.679  18.396  0.00  0.00    +0.000 A 
ATOM     26  N   UNL     1       4.716   4.333  18.680  0.00  0.00    +0.000 NA
ATOM     27  N   UNL     1       3.445   4.058  19.040  0.00  0.00    +0.000 N 
ATOM     28  C   UNL     1       2.626   5.152  19.047  0.00  0.00    +0.000 A 
BRANCH  27  29
ATOM     29  C   UNL     1       3.042   2.706  19.420  0.00  0.00    +0.000 C 
ATOM     30  C   UNL     1       1.605   2.310  19.056  0.00  0.00    +0.000 C 
ATOM     31  C   UNL     1       0.583   2.934  20.010  0.00  0.00    +0.000 C 
ATOM     32  N   UNL     1       0.887   2.613  21.407  0.00  0.00    +0.000 NA
ATOM     33  C   UNL     1       2.214   3.103  21.774  0.00  0.00    +0.000 C 
ATOM     34  C   UNL     1       3.295   2.458  20.915  0.00  0.00    +0.000 C 
ATOM     35  H   UNL     1       0.844   1.603  21.541  0.00  0.00    +0.000 HD
ENDBRANCH  27  29
ENDBRANCH   4  24
BRANCH   1  36
ATOM     36  N   UNL     1       1.834  11.517  17.849  0.00  0.00    +0.000 N 
ATOM     37  H   UNL     1       1.296  11.586  17.012  0.00  0.00    +0.000 HD
ATOM     38  H   UNL     1       1.498  12.012  18.641  0.00  0.00    +0.000 HD
ENDBRANCH   1  36
TORSDOF 5
ENDMDL
MODEL 7
REMARK VINA RESULT:      -8.3      2.996      5.306
REMARK  Name = 
REMARK  5 active torsions:
REMARK  status: ('A' for Active; 'I' for Inactive)
REMARK    1  A    between atoms: N_1  and  C_2
REMARK    2  A    between atoms: C_5  and  C_6
REMARK    3  A    between atoms: N_9  and  C_10
REMARK    4  A    between atoms: C_18  and  C_19
REMARK    5  A    between atoms: C_24  and  N_25
REMARK                            x       y       z     vdW  Elec       q    Type
REMARK                         _______ _______ _______ _____ _____    ______ ____
ROOT
ATOM      1  C   UNL     1       0.843  12.071  19.817  0.00  0.00    +0.000 A 
ATOM      2  N   UNL     1       0.329  13.288  20.078  0.00  0.00    +0.000 NA
ATOM      3  C   UNL     1      -0.714  13.367  20.915  0.00  0.00    +0.000 A 
ATOM      4  C   UNL     1      -1.268  12.255  21.538  0.00  0.00    +0.000 A 
ATOM      5  C   UNL     1      -0.675  10.998  21.289  0.00  0.00    +0.000 A 
ATOM      6  C   UNL     1       0.406  10.854  20.404  0.00  0.00    +0.000 A 
ENDROOT
BRANCH   6   7
ATOM      7  C   UNL     1       1.055   9.511  20.157  0.00  0.00    +0.000 A 
ATOM      8  N   UNL     1       1.134   8.509  21.015  0.00  0.00    +0.000 NA
ATOM      9  C   UNL     1       1.709   7.477  20.311  0.00  0.00    +0.000 A 
ATOM     10  C   UNL     1       1.863   6.148  20.697  0.00  0.00    +0.000 A 
ATOM     11  C   UNL     1       2.213   5.232  19.696  0.00  0.00    +0.000 A 
ATOM     12  C   UNL     1       2.858   5.601  18.523  0.00  0.00    +0.000 A 
ATOM     13  C   UNL     1       2.690   6.954  18.093  0.00  0.00    +0.000 A 
ATOM     14  C   UNL     1       2.041   7.856  19.015  0.00  0.00    +0.000 A 
ATOM     15  O   UNL     1       1.607   9.181  18.896  0.00  0.00    +0.000 OA
BRANCH  12  16
ATOM     16  N   UNL     1       3.705   4.605  17.899  0.00  0.00    +0.000 N 
ATOM     17  C   UNL     1       4.576   4.724  16.768  0.00  0.00    +0.000 A 
ATOM     18  C   UNL     1       5.226   3.545  16.294  0.00  0.00    +0.000 A 
ATOM     19  C   UNL     1       6.252   3.632  15.345  0.00  0.00    +0.000 A 
ATOM     20  C   UNL     1       6.559   4.868  14.817  0.00  0.00    +0.000 A 
ATOM     21  C   UNL     1       5.808   5.957  15.245  0.00  0.00    +0.000 A 
ATOM     22  N   UNL     1       4.855   5.909  16.207  0.00  0.00    +0.000 NA
ATOM     23  H   UNL     1       3.105   3.820  17.653  0.00  0.00    +0.000 HD
ENDBRANCH  12  16
ENDBRANCH   6   7
BRANCH   4  24
ATOM     24  C   UNL     1      -2.424  12.427  22.399  0.00  0.00    +0.000 A 
ATOM     25  C   UNL     1      -2.749  11.882  23.654  0.00  0.00    +0.000 A 
ATOM     26  N   UNL     1      -3.972  12.325  24.103  0.00  0.00    +0.000 NA
ATOM     27  N   UNL     1      -4.400  13.102  23.085  0.00  0.00    +0.000 N 
ATOM     28  C   UNL     1      -3.501  13.211  22.061  0.00  0.00    +0.000 A 
BRANCH  27  29
ATOM     29  C   UNL     1      -5.694  13.777  23.142  0.00  0.00    +0.000 C 
ATOM     30  C   UNL     1      -6.752  13.120  24.038  0.00  0.00    +0.000 C 
ATOM     31  C   UNL     1      -7.371  11.885  23.379  0.00  0.00    +0.000 C 
ATOM     32  N   UNL     1      -7.915  12.199  22.055  0.00  0.00    +0.000 NA
ATOM     33  C   UNL     1      -6.869  12.712  21.173  0.00  0.00    +0.000 C 
ATOM     34  C   UNL     1      -6.261  13.994  21.730  0.00  0.00    +0.000 C 
ATOM     35  H   UNL     1      -8.657  12.893  22.148  0.00  0.00    +0.000 HD
ENDBRANCH  27  29
ENDBRANCH   4  24
BRANCH   1  36
ATOM     36  N   UNL     1       1.815  12.156  18.783  0.00  0.00    +0.000 N 
ATOM     37  H   UNL     1       1.696  11.353  18.206  0.00  0.00    +0.000 HD
ATOM     38  H   UNL     1       1.816  13.039  18.329  0.00  0.00    +0.000 HD
ENDBRANCH   1  36
TORSDOF 5
ENDMDL
MODEL 8
REMARK VINA RESULT:      -8.3      3.714     11.610
REMARK  Name = 
REMARK  5 active torsions:
REMARK  status: ('A' for Active; 'I' for Inactive)
REMARK    1  A    between atoms: N_1  and  C_2
REMARK    2  A    between atoms: C_5  and  C_6
REMARK    3  A    between atoms: N_9  and  C_10
REMARK    4  A    between atoms: C_18  and  C_19
REMARK    5  A    between atoms: C_24  and  N_25
REMARK                            x       y       z     vdW  Elec       q    Type
REMARK                         _______ _______ _______ _____ _____    ______ ____
ROOT
ATOM      1  C   UNL     1       1.276  10.650  18.424  0.00  0.00    +0.000 A 
ATOM      2  N   UNL     1       2.150  10.047  17.596  0.00  0.00    +0.000 NA
ATOM      3  C   UNL     1       2.596   8.828  17.928  0.00  0.00    +0.000 A 
ATOM      4  C   UNL     1       2.179   8.157  19.072  0.00  0.00    +0.000 A 
ATOM      5  C   UNL     1       1.220   8.790  19.893  0.00  0.00    +0.000 A 
ATOM      6  C   UNL     1       0.734  10.076  19.604  0.00  0.00    +0.000 A 
ENDROOT
BRANCH   6   7
ATOM      7  C   UNL     1      -0.310  10.742  20.471  0.00  0.00    +0.000 A 
ATOM      8  N   UNL     1      -0.509  10.531  21.760  0.00  0.00    +0.000 NA
ATOM      9  C   UNL     1      -1.482  11.432  22.126  0.00  0.00    +0.000 A 
ATOM     10  C   UNL     1      -1.937  11.740  23.406  0.00  0.00    +0.000 A 
ATOM     11  C   UNL     1      -2.721  12.893  23.541  0.00  0.00    +0.000 A 
ATOM     12  C   UNL     1      -3.445  13.443  22.491  0.00  0.00    +0.000 A 
ATOM     13  C   UNL     1      -2.979  13.163  21.169  0.00  0.00    +0.000 A 
ATOM     14  C   UNL     1      -1.932  12.177  21.042  0.00  0.00    +0.000 A 
ATOM     15  O   UNL     1      -1.165  11.745  19.954  0.00  0.00    +0.000 OA
BRANCH  12  16
ATOM     16  N   UNL     1      -4.647  14.175  22.836  0.00  0.00    +0.000 N 
ATOM     17  C   UNL     1      -4.793  15.497  23.367  0.00  0.00    +0.000 A 
ATOM     18  C   UNL     1      -6.104  15.940  23.716  0.00  0.00    +0.000 A 
ATOM     19  C   UNL     1      -6.341  17.285  24.025  0.00  0.00    +0.000 A 
ATOM     20  C   UNL     1      -5.268  18.150  24.069  0.00  0.00    +0.000 A 
ATOM     21  C   UNL     1      -4.004  17.625  23.827  0.00  0.00    +0.000 A 
ATOM     22  N   UNL     1      -3.757  16.343  23.464  0.00  0.00    +0.000 NA
ATOM     23  H   UNL     1      -5.164  13.597  23.496  0.00  0.00    +0.000 HD
ENDBRANCH  12  16
ENDBRANCH   6   7
BRANCH   4  24
ATOM     24  C   UNL     1       2.745   6.855  19.377  0.00  0.00    +0.000 A 
ATOM     25  C   UNL     1       4.014   6.302  19.130  0.00  0.00    +0.000 A 
ATOM     26  N   UNL     1       4.107   5.010  19.595  0.00  0.00    +0.000 NA
ATOM     27  N   UNL     1       2.869   4.776  20.078  0.00  0.00    +0.000 N 
ATOM     28  C   UNL     1       2.032   5.854  19.991  0.00  0.00    +0.000 A 
BRANCH  27  29
ATOM     29  C   UNL     1       2.518   3.487  20.668  0.00  0.00    +0.000 C 
ATOM     30  C   UNL     1       3.401   2.302  20.257  0.00  0.00    +0.000 C 
ATOM     31  C   UNL     1       3.065   1.802  18.850  0.00  0.00    +0.000 C 
ATOM     32  N   UNL     1       1.642   1.476  18.721  0.00  0.00    +0.000 NA
ATOM     33  C   UNL     1       0.815   2.649  18.999  0.00  0.00    +0.000 C 
ATOM     34  C   UNL     1       1.039   3.154  20.420  0.00  0.00    +0.000 C 
ATOM     35  H   UNL     1       1.404   0.726  19.370  0.00  0.00    +0.000 HD
ENDBRANCH  27  29
ENDBRANCH   4  24
BRANCH   1  36
ATOM     36  N   UNL     1       1.052  11.993  18.012  0.00  0.00    +0.000 N 
ATOM     37  H   UNL     1       1.506  12.579  18.677  0.00  0.00    +0.000 HD
ATOM     38  H   UNL     1       1.273  12.143  17.056  0.00  0.00    +0.000 HD
ENDBRANCH   1  36
TORSDOF 5
ENDMDL
MODEL 9
REMARK VINA RESULT:      -8.2      3.652     11.510
REMARK  Name = 
REMARK  5 active torsions:
REMARK  status: ('A' for Active; 'I' for Inactive)
REMARK    1  A    between atoms: N_1  and  C_2
REMARK    2  A    between atoms: C_5  and  C_6
REMARK    3  A    between atoms: N_9  and  C_10
REMARK    4  A    between atoms: C_18  and  C_19
REMARK    5  A    between atoms: C_24  and  N_25
REMARK                            x       y       z     vdW  Elec       q    Type
REMARK                         _______ _______ _______ _____ _____    ______ ____
ROOT
ATOM      1  C   UNL     1       1.269  10.851  18.390  0.00  0.00    +0.000 A 
ATOM      2  N   UNL     1       2.159  10.320  17.528  0.00  0.00    +0.000 NA
ATOM      3  C   UNL     1       2.584   9.070  17.751  0.00  0.00    +0.000 A 
ATOM      4  C   UNL     1       2.131   8.295  18.812  0.00  0.00    +0.000 A 
ATOM      5  C   UNL     1       1.157   8.856  19.667  0.00  0.00    +0.000 A 
ATOM      6  C   UNL     1       0.691  10.170  19.494  0.00  0.00    +0.000 A 
ENDROOT
BRANCH   6   7
ATOM      7  C   UNL     1      -0.368  10.760  20.396  0.00  0.00    +0.000 A 
ATOM      8  N   UNL     1      -0.462  10.600  21.704  0.00  0.00    +0.000 NA
ATOM      9  C   UNL     1      -1.509  11.404  22.091  0.00  0.00    +0.000 A 
ATOM     10  C   UNL     1      -1.918  11.728  23.382  0.00  0.00    +0.000 A 
ATOM     11  C   UNL     1      -2.822  12.791  23.514  0.00  0.00    +0.000 A 
ATOM     12  C   UNL     1      -3.667  13.198  22.490  0.00  0.00    +0.000 A 
ATOM     13  C   UNL     1      -3.253  12.899  21.155  0.00  0.00    +0.000 A 
ATOM     14  C   UNL     1      -2.109  12.032  21.005  0.00  0.00    +0.000 A 
ATOM     15  O   UNL     1      -1.364  11.630  19.890  0.00  0.00    +0.000 OA
BRANCH  12  16
ATOM     16  N   UNL     1      -4.923  13.806  22.879  0.00  0.00    +0.000 N 
ATOM     17  C   UNL     1      -5.499  15.054  22.475  0.00  0.00    +0.000 A 
ATOM     18  C   UNL     1      -6.716  15.465  23.097  0.00  0.00    +0.000 A 
ATOM     19  C   UNL     1      -7.440  16.552  22.592  0.00  0.00    +0.000 A 
ATOM     20  C   UNL     1      -6.910  17.265  21.538  0.00  0.00    +0.000 A 
ATOM     21  C   UNL     1      -5.667  16.875  21.054  0.00  0.00    +0.000 A 
ATOM     22  N   UNL     1      -4.977  15.791  21.484  0.00  0.00    +0.000 NA
ATOM     23  H   UNL     1      -4.918  13.868  23.896  0.00  0.00    +0.000 HD
ENDBRANCH  12  16
ENDBRANCH   6   7
BRANCH   4  24
ATOM     24  C   UNL     1       2.675   6.963  19.001  0.00  0.00    +0.000 A 
ATOM     25  C   UNL     1       3.778   6.308  18.422  0.00  0.00    +0.000 A 
ATOM     26  N   UNL     1       3.919   5.026  18.902  0.00  0.00    +0.000 NA
ATOM     27  N   UNL     1       2.865   4.900  19.735  0.00  0.00    +0.000 N 
ATOM     28  C   UNL     1       2.111   6.035  19.843  0.00  0.00    +0.000 A 
BRANCH  27  29
ATOM     29  C   UNL     1       2.621   3.658  20.463  0.00  0.00    +0.000 C 
ATOM     30  C   UNL     1       3.525   2.476  20.091  0.00  0.00    +0.000 C 
ATOM     31  C   UNL     1       3.109   1.835  18.764  0.00  0.00    +0.000 C 
ATOM     32  N   UNL     1       1.697   1.442  18.777  0.00  0.00    +0.000 NA
ATOM     33  C   UNL     1       0.840   2.601  19.014  0.00  0.00    +0.000 C 
ATOM     34  C   UNL     1       1.144   3.243  20.362  0.00  0.00    +0.000 C 
ATOM     35  H   UNL     1       1.545   0.746  19.506  0.00  0.00    +0.000 HD
ENDBRANCH  27  29
ENDBRANCH   4  24
BRANCH   1  36
ATOM     36  N   UNL     1       1.069  12.230  18.107  0.00  0.00    +0.000 N 
ATOM     37  H   UNL     1       0.200  12.487  18.521  0.00  0.00    +0.000 HD
ATOM     38  H   UNL     1       1.858  12.787  18.335  0.00  0.00    +0.000 HD
ENDBRANCH   1  36
TORSDOF 5
ENDMDL
