MODEL 1
REMARK VINA RESULT:      -7.9      0.000      0.000
REMARK  Name = 
REMARK  11 active torsions:
REMARK  status: ('A' for Active; 'I' for Inactive)
REMARK    1  A    between atoms: C_1  and  O_2
REMARK    2  A    between atoms: O_2  and  C_3
REMARK    3  A    between atoms: C_5  and  C_6
REMARK    4  A    between atoms: C_6  and  C_7
REMARK    5  A    between atoms: C_7  and  N_8
REMARK    6  A    between atoms: C_21  and  C_23
REMARK    7  A    between atoms: C_23  and  N_24
REMARK    8  A    between atoms: N_24  and  C_25
REMARK    9  A    between atoms: N_24  and  C_26
REMARK   10  A    between atoms: C_29  and  O_30
REMARK   11  A    between atoms: O_30  and  C_31
REMARK                            x       y       z     vdW  Elec       q    Type
REMARK                         _______ _______ _______ _____ _____    ______ ____
ROOT
ATOM      1  N   UNL     1       0.644   9.848  19.387  0.00  0.00    +0.000 N 
ATOM      2  C   UNL     1       0.159   9.223  20.520  0.00  0.00    +0.000 A 
ATOM      3  N   UNL     1       0.562   8.098  21.016  0.00  0.00    +0.000 NA
ATOM      4  C   UNL     1       1.544   7.501  20.301  0.00  0.00    +0.000 A 
ATOM      5  S   UNL     1       2.235   6.017  20.784  0.00  0.00    +0.000 S 
ATOM      6  C   UNL     1       3.264   5.988  19.428  0.00  0.00    +0.000 A 
ATOM      7  C   UNL     1       3.115   7.118  18.639  0.00  0.00    +0.000 A 
ATOM      8  C   UNL     1       2.101   7.979  19.134  0.00  0.00    +0.000 A 
ATOM      9  C   UNL     1       1.602   9.223  18.588  0.00  0.00    +0.000 A 
ATOM     10  O   UNL     1       1.993   9.665  17.506  0.00  0.00    +0.000 OA
ATOM     11  C   UNL     1       3.951   7.325  17.413  0.00  0.00    +0.000 C 
ATOM     12  C   UNL     1       5.193   6.428  17.484  0.00  0.00    +0.000 C 
ATOM     13  N   UNL     1       4.788   5.054  17.813  0.00  0.00    +0.000 N 
ATOM     14  C   UNL     1       4.609   4.062  16.856  0.00  0.00    +0.000 C 
ATOM     15  O   UNL     1       4.241   2.921  17.159  0.00  0.00    +0.000 OA
ATOM     16  C   UNL     1       4.246   4.869  19.172  0.00  0.00    +0.000 C 
ENDROOT
BRANCH   1  17
ATOM     17  C   UNL     1       0.081  11.112  18.893  0.00  0.00    +0.000 C 
BRANCH  17  18
ATOM     18  C   UNL     1      -1.347  11.362  19.371  0.00  0.00    +0.000 C 
BRANCH  18  21
ATOM     19  C   UNL     1      -4.625  11.611  17.484  0.00  0.00    +0.000 A 
ATOM     20  C   UNL     1      -3.675  11.690  18.500  0.00  0.00    +0.000 A 
ATOM     21  C   UNL     1      -2.400  11.138  18.327  0.00  0.00    +0.000 A 
ATOM     22  C   UNL     1      -2.100  10.468  17.139  0.00  0.00    +0.000 A 
ATOM     23  C   UNL     1      -3.042  10.385  16.116  0.00  0.00    +0.000 A 
ATOM     24  C   UNL     1      -4.302  10.961  16.290  0.00  0.00    +0.000 A 
BRANCH  19  26
ATOM     25  C   UNL     1      -6.723  11.496  18.577  0.00  0.00    +0.000 C 
ATOM     26  O   UNL     1      -5.815  12.228  17.763  0.00  0.00    +0.000 OA
ENDBRANCH  19  26
BRANCH  23  27
ATOM     27  O   UNL     1      -2.600   9.743  14.992  0.00  0.00    +0.000 OA
ATOM     28  C   UNL     1      -3.284  10.027  13.781  0.00  0.00    +0.000 C 
ENDBRANCH  23  27
ENDBRANCH  18  21
ENDBRANCH  17  18
ENDBRANCH   1  17
BRANCH  14  29
ATOM     29  C   UNL     1       4.854   4.433  15.378  0.00  0.00    +0.000 C 
BRANCH  29  30
ATOM     30  N   UNL     1       6.114   3.858  14.850  0.00  0.00    +0.000 NA
ATOM     31  C   UNL     1       6.035   3.675  13.398  0.00  0.00    +0.000 C 
ATOM     32  C   UNL     1       7.232   4.754  15.165  0.00  0.00    +0.000 C 
ENDBRANCH  29  30
ENDBRANCH  14  29
TORSDOF 7
ENDMDL
MODEL 2
REMARK VINA RESULT:      -7.8      0.459      2.082
REMARK  Name = 
REMARK  11 active torsions:
REMARK  status: ('A' for Active; 'I' for Inactive)
REMARK    1  A    between atoms: C_1  and  O_2
REMARK    2  A    between atoms: O_2  and  C_3
REMARK    3  A    between atoms: C_5  and  C_6
REMARK    4  A    between atoms: C_6  and  C_7
REMARK    5  A    between atoms: C_7  and  N_8
REMARK    6  A    between atoms: C_21  and  C_23
REMARK    7  A    between atoms: C_23  and  N_24
REMARK    8  A    between atoms: N_24  and  C_25
REMARK    9  A    between atoms: N_24  and  C_26
REMARK   10  A    between atoms: C_29  and  O_30
REMARK   11  A    between atoms: O_30  and  C_31
REMARK                            x       y       z     vdW  Elec       q    Type
REMARK                         _______ _______ _______ _____ _____    ______ ____
ROOT
ATOM      1  N   UNL     1       0.817   9.654  19.473  0.00  0.00    +0.000 N 
ATOM      2  C   UNL     1       0.344   8.973  20.579  0.00  0.00    +0.000 A 
ATOM      3  N   UNL     1       0.750   7.824  21.012  0.00  0.00    +0.000 NA
ATOM      4  C   UNL     1       1.723   7.263  20.258  0.00  0.00    +0.000 A 
ATOM      5  S   UNL     1       2.417   5.756  20.658  0.00  0.00    +0.000 S 
ATOM      6  C   UNL     1       3.431   5.794  19.290  0.00  0.00    +0.000 A 
ATOM      7  C   UNL     1       3.275   6.963  18.561  0.00  0.00    +0.000 A 
ATOM      8  C   UNL     1       2.268   7.799  19.111  0.00  0.00    +0.000 A 
ATOM      9  C   UNL     1       1.765   9.069  18.633  0.00  0.00    +0.000 A 
ATOM     10  O   UNL     1       2.145   9.565  17.571  0.00  0.00    +0.000 OA
ATOM     11  C   UNL     1       4.098   7.230  17.338  0.00  0.00    +0.000 C 
ATOM     12  C   UNL     1       5.338   6.329  17.350  0.00  0.00    +0.000 C 
ATOM     13  N   UNL     1       4.935   4.941  17.613  0.00  0.00    +0.000 N 
ATOM     14  C   UNL     1       4.744   3.999  16.609  0.00  0.00    +0.000 C 
ATOM     15  O   UNL     1       4.378   2.845  16.858  0.00  0.00    +0.000 OA
ATOM     16  C   UNL     1       4.408   4.688  18.968  0.00  0.00    +0.000 C 
ENDROOT
BRANCH   1  17
ATOM     17  C   UNL     1       0.251  10.942  19.051  0.00  0.00    +0.000 C 
BRANCH  17  18
ATOM     18  C   UNL     1      -1.147  11.197  19.610  0.00  0.00    +0.000 C 
BRANCH  18  21
ATOM     19  C   UNL     1      -3.128  10.367  16.487  0.00  0.00    +0.000 A 
ATOM     20  C   UNL     1      -2.078  10.481  17.395  0.00  0.00    +0.000 A 
ATOM     21  C   UNL     1      -2.236  11.210  18.580  0.00  0.00    +0.000 A 
ATOM     22  C   UNL     1      -3.448  11.860  18.826  0.00  0.00    +0.000 A 
ATOM     23  C   UNL     1      -4.505  11.750  17.926  0.00  0.00    +0.000 A 
ATOM     24  C   UNL     1      -4.343  11.000  16.759  0.00  0.00    +0.000 A 
BRANCH  19  26
ATOM     25  C   UNL     1      -3.289  10.107  14.138  0.00  0.00    +0.000 C 
ATOM     26  O   UNL     1      -2.857   9.593  15.392  0.00  0.00    +0.000 OA
ENDBRANCH  19  26
BRANCH  23  27
ATOM     27  O   UNL     1      -5.646  12.397  18.315  0.00  0.00    +0.000 OA
ATOM     28  C   UNL     1      -6.582  12.713  17.295  0.00  0.00    +0.000 C 
ENDBRANCH  23  27
ENDBRANCH  18  21
ENDBRANCH  17  18
ENDBRANCH   1  17
BRANCH  14  29
ATOM     29  C   UNL     1       4.973   4.444  15.150  0.00  0.00    +0.000 C 
BRANCH  29  30
ATOM     30  N   UNL     1       6.213   3.875  14.571  0.00  0.00    +0.000 NA
ATOM     31  C   UNL     1       6.030   3.561  13.151  0.00  0.00    +0.000 C 
ATOM     32  C   UNL     1       7.309   4.839  14.717  0.00  0.00    +0.000 C 
ENDBRANCH  29  30
ENDBRANCH  14  29
TORSDOF 7
ENDMDL
MODEL 3
REMARK VINA RESULT:      -7.7      3.825      9.959
REMARK  Name = 
REMARK  11 active torsions:
REMARK  status: ('A' for Active; 'I' for Inactive)
REMARK    1  A    between atoms: C_1  and  O_2
REMARK    2  A    between atoms: O_2  and  C_3
REMARK    3  A    between atoms: C_5  and  C_6
REMARK    4  A    between atoms: C_6  and  C_7
REMARK    5  A    between atoms: C_7  and  N_8
REMARK    6  A    between atoms: C_21  and  C_23
REMARK    7  A    between atoms: C_23  and  N_24
REMARK    8  A    between atoms: N_24  and  C_25
REMARK    9  A    between atoms: N_24  and  C_26
REMARK   10  A    between atoms: C_29  and  O_30
REMARK   11  A    between atoms: O_30  and  C_31
REMARK                            x       y       z     vdW  Elec       q    Type
REMARK                         _______ _______ _______ _____ _____    ______ ____
ROOT
ATOM      1  N   UNL     1       1.703   8.704  19.249  0.00  0.00    +0.000 N 
ATOM      2  C   UNL     1       1.720   7.840  20.328  0.00  0.00    +0.000 A 
ATOM      3  N   UNL     1       1.156   8.025  21.477  0.00  0.00    +0.000 NA
ATOM      4  C   UNL     1       0.514   9.211  21.592  0.00  0.00    +0.000 A 
ATOM      5  S   UNL     1      -0.314   9.654  23.017  0.00  0.00    +0.000 S 
ATOM      6  C   UNL     1      -0.753  11.163  22.362  0.00  0.00    +0.000 A 
ATOM      7  C   UNL     1      -0.312  11.311  21.056  0.00  0.00    +0.000 A 
ATOM      8  C   UNL     1       0.443  10.189  20.623  0.00  0.00    +0.000 A 
ATOM      9  C   UNL     1       1.116   9.965  19.362  0.00  0.00    +0.000 A 
ATOM     10  O   UNL     1       1.165  10.829  18.484  0.00  0.00    +0.000 OA
ATOM     11  C   UNL     1      -0.621  12.546  20.267  0.00  0.00    +0.000 C 
ATOM     12  C   UNL     1      -1.801  13.283  20.913  0.00  0.00    +0.000 C 
ATOM     13  N   UNL     1      -1.556  13.435  22.354  0.00  0.00    +0.000 N 
ATOM     14  C   UNL     1      -1.032  14.590  22.921  0.00  0.00    +0.000 C 
ATOM     15  O   UNL     1      -0.811  14.680  24.134  0.00  0.00    +0.000 OA
ATOM     16  C   UNL     1      -1.570  12.178  23.127  0.00  0.00    +0.000 C 
ENDROOT
BRANCH   1  17
ATOM     17  C   UNL     1       2.415   8.405  18.001  0.00  0.00    +0.000 C 
BRANCH  17  18
ATOM     18  C   UNL     1       2.473   6.912  17.684  0.00  0.00    +0.000 C 
BRANCH  18  21
ATOM     19  C   UNL     1       6.230   6.487  17.414  0.00  0.00    +0.000 A 
ATOM     20  C   UNL     1       4.935   6.958  17.211  0.00  0.00    +0.000 A 
ATOM     21  C   UNL     1       3.840   6.306  17.791  0.00  0.00    +0.000 A 
ATOM     22  C   UNL     1       4.054   5.149  18.543  0.00  0.00    +0.000 A 
ATOM     23  C   UNL     1       5.344   4.670  18.754  0.00  0.00    +0.000 A 
ATOM     24  C   UNL     1       6.431   5.343  18.191  0.00  0.00    +0.000 A 
BRANCH  19  26
ATOM     25  C   UNL     1       7.746   8.295  17.618  0.00  0.00    +0.000 C 
ATOM     26  O   UNL     1       7.212   7.239  16.829  0.00  0.00    +0.000 OA
ENDBRANCH  19  26
BRANCH  23  27
ATOM     27  O   UNL     1       5.411   3.557  19.547  0.00  0.00    +0.000 OA
ATOM     28  C   UNL     1       4.289   2.688  19.528  0.00  0.00    +0.000 C 
ENDBRANCH  23  27
ENDBRANCH  18  21
ENDBRANCH  17  18
ENDBRANCH   1  17
BRANCH  14  29
ATOM     29  C   UNL     1      -0.698  15.768  21.981  0.00  0.00    +0.000 C 
BRANCH  29  30
ATOM     30  N   UNL     1       0.734  15.801  21.599  0.00  0.00    +0.000 NA
ATOM     31  C   UNL     1       0.885  16.056  20.163  0.00  0.00    +0.000 C 
ATOM     32  C   UNL     1       1.418  16.857  22.353  0.00  0.00    +0.000 C 
ENDBRANCH  29  30
ENDBRANCH  14  29
TORSDOF 7
ENDMDL
MODEL 4
REMARK VINA RESULT:      -7.6      3.578      9.715
REMARK  Name = 
REMARK  11 active torsions:
REMARK  status: ('A' for Active; 'I' for Inactive)
REMARK    1  A    between atoms: C_1  and  O_2
REMARK    2  A    between atoms: O_2  and  C_3
REMARK    3  A    between atoms: C_5  and  C_6
REMARK    4  A    between atoms: C_6  and  C_7
REMARK    5  A    between atoms: C_7  and  N_8
REMARK    6  A    between atoms: C_21  and  C_23
REMARK    7  A    between atoms: C_23  and  N_24
REMARK    8  A    between atoms: N_24  and  C_25
REMARK    9  A    between atoms: N_24  and  C_26
REMARK   10  A    between atoms: C_29  and  O_30
REMARK   11  A    between atoms: O_30  and  C_31
REMARK                            x       y       z     vdW  Elec       q    Type
REMARK                         _______ _______ _______ _____ _____    ______ ____
ROOT
ATOM      1  N   UNL     1       1.597   8.541  19.194  0.00  0.00    +0.000 N 
ATOM      2  C   UNL     1       1.701   7.717  20.299  0.00  0.00    +0.000 A 
ATOM      3  N   UNL     1       1.203   7.931  21.474  0.00  0.00    +0.000 NA
ATOM      4  C   UNL     1       0.542   9.106  21.587  0.00  0.00    +0.000 A 
ATOM      5  S   UNL     1      -0.208   9.581  23.044  0.00  0.00    +0.000 S 
ATOM      6  C   UNL     1      -0.723  11.056  22.366  0.00  0.00    +0.000 A 
ATOM      7  C   UNL     1      -0.366  11.166  21.031  0.00  0.00    +0.000 A 
ATOM      8  C   UNL     1       0.387  10.046  20.591  0.00  0.00    +0.000 A 
ATOM      9  C   UNL     1       0.988   9.792  19.299  0.00  0.00    +0.000 A 
ATOM     10  O   UNL     1       0.962  10.624  18.391  0.00  0.00    +0.000 OA
ATOM     11  C   UNL     1      -0.753  12.366  20.221  0.00  0.00    +0.000 C 
ATOM     12  C   UNL     1      -1.908  13.099  20.913  0.00  0.00    +0.000 C 
ATOM     13  N   UNL     1      -1.579  13.307  22.330  0.00  0.00    +0.000 N 
ATOM     14  C   UNL     1      -1.050  14.494  22.823  0.00  0.00    +0.000 C 
ATOM     15  O   UNL     1      -0.757  14.632  24.016  0.00  0.00    +0.000 OA
ATOM     16  C   UNL     1      -1.515  12.080  23.145  0.00  0.00    +0.000 C 
ENDROOT
BRANCH   1  17
ATOM     17  C   UNL     1       2.238   8.213  17.915  0.00  0.00    +0.000 C 
BRANCH  17  18
ATOM     18  C   UNL     1       3.581   7.504  18.079  0.00  0.00    +0.000 C 
BRANCH  18  21
ATOM     19  C   UNL     1       4.834   4.236  16.622  0.00  0.00    +0.000 A 
ATOM     20  C   UNL     1       4.744   5.585  16.960  0.00  0.00    +0.000 A 
ATOM     21  C   UNL     1       3.599   6.086  17.591  0.00  0.00    +0.000 A 
ATOM     22  C   UNL     1       2.525   5.228  17.843  0.00  0.00    +0.000 A 
ATOM     23  C   UNL     1       2.606   3.878  17.510  0.00  0.00    +0.000 A 
ATOM     24  C   UNL     1       3.763   3.384  16.903  0.00  0.00    +0.000 A 
BRANCH  19  26
ATOM     25  C   UNL     1       6.067   3.897  14.629  0.00  0.00    +0.000 C 
ATOM     26  O   UNL     1       6.021   3.868  16.050  0.00  0.00    +0.000 OA
ENDBRANCH  19  26
BRANCH  23  27
ATOM     27  O   UNL     1       1.504   3.145  17.855  0.00  0.00    +0.000 OA
ATOM     28  C   UNL     1       1.611   2.335  19.016  0.00  0.00    +0.000 C 
ENDBRANCH  23  27
ENDBRANCH  18  21
ENDBRANCH  17  18
ENDBRANCH   1  17
BRANCH  14  29
ATOM     29  C   UNL     1      -0.802  15.644  21.824  0.00  0.00    +0.000 C 
BRANCH  29  30
ATOM     30  N   UNL     1       0.600  15.689  21.346  0.00  0.00    +0.000 NA
ATOM     31  C   UNL     1       0.649  15.867  19.891  0.00  0.00    +0.000 C 
ATOM     32  C   UNL     1       1.303  16.801  21.994  0.00  0.00    +0.000 C 
ENDBRANCH  29  30
ENDBRANCH  14  29
TORSDOF 7
ENDMDL
MODEL 5
REMARK VINA RESULT:      -7.6      1.175      2.533
REMARK  Name = 
REMARK  11 active torsions:
REMARK  status: ('A' for Active; 'I' for Inactive)
REMARK    1  A    between atoms: C_1  and  O_2
REMARK    2  A    between atoms: O_2  and  C_3
REMARK    3  A    between atoms: C_5  and  C_6
REMARK    4  A    between atoms: C_6  and  C_7
REMARK    5  A    between atoms: C_7  and  N_8
REMARK    6  A    between atoms: C_21  and  C_23
REMARK    7  A    between atoms: C_23  and  N_24
REMARK    8  A    between atoms: N_24  and  C_25
REMARK    9  A    between atoms: N_24  and  C_26
REMARK   10  A    between atoms: C_29  and  O_30
REMARK   11  A    between atoms: O_30  and  C_31
REMARK                            x       y       z     vdW  Elec       q    Type
REMARK                         _______ _______ _______ _____ _____    ______ ____
ROOT
ATOM      1  N   UNL     1       1.401   8.945  19.094  0.00  0.00    +0.000 N 
ATOM      2  C   UNL     1       1.083   8.125  20.161  0.00  0.00    +0.000 A 
ATOM      3  N   UNL     1       1.642   7.000  20.465  0.00  0.00    +0.000 NA
ATOM      4  C   UNL     1       2.616   6.617  19.606  0.00  0.00    +0.000 A 
ATOM      5  S   UNL     1       3.497   5.173  19.828  0.00  0.00    +0.000 S 
ATOM      6  C   UNL     1       4.403   5.439  18.411  0.00  0.00    +0.000 A 
ATOM      7  C   UNL     1       4.069   6.638  17.799  0.00  0.00    +0.000 A 
ATOM      8  C   UNL     1       3.017   7.304  18.481  0.00  0.00    +0.000 A 
ATOM      9  C   UNL     1       2.346   8.543  18.149  0.00  0.00    +0.000 A 
ATOM     10  O   UNL     1       2.594   9.165  17.115  0.00  0.00    +0.000 OA
ATOM     11  C   UNL     1       4.770   7.097  16.557  0.00  0.00    +0.000 C 
ATOM     12  C   UNL     1       6.100   6.347  16.414  0.00  0.00    +0.000 C 
ATOM     13  N   UNL     1       5.871   4.904  16.577  0.00  0.00    +0.000 N 
ATOM     14  C   UNL     1       5.714   4.033  15.507  0.00  0.00    +0.000 C 
ATOM     15  O   UNL     1       5.495   2.827  15.673  0.00  0.00    +0.000 OA
ATOM     16  C   UNL     1       5.471   4.483  17.933  0.00  0.00    +0.000 C 
ENDROOT
BRANCH   1  17
ATOM     17  C   UNL     1       0.669  10.188  18.823  0.00  0.00    +0.000 C 
BRANCH  17  18
ATOM     18  C   UNL     1      -0.739  10.200  19.414  0.00  0.00    +0.000 C 
BRANCH  18  21
ATOM     19  C   UNL     1      -2.872  10.222  16.281  0.00  0.00    +0.000 A 
ATOM     20  C   UNL     1      -1.808  10.009  17.154  0.00  0.00    +0.000 A 
ATOM     21  C   UNL     1      -1.820  10.562  18.440  0.00  0.00    +0.000 A 
ATOM     22  C   UNL     1      -2.893  11.368  18.828  0.00  0.00    +0.000 A 
ATOM     23  C   UNL     1      -3.962  11.586  17.963  0.00  0.00    +0.000 A 
ATOM     24  C   UNL     1      -3.951  11.009  16.691  0.00  0.00    +0.000 A 
BRANCH  19  26
ATOM     25  C   UNL     1      -3.579  10.087  14.024  0.00  0.00    +0.000 C 
ATOM     26  O   UNL     1      -2.756   9.590  15.072  0.00  0.00    +0.000 OA
ENDBRANCH  19  26
BRANCH  23  27
ATOM     27  O   UNL     1      -4.964  12.355  18.488  0.00  0.00    +0.000 OA
ATOM     28  C   UNL     1      -5.787  11.750  19.474  0.00  0.00    +0.000 C 
ENDBRANCH  23  27
ENDBRANCH  18  21
ENDBRANCH  17  18
ENDBRANCH   1  17
BRANCH  14  29
ATOM     29  C   UNL     1       5.791   4.618  14.081  0.00  0.00    +0.000 C 
BRANCH  29  30
ATOM     30  N   UNL     1       6.066   3.583  13.056  0.00  0.00    +0.000 NA
ATOM     31  C   UNL     1       4.873   3.321  12.246  0.00  0.00    +0.000 C 
ATOM     32  C   UNL     1       7.155   4.036  12.183  0.00  0.00    +0.000 C 
ENDBRANCH  29  30
ENDBRANCH  14  29
TORSDOF 7
ENDMDL
MODEL 6
REMARK VINA RESULT:      -7.6      3.589     10.048
REMARK  Name = 
REMARK  11 active torsions:
REMARK  status: ('A' for Active; 'I' for Inactive)
REMARK    1  A    between atoms: C_1  and  O_2
REMARK    2  A    between atoms: O_2  and  C_3
REMARK    3  A    between atoms: C_5  and  C_6
REMARK    4  A    between atoms: C_6  and  C_7
REMARK    5  A    between atoms: C_7  and  N_8
REMARK    6  A    between atoms: C_21  and  C_23
REMARK    7  A    between atoms: C_23  and  N_24
REMARK    8  A    between atoms: N_24  and  C_25
REMARK    9  A    between atoms: N_24  and  C_26
REMARK   10  A    between atoms: C_29  and  O_30
REMARK   11  A    between atoms: O_30  and  C_31
REMARK                            x       y       z     vdW  Elec       q    Type
REMARK                         _______ _______ _______ _____ _____    ______ ____
ROOT
ATOM      1  N   UNL     1       1.590   8.575  19.178  0.00  0.00    +0.000 N 
ATOM      2  C   UNL     1       1.716   7.753  20.282  0.00  0.00    +0.000 A 
ATOM      3  N   UNL     1       1.226   7.960  21.461  0.00  0.00    +0.000 NA
ATOM      4  C   UNL     1       0.549   9.127  21.580  0.00  0.00    +0.000 A 
ATOM      5  S   UNL     1      -0.194   9.592  23.044  0.00  0.00    +0.000 S 
ATOM      6  C   UNL     1      -0.735  11.059  22.370  0.00  0.00    +0.000 A 
ATOM      7  C   UNL     1      -0.392  11.173  21.032  0.00  0.00    +0.000 A 
ATOM      8  C   UNL     1       0.373  10.064  20.585  0.00  0.00    +0.000 A 
ATOM      9  C   UNL     1       0.965   9.818  19.288  0.00  0.00    +0.000 A 
ATOM     10  O   UNL     1       0.920  10.649  18.380  0.00  0.00    +0.000 OA
ATOM     11  C   UNL     1      -0.803  12.367  20.225  0.00  0.00    +0.000 C 
ATOM     12  C   UNL     1      -1.962  13.085  20.927  0.00  0.00    +0.000 C 
ATOM     13  N   UNL     1      -1.623  13.298  22.341  0.00  0.00    +0.000 N 
ATOM     14  C   UNL     1      -1.106  14.492  22.829  0.00  0.00    +0.000 C 
ATOM     15  O   UNL     1      -0.804  14.635  24.020  0.00  0.00    +0.000 OA
ATOM     16  C   UNL     1      -1.535  12.072  23.156  0.00  0.00    +0.000 C 
ENDROOT
BRANCH   1  17
ATOM     17  C   UNL     1       2.225   8.256  17.893  0.00  0.00    +0.000 C 
BRANCH  17  18
ATOM     18  C   UNL     1       3.516   7.454  18.042  0.00  0.00    +0.000 C 
BRANCH  18  21
ATOM     19  C   UNL     1       4.492   4.048  16.695  0.00  0.00    +0.000 A 
ATOM     20  C   UNL     1       4.515   5.410  16.989  0.00  0.00    +0.000 A 
ATOM     21  C   UNL     1       3.416   6.025  17.601  0.00  0.00    +0.000 A 
ATOM     22  C   UNL     1       2.274   5.268  17.876  0.00  0.00    +0.000 A 
ATOM     23  C   UNL     1       2.242   3.906  17.588  0.00  0.00    +0.000 A 
ATOM     24  C   UNL     1       3.354   3.298  17.000  0.00  0.00    +0.000 A 
BRANCH  19  26
ATOM     25  C   UNL     1       6.770   4.433  16.172  0.00  0.00    +0.000 C 
ATOM     26  O   UNL     1       5.645   3.564  16.138  0.00  0.00    +0.000 OA
ENDBRANCH  19  26
BRANCH  23  27
ATOM     27  O   UNL     1       1.082   3.280  17.953  0.00  0.00    +0.000 OA
ATOM     28  C   UNL     1       1.182   2.283  18.960  0.00  0.00    +0.000 C 
ENDBRANCH  23  27
ENDBRANCH  18  21
ENDBRANCH  17  18
ENDBRANCH   1  17
BRANCH  14  29
ATOM     29  C   UNL     1      -0.883  15.645  21.828  0.00  0.00    +0.000 C 
BRANCH  29  30
ATOM     30  N   UNL     1      -1.700  16.840  22.148  0.00  0.00    +0.000 NA
ATOM     31  C   UNL     1      -1.523  17.880  21.130  0.00  0.00    +0.000 C 
ATOM     32  C   UNL     1      -3.116  16.463  22.213  0.00  0.00    +0.000 C 
ENDBRANCH  29  30
ENDBRANCH  14  29
TORSDOF 7
ENDMDL
MODEL 7
REMARK VINA RESULT:      -7.5      3.389      9.561
REMARK  Name = 
REMARK  11 active torsions:
REMARK  status: ('A' for Active; 'I' for Inactive)
REMARK    1  A    between atoms: C_1  and  O_2
REMARK    2  A    between atoms: O_2  and  C_3
REMARK    3  A    between atoms: C_5  and  C_6
REMARK    4  A    between atoms: C_6  and  C_7
REMARK    5  A    between atoms: C_7  and  N_8
REMARK    6  A    between atoms: C_21  and  C_23
REMARK    7  A    between atoms: C_23  and  N_24
REMARK    8  A    between atoms: N_24  and  C_25
REMARK    9  A    between atoms: N_24  and  C_26
REMARK   10  A    between atoms: C_29  and  O_30
REMARK   11  A    between atoms: O_30  and  C_31
REMARK                            x       y       z     vdW  Elec       q    Type
REMARK                         _______ _______ _______ _____ _____    ______ ____
ROOT
ATOM      1  N   UNL     1       1.470   8.591  19.248  0.00  0.00    +0.000 N 
ATOM      2  C   UNL     1       1.744   7.932  20.432  0.00  0.00    +0.000 A 
ATOM      3  N   UNL     1       1.278   8.219  21.604  0.00  0.00    +0.000 NA
ATOM      4  C   UNL     1       0.461   9.298  21.623  0.00  0.00    +0.000 A 
ATOM      5  S   UNL     1      -0.278   9.844  23.061  0.00  0.00    +0.000 S 
ATOM      6  C   UNL     1      -1.031  11.139  22.252  0.00  0.00    +0.000 A 
ATOM      7  C   UNL     1      -0.758  11.131  20.893  0.00  0.00    +0.000 A 
ATOM      8  C   UNL     1       0.126  10.079  20.537  0.00  0.00    +0.000 A 
ATOM      9  C   UNL     1       0.694   9.751  19.247  0.00  0.00    +0.000 A 
ATOM     10  O   UNL     1       0.505  10.453  18.252  0.00  0.00    +0.000 OA
ATOM     11  C   UNL     1      -1.351  12.157  19.976  0.00  0.00    +0.000 C 
ATOM     12  C   UNL     1      -2.564  12.806  20.652  0.00  0.00    +0.000 C 
ATOM     13  N   UNL     1      -2.201  13.231  22.011  0.00  0.00    +0.000 N 
ATOM     14  C   UNL     1      -1.823  14.530  22.327  0.00  0.00    +0.000 C 
ATOM     15  O   UNL     1      -1.497  14.854  23.475  0.00  0.00    +0.000 OA
ATOM     16  C   UNL     1      -1.923  12.134  22.957  0.00  0.00    +0.000 C 
ENDROOT
BRANCH   1  17
ATOM     17  C   UNL     1       2.089   8.197  17.976  0.00  0.00    +0.000 C 
BRANCH  17  18
ATOM     18  C   UNL     1       3.438   7.504  18.153  0.00  0.00    +0.000 C 
BRANCH  18  21
ATOM     19  C   UNL     1       2.218   3.956  17.615  0.00  0.00    +0.000 A 
ATOM     20  C   UNL     1       2.289   5.278  18.048  0.00  0.00    +0.000 A 
ATOM     21  C   UNL     1       3.437   6.044  17.812  0.00  0.00    +0.000 A 
ATOM     22  C   UNL     1       4.532   5.457  17.173  0.00  0.00    +0.000 A 
ATOM     23  C   UNL     1       4.470   4.137  16.734  0.00  0.00    +0.000 A 
ATOM     24  C   UNL     1       3.310   3.390  16.953  0.00  0.00    +0.000 A 
BRANCH  19  26
ATOM     25  C   UNL     1       1.056   2.297  18.842  0.00  0.00    +0.000 C 
ATOM     26  O   UNL     1       1.026   3.334  17.870  0.00  0.00    +0.000 OA
ENDBRANCH  19  26
BRANCH  23  27
ATOM     27  O   UNL     1       5.593   3.705  16.083  0.00  0.00    +0.000 OA
ATOM     28  C   UNL     1       6.462   4.705  15.574  0.00  0.00    +0.000 C 
ENDBRANCH  23  27
ENDBRANCH  18  21
ENDBRANCH  17  18
ENDBRANCH   1  17
BRANCH  14  29
ATOM     29  C   UNL     1      -1.792  15.571  21.188  0.00  0.00    +0.000 C 
BRANCH  29  30
ATOM     30  N   UNL     1      -0.475  16.241  21.069  0.00  0.00    +0.000 NA
ATOM     31  C   UNL     1       0.543  15.308  20.577  0.00  0.00    +0.000 C 
ATOM     32  C   UNL     1      -0.584  17.372  20.140  0.00  0.00    +0.000 C 
ENDBRANCH  29  30
ENDBRANCH  14  29
TORSDOF 7
ENDMDL
MODEL 8
REMARK VINA RESULT:      -7.5      3.359      9.917
REMARK  Name = 
REMARK  11 active torsions:
REMARK  status: ('A' for Active; 'I' for Inactive)
REMARK    1  A    between atoms: C_1  and  O_2
REMARK    2  A    between atoms: O_2  and  C_3
REMARK    3  A    between atoms: C_5  and  C_6
REMARK    4  A    between atoms: C_6  and  C_7
REMARK    5  A    between atoms: C_7  and  N_8
REMARK    6  A    between atoms: C_21  and  C_23
REMARK    7  A    between atoms: C_23  and  N_24
REMARK    8  A    between atoms: N_24  and  C_25
REMARK    9  A    between atoms: N_24  and  C_26
REMARK   10  A    between atoms: C_29  and  O_30
REMARK   11  A    between atoms: O_30  and  C_31
REMARK                            x       y       z     vdW  Elec       q    Type
REMARK                         _______ _______ _______ _____ _____    ______ ____
ROOT
ATOM      1  N   UNL     1       1.631   8.602  19.371  0.00  0.00    +0.000 N 
ATOM      2  C   UNL     1       1.792   7.995  20.603  0.00  0.00    +0.000 A 
ATOM      3  N   UNL     1       1.211   8.325  21.710  0.00  0.00    +0.000 NA
ATOM      4  C   UNL     1       0.390   9.396  21.605  0.00  0.00    +0.000 A 
ATOM      5  S   UNL     1      -0.490   9.992  22.940  0.00  0.00    +0.000 S 
ATOM      6  C   UNL     1      -1.168  11.245  22.007  0.00  0.00    +0.000 A 
ATOM      7  C   UNL     1      -0.763  11.184  20.683  0.00  0.00    +0.000 A 
ATOM      8  C   UNL     1       0.158  10.127  20.460  0.00  0.00    +0.000 A 
ATOM      9  C   UNL     1       0.851   9.753  19.246  0.00  0.00    +0.000 A 
ATOM     10  O   UNL     1       0.757  10.412  18.209  0.00  0.00    +0.000 OA
ATOM     11  C   UNL     1      -1.270  12.166  19.670  0.00  0.00    +0.000 C 
ATOM     12  C   UNL     1      -2.548  12.829  20.197  0.00  0.00    +0.000 C 
ATOM     13  N   UNL     1      -2.322  13.313  21.566  0.00  0.00    +0.000 N 
ATOM     14  C   UNL     1      -1.986  14.628  21.864  0.00  0.00    +0.000 C 
ATOM     15  O   UNL     1      -1.775  15.002  23.024  0.00  0.00    +0.000 OA
ATOM     16  C   UNL     1      -2.132  12.259  22.580  0.00  0.00    +0.000 C 
ENDROOT
BRANCH   1  17
ATOM     17  C   UNL     1       2.374   8.164  18.184  0.00  0.00    +0.000 C 
BRANCH  17  18
ATOM     18  C   UNL     1       2.323   6.653  17.965  0.00  0.00    +0.000 C 
BRANCH  18  21
ATOM     19  C   UNL     1       5.162   4.244  18.676  0.00  0.00    +0.000 A 
ATOM     20  C   UNL     1       3.979   4.967  18.804  0.00  0.00    +0.000 A 
ATOM     21  C   UNL     1       3.665   5.988  17.899  0.00  0.00    +0.000 A 
ATOM     22  C   UNL     1       4.573   6.306  16.886  0.00  0.00    +0.000 A 
ATOM     23  C   UNL     1       5.758   5.588  16.747  0.00  0.00    +0.000 A 
ATOM     24  C   UNL     1       6.048   4.555  17.641  0.00  0.00    +0.000 A 
BRANCH  19  26
ATOM     25  C   UNL     1       4.147   2.556  19.990  0.00  0.00    +0.000 C 
ATOM     26  O   UNL     1       5.327   3.247  19.598  0.00  0.00    +0.000 OA
ENDBRANCH  19  26
BRANCH  23  27
ATOM     27  O   UNL     1       6.530   5.973  15.686  0.00  0.00    +0.000 OA
ATOM     28  C   UNL     1       6.984   4.945  14.817  0.00  0.00    +0.000 C 
ENDBRANCH  23  27
ENDBRANCH  18  21
ENDBRANCH  17  18
ENDBRANCH   1  17
BRANCH  14  29
ATOM     29  C   UNL     1      -1.849  15.621  20.691  0.00  0.00    +0.000 C 
BRANCH  29  30
ATOM     30  N   UNL     1      -0.441  16.001  20.430  0.00  0.00    +0.000 NA
ATOM     31  C   UNL     1      -0.031  15.592  19.083  0.00  0.00    +0.000 C 
ATOM     32  C   UNL     1      -0.293  17.456  20.560  0.00  0.00    +0.000 C 
ENDBRANCH  29  30
ENDBRANCH  14  29
TORSDOF 7
ENDMDL
MODEL 9
REMARK VINA RESULT:      -7.4      3.438      9.575
REMARK  Name = 
REMARK  11 active torsions:
REMARK  status: ('A' for Active; 'I' for Inactive)
REMARK    1  A    between atoms: C_1  and  O_2
REMARK    2  A    between atoms: O_2  and  C_3
REMARK    3  A    between atoms: C_5  and  C_6
REMARK    4  A    between atoms: C_6  and  C_7
REMARK    5  A    between atoms: C_7  and  N_8
REMARK    6  A    between atoms: C_21  and  C_23
REMARK    7  A    between atoms: C_23  and  N_24
REMARK    8  A    between atoms: N_24  and  C_25
REMARK    9  A    between atoms: N_24  and  C_26
REMARK   10  A    between atoms: C_29  and  O_30
REMARK   11  A    between atoms: O_30  and  C_31
REMARK                            x       y       z     vdW  Elec       q    Type
REMARK                         _______ _______ _______ _____ _____    ______ ____
ROOT
ATOM      1  N   UNL     1       1.616   8.411  19.097  0.00  0.00    +0.000 N 
ATOM      2  C   UNL     1       1.833   7.646  20.227  0.00  0.00    +0.000 A 
ATOM      3  N   UNL     1       1.393   7.885  21.420  0.00  0.00    +0.000 NA
ATOM      4  C   UNL     1       0.671   9.026  21.523  0.00  0.00    +0.000 A 
ATOM      5  S   UNL     1      -0.020   9.524  23.001  0.00  0.00    +0.000 S 
ATOM      6  C   UNL     1      -0.660  10.935  22.293  0.00  0.00    +0.000 A 
ATOM      7  C   UNL     1      -0.388  11.003  20.936  0.00  0.00    +0.000 A 
ATOM      8  C   UNL     1       0.403   9.909  20.499  0.00  0.00    +0.000 A 
ATOM      9  C   UNL     1       0.942   9.630  19.185  0.00  0.00    +0.000 A 
ATOM     10  O   UNL     1       0.814  10.416  18.245  0.00  0.00    +0.000 OA
ATOM     11  C   UNL     1      -0.892  12.140  20.100  0.00  0.00    +0.000 C 
ATOM     12  C   UNL     1      -2.046  12.838  20.829  0.00  0.00    +0.000 C 
ATOM     13  N   UNL     1      -1.648  13.130  22.214  0.00  0.00    +0.000 N 
ATOM     14  C   UNL     1      -1.162  14.366  22.622  0.00  0.00    +0.000 C 
ATOM     15  O   UNL     1      -0.809  14.576  23.789  0.00  0.00    +0.000 OA
ATOM     16  C   UNL     1      -1.465  11.947  23.075  0.00  0.00    +0.000 C 
ENDROOT
BRANCH   1  17
ATOM     17  C   UNL     1       2.201   8.062  17.796  0.00  0.00    +0.000 C 
BRANCH  17  18
ATOM     18  C   UNL     1       3.709   7.831  17.856  0.00  0.00    +0.000 C 
BRANCH  18  21
ATOM     19  C   UNL     1       3.827   4.064  17.451  0.00  0.00    +0.000 A 
ATOM     20  C   UNL     1       3.532   5.331  17.948  0.00  0.00    +0.000 A 
ATOM     21  C   UNL     1       4.148   6.468  17.411  0.00  0.00    +0.000 A 
ATOM     22  C   UNL     1       5.098   6.317  16.398  0.00  0.00    +0.000 A 
ATOM     23  C   UNL     1       5.399   5.054  15.893  0.00  0.00    +0.000 A 
ATOM     24  C   UNL     1       4.759   3.930  16.420  0.00  0.00    +0.000 A 
BRANCH  19  26
ATOM     25  C   UNL     1       1.727   3.258  18.193  0.00  0.00    +0.000 C 
ATOM     26  O   UNL     1       3.124   3.044  18.033  0.00  0.00    +0.000 OA
ENDBRANCH  19  26
BRANCH  23  27
ATOM     27  O   UNL     1       6.310   5.057  14.873  0.00  0.00    +0.000 OA
ATOM     28  C   UNL     1       6.209   4.008  13.922  0.00  0.00    +0.000 C 
ENDBRANCH  23  27
ENDBRANCH  18  21
ENDBRANCH  17  18
ENDBRANCH   1  17
BRANCH  14  29
ATOM     29  C   UNL     1      -1.042  15.481  21.562  0.00  0.00    +0.000 C 
BRANCH  29  30
ATOM     30  N   UNL     1       0.334  16.025  21.464  0.00  0.00    +0.000 NA
ATOM     31  C   UNL     1       1.154  15.210  20.564  0.00  0.00    +0.000 C 
ATOM     32  C   UNL     1       0.281  17.401  20.958  0.00  0.00    +0.000 C 
ENDBRANCH  29  30
ENDBRANCH  14  29
TORSDOF 7
ENDMDL
