MODEL 1
REMARK VINA RESULT:      -7.6      0.000      0.000
REMARK  Name = 
REMARK  14 active torsions:
REMARK  status: ('A' for Active; 'I' for Inactive)
REMARK    1  A    between atoms: C_1  and  O_2
REMARK    2  A    between atoms: O_2  and  C_3
REMARK    3  A    between atoms: N_10  and  C_11
REMARK    4  A    between atoms: C_11  and  C_12
REMARK    5  A    between atoms: C_12  and  C_13
REMARK    6  A    between atoms: C_13  and  C_14
REMARK    7  A    between atoms: C_14  and  O_15
REMARK    8  A    between atoms: O_15  and  C_16
REMARK    9  A    between atoms: C_16  and  C_18
REMARK   10  A    between atoms: C_18  and  C_19
REMARK   11  A    between atoms: C_22  and  N_23
REMARK   12  A    between atoms: N_23  and  C_24
REMARK   13  A    between atoms: N_23  and  C_25
REMARK   14  A    between atoms: N_23  and  C_26
REMARK                            x       y       z     vdW  Elec       q    Type
REMARK                         _______ _______ _______ _____ _____    ______ ____
ROOT
ATOM      1  C   UNL     1       7.462   8.333  17.641  0.00  0.00    +0.000 C 
ENDROOT
BRANCH   1   2
ATOM      2  C   UNL     1       8.305   9.585  17.869  0.00  0.00    +0.000 C 
BRANCH   2   3
ATOM      3  C   UNL     1       9.142   9.518  19.150  0.00  0.00    +0.000 C 
BRANCH   3   4
ATOM      4  C   UNL     1       9.339  10.882  19.812  0.00  0.00    +0.000 C 
BRANCH   4  12
ATOM      5  C   UNL     1       9.805  15.705  17.728  0.00  0.00    +0.000 A 
ATOM      6  C   UNL     1       8.762  15.218  18.512  0.00  0.00    +0.000 A 
ATOM      7  C   UNL     1       8.775  13.903  19.005  0.00  0.00    +0.000 A 
ATOM      8  C   UNL     1       9.868  13.082  18.685  0.00  0.00    +0.000 A 
ATOM      9  C   UNL     1      10.933  13.553  17.910  0.00  0.00    +0.000 A 
ATOM     10  C   UNL     1      11.871  12.494  17.787  0.00  0.00    +0.000 A 
ATOM     11  C   UNL     1      11.370  11.410  18.468  0.00  0.00    +0.000 A 
ATOM     12  N   UNL     1      10.157  11.770  19.003  0.00  0.00    +0.000 N 
ATOM     13  C   UNL     1      10.896  14.879  17.433  0.00  0.00    +0.000 A 
BRANCH   5  15
ATOM     14  C   UNL     1       9.537  18.052  18.035  0.00  0.00    +0.000 C 
ATOM     15  O   UNL     1       9.891  16.963  17.192  0.00  0.00    +0.000 OA
ENDBRANCH   5  15
ENDBRANCH   4  12
ENDBRANCH   3   4
ENDBRANCH   2   3
ENDBRANCH   1   2
BRANCH   1  16
ATOM     16  O   UNL     1       7.976   7.217  18.384  0.00  0.00    +0.000 OA
BRANCH  16  17
ATOM     17  C   UNL     1       7.539   5.984  18.007  0.00  0.00    +0.000 C 
ATOM     18  O   UNL     1       7.780   4.938  18.591  0.00  0.00    +0.000 OA
BRANCH  17  19
ATOM     19  C   UNL     1       6.659   6.103  16.773  0.00  0.00    +0.000 C 
BRANCH  19  20
ATOM     20  C   UNL     1       5.268   5.582  17.045  0.00  0.00    +0.000 A 
ATOM     21  C   UNL     1       4.334   6.388  17.705  0.00  0.00    +0.000 A 
ATOM     22  C   UNL     1       3.196   5.819  18.277  0.00  0.00    +0.000 A 
ATOM     23  C   UNL     1       2.992   4.437  18.199  0.00  0.00    +0.000 A 
ATOM     24  C   UNL     1       3.797   3.691  17.322  0.00  0.00    +0.000 A 
ATOM     25  C   UNL     1       4.942   4.257  16.762  0.00  0.00    +0.000 A 
BRANCH  23  26
ATOM     26  N   UNL     1       2.246   3.696  19.297  0.00  0.00    +0.000 NA
ATOM     27  C   UNL     1       1.221   2.739  18.716  0.00  0.00    +0.000 C 
ATOM     28  C   UNL     1       3.322   2.941  20.092  0.00  0.00    +0.000 C 
ATOM     29  C   UNL     1       1.521   4.632  20.257  0.00  0.00    +0.000 C 
ENDBRANCH  23  26
ENDBRANCH  19  20
ENDBRANCH  17  19
ENDBRANCH  16  17
ENDBRANCH   1  16
TORSDOF 10
ENDMDL
MODEL 2
REMARK VINA RESULT:      -7.3      1.817      2.244
REMARK  Name = 
REMARK  14 active torsions:
REMARK  status: ('A' for Active; 'I' for Inactive)
REMARK    1  A    between atoms: C_1  and  O_2
REMARK    2  A    between atoms: O_2  and  C_3
REMARK    3  A    between atoms: N_10  and  C_11
REMARK    4  A    between atoms: C_11  and  C_12
REMARK    5  A    between atoms: C_12  and  C_13
REMARK    6  A    between atoms: C_13  and  C_14
REMARK    7  A    between atoms: C_14  and  O_15
REMARK    8  A    between atoms: O_15  and  C_16
REMARK    9  A    between atoms: C_16  and  C_18
REMARK   10  A    between atoms: C_18  and  C_19
REMARK   11  A    between atoms: C_22  and  N_23
REMARK   12  A    between atoms: N_23  and  C_24
REMARK   13  A    between atoms: N_23  and  C_25
REMARK   14  A    between atoms: N_23  and  C_26
REMARK                            x       y       z     vdW  Elec       q    Type
REMARK                         _______ _______ _______ _____ _____    ______ ____
ROOT
ATOM      1  C   UNL     1       7.735   7.534  17.853  0.00  0.00    +0.000 C 
ENDROOT
BRANCH   1   2
ATOM      2  C   UNL     1       7.761   9.055  17.714  0.00  0.00    +0.000 C 
BRANCH   2   3
ATOM      3  C   UNL     1       8.856   9.713  18.559  0.00  0.00    +0.000 C 
BRANCH   3   4
ATOM      4  C   UNL     1       9.555  10.868  17.841  0.00  0.00    +0.000 C 
BRANCH   4  12
ATOM      5  C   UNL     1       9.408  15.175  20.883  0.00  0.00    +0.000 A 
ATOM      6  C   UNL     1       8.386  14.665  20.087  0.00  0.00    +0.000 A 
ATOM      7  C   UNL     1       8.568  13.498  19.328  0.00  0.00    +0.000 A 
ATOM      8  C   UNL     1       9.814  12.852  19.386  0.00  0.00    +0.000 A 
ATOM      9  C   UNL     1      10.851  13.339  20.189  0.00  0.00    +0.000 A 
ATOM     10  C   UNL     1      11.954  12.458  20.038  0.00  0.00    +0.000 A 
ATOM     11  C   UNL     1      11.585  11.471  19.155  0.00  0.00    +0.000 A 
ATOM     12  N   UNL     1      10.293  11.718  18.761  0.00  0.00    +0.000 N 
ATOM     13  C   UNL     1      10.638  14.509  20.944  0.00  0.00    +0.000 A 
BRANCH   5  15
ATOM     14  C   UNL     1      10.455  16.584  22.494  0.00  0.00    +0.000 C 
ATOM     15  O   UNL     1       9.341  16.304  21.655  0.00  0.00    +0.000 OA
ENDBRANCH   5  15
ENDBRANCH   4  12
ENDBRANCH   3   4
ENDBRANCH   2   3
ENDBRANCH   1   2
BRANCH   1  16
ATOM     16  O   UNL     1       7.820   6.893  16.571  0.00  0.00    +0.000 OA
BRANCH  16  17
ATOM     17  C   UNL     1       7.086   5.758  16.410  0.00  0.00    +0.000 C 
ATOM     18  O   UNL     1       7.541   4.647  16.184  0.00  0.00    +0.000 OA
BRANCH  17  19
ATOM     19  C   UNL     1       5.609   6.067  16.601  0.00  0.00    +0.000 C 
BRANCH  19  20
ATOM     20  C   UNL     1       4.958   5.058  17.516  0.00  0.00    +0.000 A 
ATOM     21  C   UNL     1       3.989   4.180  17.016  0.00  0.00    +0.000 A 
ATOM     22  C   UNL     1       3.135   3.507  17.890  0.00  0.00    +0.000 A 
ATOM     23  C   UNL     1       3.241   3.716  19.269  0.00  0.00    +0.000 A 
ATOM     24  C   UNL     1       4.372   4.391  19.758  0.00  0.00    +0.000 A 
ATOM     25  C   UNL     1       5.217   5.075  18.886  0.00  0.00    +0.000 A 
BRANCH  23  26
ATOM     26  N   UNL     1       2.020   3.613  20.169  0.00  0.00    +0.000 NA
ATOM     27  C   UNL     1       2.317   2.789  21.409  0.00  0.00    +0.000 C 
ATOM     28  C   UNL     1       1.654   5.059  20.540  0.00  0.00    +0.000 C 
ATOM     29  C   UNL     1       0.818   2.989  19.469  0.00  0.00    +0.000 C 
ENDBRANCH  23  26
ENDBRANCH  19  20
ENDBRANCH  17  19
ENDBRANCH  16  17
ENDBRANCH   1  16
TORSDOF 10
ENDMDL
MODEL 3
REMARK VINA RESULT:      -7.2      5.841      7.431
REMARK  Name = 
REMARK  14 active torsions:
REMARK  status: ('A' for Active; 'I' for Inactive)
REMARK    1  A    between atoms: C_1  and  O_2
REMARK    2  A    between atoms: O_2  and  C_3
REMARK    3  A    between atoms: N_10  and  C_11
REMARK    4  A    between atoms: C_11  and  C_12
REMARK    5  A    between atoms: C_12  and  C_13
REMARK    6  A    between atoms: C_13  and  C_14
REMARK    7  A    between atoms: C_14  and  O_15
REMARK    8  A    between atoms: O_15  and  C_16
REMARK    9  A    between atoms: C_16  and  C_18
REMARK   10  A    between atoms: C_18  and  C_19
REMARK   11  A    between atoms: C_22  and  N_23
REMARK   12  A    between atoms: N_23  and  C_24
REMARK   13  A    between atoms: N_23  and  C_25
REMARK   14  A    between atoms: N_23  and  C_26
REMARK                            x       y       z     vdW  Elec       q    Type
REMARK                         _______ _______ _______ _____ _____    ______ ____
ROOT
ATOM      1  C   UNL     1       5.791   7.007  17.438  0.00  0.00    +0.000 C 
ENDROOT
BRANCH   1   2
ATOM      2  C   UNL     1       4.407   6.865  18.068  0.00  0.00    +0.000 C 
BRANCH   2   3
ATOM      3  C   UNL     1       3.369   7.807  17.450  0.00  0.00    +0.000 C 
BRANCH   3   4
ATOM      4  C   UNL     1       2.005   7.734  18.137  0.00  0.00    +0.000 C 
BRANCH   4  12
ATOM      5  C   UNL     1      -0.021  10.333  22.255  0.00  0.00    +0.000 A 
ATOM      6  C   UNL     1       0.246   8.970  22.163  0.00  0.00    +0.000 A 
ATOM      7  C   UNL     1       0.794   8.414  20.996  0.00  0.00    +0.000 A 
ATOM      8  C   UNL     1       1.067   9.267  19.914  0.00  0.00    +0.000 A 
ATOM      9  C   UNL     1       0.818  10.642  19.989  0.00  0.00    +0.000 A 
ATOM     10  C   UNL     1       1.214  11.213  18.751  0.00  0.00    +0.000 A 
ATOM     11  C   UNL     1       1.681  10.197  17.951  0.00  0.00    +0.000 A 
ATOM     12  N   UNL     1       1.584   9.024  18.657  0.00  0.00    +0.000 N 
ATOM     13  C   UNL     1       0.273  11.173  21.175  0.00  0.00    +0.000 A 
BRANCH   5  15
ATOM     14  C   UNL     1      -1.620  11.889  23.089  0.00  0.00    +0.000 C 
ATOM     15  O   UNL     1      -0.559  10.977  23.338  0.00  0.00    +0.000 OA
ENDBRANCH   5  15
ENDBRANCH   4  12
ENDBRANCH   3   4
ENDBRANCH   2   3
ENDBRANCH   1   2
BRANCH   1  16
ATOM     16  O   UNL     1       5.833   6.406  16.135  0.00  0.00    +0.000 OA
BRANCH  16  17
ATOM     17  C   UNL     1       6.330   5.141  16.066  0.00  0.00    +0.000 C 
ATOM     18  O   UNL     1       7.468   4.810  16.362  0.00  0.00    +0.000 OA
BRANCH  17  19
ATOM     19  C   UNL     1       5.240   4.183  15.609  0.00  0.00    +0.000 C 
BRANCH  19  20
ATOM     20  C   UNL     1       4.519   3.579  16.791  0.00  0.00    +0.000 A 
ATOM     21  C   UNL     1       3.159   3.265  16.696  0.00  0.00    +0.000 A 
ATOM     22  C   UNL     1       2.405   3.054  17.851  0.00  0.00    +0.000 A 
ATOM     23  C   UNL     1       3.009   3.165  19.108  0.00  0.00    +0.000 A 
ATOM     24  C   UNL     1       4.411   3.224  19.173  0.00  0.00    +0.000 A 
ATOM     25  C   UNL     1       5.162   3.449  18.021  0.00  0.00    +0.000 A 
BRANCH  23  26
ATOM     26  N   UNL     1       2.212   3.628  20.317  0.00  0.00    +0.000 NA
ATOM     27  C   UNL     1       2.465   5.095  20.614  0.00  0.00    +0.000 C 
ATOM     28  C   UNL     1       0.737   3.381  19.961  0.00  0.00    +0.000 C 
ATOM     29  C   UNL     1       2.530   2.833  21.578  0.00  0.00    +0.000 C 
ENDBRANCH  23  26
ENDBRANCH  19  20
ENDBRANCH  17  19
ENDBRANCH  16  17
ENDBRANCH   1  16
TORSDOF 10
ENDMDL
MODEL 4
REMARK VINA RESULT:      -7.2      1.252      1.636
REMARK  Name = 
REMARK  14 active torsions:
REMARK  status: ('A' for Active; 'I' for Inactive)
REMARK    1  A    between atoms: C_1  and  O_2
REMARK    2  A    between atoms: O_2  and  C_3
REMARK    3  A    between atoms: N_10  and  C_11
REMARK    4  A    between atoms: C_11  and  C_12
REMARK    5  A    between atoms: C_12  and  C_13
REMARK    6  A    between atoms: C_13  and  C_14
REMARK    7  A    between atoms: C_14  and  O_15
REMARK    8  A    between atoms: O_15  and  C_16
REMARK    9  A    between atoms: C_16  and  C_18
REMARK   10  A    between atoms: C_18  and  C_19
REMARK   11  A    between atoms: C_22  and  N_23
REMARK   12  A    between atoms: N_23  and  C_24
REMARK   13  A    between atoms: N_23  and  C_25
REMARK   14  A    between atoms: N_23  and  C_26
REMARK                            x       y       z     vdW  Elec       q    Type
REMARK                         _______ _______ _______ _____ _____    ______ ____
ROOT
ATOM      1  C   UNL     1       8.294   7.197  18.589  0.00  0.00    +0.000 C 
ENDROOT
BRANCH   1   2
ATOM      2  C   UNL     1       8.131   8.626  18.075  0.00  0.00    +0.000 C 
BRANCH   2   3
ATOM      3  C   UNL     1       8.934   9.648  18.885  0.00  0.00    +0.000 C 
BRANCH   3   4
ATOM      4  C   UNL     1       9.559  10.743  18.020  0.00  0.00    +0.000 C 
BRANCH   4  12
ATOM      5  C   UNL     1       8.287  15.789  18.882  0.00  0.00    +0.000 A 
ATOM      6  C   UNL     1       7.702  14.911  17.973  0.00  0.00    +0.000 A 
ATOM      7  C   UNL     1       8.145  13.584  17.854  0.00  0.00    +0.000 A 
ATOM      8  C   UNL     1       9.201  13.158  18.677  0.00  0.00    +0.000 A 
ATOM      9  C   UNL     1       9.795  14.018  19.606  0.00  0.00    +0.000 A 
ATOM     10  C   UNL     1      10.806  13.282  20.280  0.00  0.00    +0.000 A 
ATOM     11  C   UNL     1      10.819  12.011  19.756  0.00  0.00    +0.000 A 
ATOM     12  N   UNL     1       9.852  11.945  18.783  0.00  0.00    +0.000 N 
ATOM     13  C   UNL     1       9.326  15.343  19.707  0.00  0.00    +0.000 A 
BRANCH   5  15
ATOM     14  C   UNL     1       8.822  18.087  18.560  0.00  0.00    +0.000 C 
ATOM     15  O   UNL     1       7.939  17.099  19.075  0.00  0.00    +0.000 OA
ENDBRANCH   5  15
ENDBRANCH   4  12
ENDBRANCH   3   4
ENDBRANCH   2   3
ENDBRANCH   1   2
BRANCH   1  16
ATOM     16  O   UNL     1       7.110   6.421  18.354  0.00  0.00    +0.000 OA
BRANCH  16  17
ATOM     17  C   UNL     1       6.948   5.926  17.097  0.00  0.00    +0.000 C 
ATOM     18  O   UNL     1       7.673   5.101  16.561  0.00  0.00    +0.000 OA
BRANCH  17  19
ATOM     19  C   UNL     1       5.695   6.515  16.468  0.00  0.00    +0.000 C 
BRANCH  19  20
ATOM     20  C   UNL     1       4.462   5.762  16.905  0.00  0.00    +0.000 A 
ATOM     21  C   UNL     1       3.507   6.389  17.713  0.00  0.00    +0.000 A 
ATOM     22  C   UNL     1       2.569   5.627  18.412  0.00  0.00    +0.000 A 
ATOM     23  C   UNL     1       2.589   4.232  18.312  0.00  0.00    +0.000 A 
ATOM     24  C   UNL     1       3.379   3.645  17.308  0.00  0.00    +0.000 A 
ATOM     25  C   UNL     1       4.324   4.404  16.621  0.00  0.00    +0.000 A 
BRANCH  23  26
ATOM     26  N   UNL     1       2.136   3.361  19.473  0.00  0.00    +0.000 NA
ATOM     27  C   UNL     1       3.313   2.926  20.326  0.00  0.00    +0.000 C 
ATOM     28  C   UNL     1       1.155   4.226  20.281  0.00  0.00    +0.000 C 
ATOM     29  C   UNL     1       1.396   2.108  19.021  0.00  0.00    +0.000 C 
ENDBRANCH  23  26
ENDBRANCH  19  20
ENDBRANCH  17  19
ENDBRANCH  16  17
ENDBRANCH   1  16
TORSDOF 10
ENDMDL
MODEL 5
REMARK VINA RESULT:      -7.2      6.761      8.526
REMARK  Name = 
REMARK  14 active torsions:
REMARK  status: ('A' for Active; 'I' for Inactive)
REMARK    1  A    between atoms: C_1  and  O_2
REMARK    2  A    between atoms: O_2  and  C_3
REMARK    3  A    between atoms: N_10  and  C_11
REMARK    4  A    between atoms: C_11  and  C_12
REMARK    5  A    between atoms: C_12  and  C_13
REMARK    6  A    between atoms: C_13  and  C_14
REMARK    7  A    between atoms: C_14  and  O_15
REMARK    8  A    between atoms: O_15  and  C_16
REMARK    9  A    between atoms: C_16  and  C_18
REMARK   10  A    between atoms: C_18  and  C_19
REMARK   11  A    between atoms: C_22  and  N_23
REMARK   12  A    between atoms: N_23  and  C_24
REMARK   13  A    between atoms: N_23  and  C_25
REMARK   14  A    between atoms: N_23  and  C_26
REMARK                            x       y       z     vdW  Elec       q    Type
REMARK                         _______ _______ _______ _____ _____    ______ ____
ROOT
ATOM      1  C   UNL     1       1.141   4.747  19.897  0.00  0.00    +0.000 C 
ENDROOT
BRANCH   1   2
ATOM      2  C   UNL     1       2.232   5.808  19.765  0.00  0.00    +0.000 C 
BRANCH   2   3
ATOM      3  C   UNL     1       2.174   6.561  18.433  0.00  0.00    +0.000 C 
BRANCH   3   4
ATOM      4  C   UNL     1       2.623   8.018  18.547  0.00  0.00    +0.000 C 
BRANCH   4  12
ATOM      5  C   UNL     1      -0.289  10.155  22.391  0.00  0.00    +0.000 A 
ATOM      6  C   UNL     1       0.772   9.263  22.529  0.00  0.00    +0.000 A 
ATOM      7  C   UNL     1       1.463   8.777  21.407  0.00  0.00    +0.000 A 
ATOM      8  C   UNL     1       1.057   9.210  20.134  0.00  0.00    +0.000 A 
ATOM      9  C   UNL     1       0.003  10.115  19.973  0.00  0.00    +0.000 A 
ATOM     10  C   UNL     1      -0.141  10.357  18.581  0.00  0.00    +0.000 A 
ATOM     11  C   UNL     1       0.804   9.604  17.925  0.00  0.00    +0.000 A 
ATOM     12  N   UNL     1       1.520   8.909  18.869  0.00  0.00    +0.000 N 
ATOM     13  C   UNL     1      -0.669  10.590  21.117  0.00  0.00    +0.000 A 
BRANCH   5  15
ATOM     14  C   UNL     1      -1.860  11.799  23.101  0.00  0.00    +0.000 C 
ATOM     15  O   UNL     1      -1.033  10.685  23.412  0.00  0.00    +0.000 OA
ENDBRANCH   5  15
ENDBRANCH   4  12
ENDBRANCH   3   4
ENDBRANCH   2   3
ENDBRANCH   1   2
BRANCH   1  16
ATOM     16  O   UNL     1       1.226   4.068  21.159  0.00  0.00    +0.000 OA
BRANCH  16  17
ATOM     17  C   UNL     1       1.664   2.779  21.128  0.00  0.00    +0.000 C 
ATOM     18  O   UNL     1       2.049   2.139  22.094  0.00  0.00    +0.000 OA
BRANCH  17  19
ATOM     19  C   UNL     1       1.557   2.233  19.713  0.00  0.00    +0.000 C 
BRANCH  19  20
ATOM     20  C   UNL     1       2.806   2.533  18.919  0.00  0.00    +0.000 A 
ATOM     21  C   UNL     1       4.046   2.605  19.564  0.00  0.00    +0.000 A 
ATOM     22  C   UNL     1       5.129   3.223  18.936  0.00  0.00    +0.000 A 
ATOM     23  C   UNL     1       4.972   3.780  17.663  0.00  0.00    +0.000 A 
ATOM     24  C   UNL     1       3.808   3.473  16.937  0.00  0.00    +0.000 A 
ATOM     25  C   UNL     1       2.722   2.869  17.569  0.00  0.00    +0.000 A 
BRANCH  23  26
ATOM     26  N   UNL     1       5.788   4.989  17.235  0.00  0.00    +0.000 NA
ATOM     27  C   UNL     1       5.016   5.858  16.260  0.00  0.00    +0.000 C 
ATOM     28  C   UNL     1       6.105   5.755  18.530  0.00  0.00    +0.000 C 
ATOM     29  C   UNL     1       7.110   4.609  16.578  0.00  0.00    +0.000 C 
ENDBRANCH  23  26
ENDBRANCH  19  20
ENDBRANCH  17  19
ENDBRANCH  16  17
ENDBRANCH   1  16
TORSDOF 10
ENDMDL
MODEL 6
REMARK VINA RESULT:      -7.2      6.456      8.939
REMARK  Name = 
REMARK  14 active torsions:
REMARK  status: ('A' for Active; 'I' for Inactive)
REMARK    1  A    between atoms: C_1  and  O_2
REMARK    2  A    between atoms: O_2  and  C_3
REMARK    3  A    between atoms: N_10  and  C_11
REMARK    4  A    between atoms: C_11  and  C_12
REMARK    5  A    between atoms: C_12  and  C_13
REMARK    6  A    between atoms: C_13  and  C_14
REMARK    7  A    between atoms: C_14  and  O_15
REMARK    8  A    between atoms: O_15  and  C_16
REMARK    9  A    between atoms: C_16  and  C_18
REMARK   10  A    between atoms: C_18  and  C_19
REMARK   11  A    between atoms: C_22  and  N_23
REMARK   12  A    between atoms: N_23  and  C_24
REMARK   13  A    between atoms: N_23  and  C_25
REMARK   14  A    between atoms: N_23  and  C_26
REMARK                            x       y       z     vdW  Elec       q    Type
REMARK                         _______ _______ _______ _____ _____    ______ ____
ROOT
ATOM      1  C   UNL     1       0.793   5.112  20.430  0.00  0.00    +0.000 C 
ENDROOT
BRANCH   1   2
ATOM      2  C   UNL     1       2.112   5.882  20.424  0.00  0.00    +0.000 C 
BRANCH   2   3
ATOM      3  C   UNL     1       1.942   7.356  20.045  0.00  0.00    +0.000 C 
BRANCH   3   4
ATOM      4  C   UNL     1       1.344   8.202  21.170  0.00  0.00    +0.000 C 
BRANCH   4  12
ATOM      5  C   UNL     1      -1.977  12.127  22.345  0.00  0.00    +0.000 A 
ATOM      6  C   UNL     1      -1.474  11.157  23.208  0.00  0.00    +0.000 A 
ATOM      7  C   UNL     1      -0.588  10.167  22.752  0.00  0.00    +0.000 A 
ATOM      8  C   UNL     1      -0.219  10.175  21.397  0.00  0.00    +0.000 A 
ATOM      9  C   UNL     1      -0.701  11.148  20.515  0.00  0.00    +0.000 A 
ATOM     10  C   UNL     1      -0.131  10.887  19.242  0.00  0.00    +0.000 A 
ATOM     11  C   UNL     1       0.669   9.776  19.360  0.00  0.00    +0.000 A 
ATOM     12  N   UNL     1       0.607   9.347  20.664  0.00  0.00    +0.000 N 
ATOM     13  C   UNL     1      -1.585  12.132  21.001  0.00  0.00    +0.000 A 
BRANCH   5  15
ATOM     14  C   UNL     1      -3.897  12.803  23.584  0.00  0.00    +0.000 C 
ATOM     15  O   UNL     1      -2.848  13.129  22.680  0.00  0.00    +0.000 OA
ENDBRANCH   5  15
ENDBRANCH   4  12
ENDBRANCH   3   4
ENDBRANCH   2   3
ENDBRANCH   1   2
BRANCH   1  16
ATOM     16  O   UNL     1       0.916   3.864  19.732  0.00  0.00    +0.000 OA
BRANCH  16  17
ATOM     17  C   UNL     1       1.458   2.829  20.430  0.00  0.00    +0.000 C 
ATOM     18  O   UNL     1       1.371   2.666  21.638  0.00  0.00    +0.000 OA
BRANCH  17  19
ATOM     19  C   UNL     1       2.152   1.870  19.475  0.00  0.00    +0.000 C 
BRANCH  19  20
ATOM     20  C   UNL     1       3.296   2.549  18.761  0.00  0.00    +0.000 A 
ATOM     21  C   UNL     1       4.334   3.131  19.496  0.00  0.00    +0.000 A 
ATOM     22  C   UNL     1       5.190   4.054  18.893  0.00  0.00    +0.000 A 
ATOM     23  C   UNL     1       5.003   4.405  17.551  0.00  0.00    +0.000 A 
ATOM     24  C   UNL     1       4.130   3.627  16.772  0.00  0.00    +0.000 A 
ATOM     25  C   UNL     1       3.267   2.716  17.377  0.00  0.00    +0.000 A 
BRANCH  23  26
ATOM     26  N   UNL     1       5.374   5.791  17.050  0.00  0.00    +0.000 NA
ATOM     27  C   UNL     1       5.588   5.794  15.547  0.00  0.00    +0.000 C 
ATOM     28  C   UNL     1       4.200   6.703  17.444  0.00  0.00    +0.000 C 
ATOM     29  C   UNL     1       6.635   6.341  17.704  0.00  0.00    +0.000 C 
ENDBRANCH  23  26
ENDBRANCH  19  20
ENDBRANCH  17  19
ENDBRANCH  16  17
ENDBRANCH   1  16
TORSDOF 10
ENDMDL
MODEL 7
REMARK VINA RESULT:      -7.1      0.881      1.317
REMARK  Name = 
REMARK  14 active torsions:
REMARK  status: ('A' for Active; 'I' for Inactive)
REMARK    1  A    between atoms: C_1  and  O_2
REMARK    2  A    between atoms: O_2  and  C_3
REMARK    3  A    between atoms: N_10  and  C_11
REMARK    4  A    between atoms: C_11  and  C_12
REMARK    5  A    between atoms: C_12  and  C_13
REMARK    6  A    between atoms: C_13  and  C_14
REMARK    7  A    between atoms: C_14  and  O_15
REMARK    8  A    between atoms: O_15  and  C_16
REMARK    9  A    between atoms: C_16  and  C_18
REMARK   10  A    between atoms: C_18  and  C_19
REMARK   11  A    between atoms: C_22  and  N_23
REMARK   12  A    between atoms: N_23  and  C_24
REMARK   13  A    between atoms: N_23  and  C_25
REMARK   14  A    between atoms: N_23  and  C_26
REMARK                            x       y       z     vdW  Elec       q    Type
REMARK                         _______ _______ _______ _____ _____    ______ ____
ROOT
ATOM      1  C   UNL     1       7.725   8.487  17.833  0.00  0.00    +0.000 C 
ENDROOT
BRANCH   1   2
ATOM      2  C   UNL     1       8.732   9.635  17.784  0.00  0.00    +0.000 C 
BRANCH   2   3
ATOM      3  C   UNL     1       8.952  10.295  19.148  0.00  0.00    +0.000 C 
BRANCH   3   4
ATOM      4  C   UNL     1      10.362  10.859  19.322  0.00  0.00    +0.000 C 
BRANCH   4  12
ATOM      5  C   UNL     1       9.293  16.019  19.083  0.00  0.00    +0.000 A 
ATOM      6  C   UNL     1       8.871  15.111  20.051  0.00  0.00    +0.000 A 
ATOM      7  C   UNL     1       9.240  13.757  19.988  0.00  0.00    +0.000 A 
ATOM      8  C   UNL     1      10.047  13.335  18.919  0.00  0.00    +0.000 A 
ATOM      9  C   UNL     1      10.493  14.232  17.942  0.00  0.00    +0.000 A 
ATOM     10  C   UNL     1      11.291  13.499  17.025  0.00  0.00    +0.000 A 
ATOM     11  C   UNL     1      11.312  12.189  17.441  0.00  0.00    +0.000 A 
ATOM     12  N   UNL     1      10.554  12.095  18.582  0.00  0.00    +0.000 N 
ATOM     13  C   UNL     1      10.112  15.585  18.034  0.00  0.00    +0.000 A 
BRANCH   5  15
ATOM     14  C   UNL     1       9.377  18.074  17.882  0.00  0.00    +0.000 C 
ATOM     15  O   UNL     1       8.989  17.354  19.045  0.00  0.00    +0.000 OA
ENDBRANCH   5  15
ENDBRANCH   4  12
ENDBRANCH   3   4
ENDBRANCH   2   3
ENDBRANCH   1   2
BRANCH   1  16
ATOM     16  O   UNL     1       8.217   7.396  18.625  0.00  0.00    +0.000 OA
BRANCH  16  17
ATOM     17  C   UNL     1       7.756   6.156  18.303  0.00  0.00    +0.000 C 
ATOM     18  O   UNL     1       7.939   5.141  18.958  0.00  0.00    +0.000 OA
BRANCH  17  19
ATOM     19  C   UNL     1       6.932   6.227  17.027  0.00  0.00    +0.000 C 
BRANCH  19  20
ATOM     20  C   UNL     1       5.564   5.621  17.231  0.00  0.00    +0.000 A 
ATOM     21  C   UNL     1       4.731   6.097  18.249  0.00  0.00    +0.000 A 
ATOM     22  C   UNL     1       3.644   5.334  18.681  0.00  0.00    +0.000 A 
ATOM     23  C   UNL     1       3.392   4.087  18.099  0.00  0.00    +0.000 A 
ATOM     24  C   UNL     1       4.076   3.749  16.919  0.00  0.00    +0.000 A 
ATOM     25  C   UNL     1       5.170   4.503  16.497  0.00  0.00    +0.000 A 
BRANCH  23  26
ATOM     26  N   UNL     1       2.748   2.969  18.903  0.00  0.00    +0.000 NA
ATOM     27  C   UNL     1       2.880   3.216  20.395  0.00  0.00    +0.000 C 
ATOM     28  C   UNL     1       1.271   2.948  18.474  0.00  0.00    +0.000 C 
ATOM     29  C   UNL     1       3.344   1.600  18.599  0.00  0.00    +0.000 C 
ENDBRANCH  23  26
ENDBRANCH  19  20
ENDBRANCH  17  19
ENDBRANCH  16  17
ENDBRANCH   1  16
TORSDOF 10
ENDMDL
MODEL 8
REMARK VINA RESULT:      -7.1      6.510      8.150
REMARK  Name = 
REMARK  14 active torsions:
REMARK  status: ('A' for Active; 'I' for Inactive)
REMARK    1  A    between atoms: C_1  and  O_2
REMARK    2  A    between atoms: O_2  and  C_3
REMARK    3  A    between atoms: N_10  and  C_11
REMARK    4  A    between atoms: C_11  and  C_12
REMARK    5  A    between atoms: C_12  and  C_13
REMARK    6  A    between atoms: C_13  and  C_14
REMARK    7  A    between atoms: C_14  and  O_15
REMARK    8  A    between atoms: O_15  and  C_16
REMARK    9  A    between atoms: C_16  and  C_18
REMARK   10  A    between atoms: C_18  and  C_19
REMARK   11  A    between atoms: C_22  and  N_23
REMARK   12  A    between atoms: N_23  and  C_24
REMARK   13  A    between atoms: N_23  and  C_25
REMARK   14  A    between atoms: N_23  and  C_26
REMARK                            x       y       z     vdW  Elec       q    Type
REMARK                         _______ _______ _______ _____ _____    ______ ____
ROOT
ATOM      1  C   UNL     1       2.031   2.311  21.109  0.00  0.00    +0.000 C 
ENDROOT
BRANCH   1   2
ATOM      2  C   UNL     1       1.206   3.592  21.201  0.00  0.00    +0.000 C 
BRANCH   2   3
ATOM      3  C   UNL     1       1.466   4.555  20.038  0.00  0.00    +0.000 C 
BRANCH   3   4
ATOM      4  C   UNL     1       2.457   5.665  20.387  0.00  0.00    +0.000 C 
BRANCH   4  12
ATOM      5  C   UNL     1       0.427  10.533  20.468  0.00  0.00    +0.000 A 
ATOM      6  C   UNL     1       0.457   9.611  21.511  0.00  0.00    +0.000 A 
ATOM      7  C   UNL     1       1.039   8.344  21.344  0.00  0.00    +0.000 A 
ATOM      8  C   UNL     1       1.592   8.022  20.094  0.00  0.00    +0.000 A 
ATOM      9  C   UNL     1       1.584   8.938  19.036  0.00  0.00    +0.000 A 
ATOM     10  C   UNL     1       2.227   8.317  17.933  0.00  0.00    +0.000 A 
ATOM     11  C   UNL     1       2.602   7.053  18.322  0.00  0.00    +0.000 A 
ATOM     12  N   UNL     1       2.210   6.880  19.627  0.00  0.00    +0.000 N 
ATOM     13  C   UNL     1       0.998  10.204  19.233  0.00  0.00    +0.000 A 
BRANCH   5  15
ATOM     14  C   UNL     1      -0.915  12.195  19.414  0.00  0.00    +0.000 C 
ATOM     15  O   UNL     1      -0.118  11.789  20.519  0.00  0.00    +0.000 OA
ENDBRANCH   5  15
ENDBRANCH   4  12
ENDBRANCH   3   4
ENDBRANCH   2   3
ENDBRANCH   1   2
BRANCH   1  16
ATOM     16  O   UNL     1       3.382   2.529  21.542  0.00  0.00    +0.000 OA
BRANCH  16  17
ATOM     17  C   UNL     1       4.350   1.829  20.889  0.00  0.00    +0.000 C 
ATOM     18  O   UNL     1       5.374   1.396  21.395  0.00  0.00    +0.000 OA
BRANCH  17  19
ATOM     19  C   UNL     1       3.944   1.618  19.439  0.00  0.00    +0.000 C 
BRANCH  19  20
ATOM     20  C   UNL     1       4.120   2.885  18.636  0.00  0.00    +0.000 A 
ATOM     21  C   UNL     1       3.382   3.080  17.463  0.00  0.00    +0.000 A 
ATOM     22  C   UNL     1       3.779   4.045  16.537  0.00  0.00    +0.000 A 
ATOM     23  C   UNL     1       4.923   4.813  16.776  0.00  0.00    +0.000 A 
ATOM     24  C   UNL     1       5.493   4.782  18.061  0.00  0.00    +0.000 A 
ATOM     25  C   UNL     1       5.105   3.809  18.980  0.00  0.00    +0.000 A 
BRANCH  23  26
ATOM     26  N   UNL     1       5.773   5.326  15.625  0.00  0.00    +0.000 NA
ATOM     27  C   UNL     1       7.237   5.412  16.016  0.00  0.00    +0.000 C 
ATOM     28  C   UNL     1       5.564   4.324  14.477  0.00  0.00    +0.000 C 
ATOM     29  C   UNL     1       5.338   6.701  15.133  0.00  0.00    +0.000 C 
ENDBRANCH  23  26
ENDBRANCH  19  20
ENDBRANCH  17  19
ENDBRANCH  16  17
ENDBRANCH   1  16
TORSDOF 10
ENDMDL
MODEL 9
REMARK VINA RESULT:      -7.0      1.572      2.031
REMARK  Name = 
REMARK  14 active torsions:
REMARK  status: ('A' for Active; 'I' for Inactive)
REMARK    1  A    between atoms: C_1  and  O_2
REMARK    2  A    between atoms: O_2  and  C_3
REMARK    3  A    between atoms: N_10  and  C_11
REMARK    4  A    between atoms: C_11  and  C_12
REMARK    5  A    between atoms: C_12  and  C_13
REMARK    6  A    between atoms: C_13  and  C_14
REMARK    7  A    between atoms: C_14  and  O_15
REMARK    8  A    between atoms: O_15  and  C_16
REMARK    9  A    between atoms: C_16  and  C_18
REMARK   10  A    between atoms: C_18  and  C_19
REMARK   11  A    between atoms: C_22  and  N_23
REMARK   12  A    between atoms: N_23  and  C_24
REMARK   13  A    between atoms: N_23  and  C_25
REMARK   14  A    between atoms: N_23  and  C_26
REMARK                            x       y       z     vdW  Elec       q    Type
REMARK                         _______ _______ _______ _____ _____    ______ ____
ROOT
ATOM      1  C   UNL     1       7.359   7.794  17.762  0.00  0.00    +0.000 C 
ENDROOT
BRANCH   1   2
ATOM      2  C   UNL     1       8.538   8.547  18.374  0.00  0.00    +0.000 C 
BRANCH   2   3
ATOM      3  C   UNL     1       8.383  10.069  18.289  0.00  0.00    +0.000 C 
BRANCH   3   4
ATOM      4  C   UNL     1       9.717  10.801  18.141  0.00  0.00    +0.000 C 
BRANCH   4  12
ATOM      5  C   UNL     1       7.973  15.709  18.975  0.00  0.00    +0.000 A 
ATOM      6  C   UNL     1       7.610  14.845  17.944  0.00  0.00    +0.000 A 
ATOM      7  C   UNL     1       8.158  13.555  17.850  0.00  0.00    +0.000 A 
ATOM      8  C   UNL     1       9.088  13.153  18.823  0.00  0.00    +0.000 A 
ATOM      9  C   UNL     1       9.457  13.999  19.874  0.00  0.00    +0.000 A 
ATOM     10  C   UNL     1      10.389  13.294  20.680  0.00  0.00    +0.000 A 
ATOM     11  C   UNL     1      10.578  12.054  20.115  0.00  0.00    +0.000 A 
ATOM     12  N   UNL     1       9.794  11.978  18.990  0.00  0.00    +0.000 N 
ATOM     13  C   UNL     1       8.888  15.286  19.946  0.00  0.00    +0.000 A 
BRANCH   5  15
ATOM     14  C   UNL     1       8.477  18.013  19.305  0.00  0.00    +0.000 C 
ATOM     15  O   UNL     1       7.507  16.984  19.158  0.00  0.00    +0.000 OA
ENDBRANCH   5  15
ENDBRANCH   4  12
ENDBRANCH   3   4
ENDBRANCH   2   3
ENDBRANCH   1   2
BRANCH   1  16
ATOM     16  O   UNL     1       7.781   6.967  16.667  0.00  0.00    +0.000 OA
BRANCH  16  17
ATOM     17  C   UNL     1       7.098   5.804  16.486  0.00  0.00    +0.000 C 
ATOM     18  O   UNL     1       7.602   4.710  16.283  0.00  0.00    +0.000 OA
BRANCH  17  19
ATOM     19  C   UNL     1       5.604   6.057  16.622  0.00  0.00    +0.000 C 
BRANCH  19  20
ATOM     20  C   UNL     1       4.961   5.033  17.526  0.00  0.00    +0.000 A 
ATOM     21  C   UNL     1       4.046   4.112  17.003  0.00  0.00    +0.000 A 
ATOM     22  C   UNL     1       3.188   3.414  17.855  0.00  0.00    +0.000 A 
ATOM     23  C   UNL     1       3.235   3.644  19.234  0.00  0.00    +0.000 A 
ATOM     24  C   UNL     1       4.320   4.369  19.754  0.00  0.00    +0.000 A 
ATOM     25  C   UNL     1       5.169   5.076  18.904  0.00  0.00    +0.000 A 
BRANCH  23  26
ATOM     26  N   UNL     1       1.988   3.502  20.090  0.00  0.00    +0.000 NA
ATOM     27  C   UNL     1       2.309   2.866  21.431  0.00  0.00    +0.000 C 
ATOM     28  C   UNL     1       1.443   4.928  20.270  0.00  0.00    +0.000 C 
ATOM     29  C   UNL     1       0.902   2.665  19.424  0.00  0.00    +0.000 C 
ENDBRANCH  23  26
ENDBRANCH  19  20
ENDBRANCH  17  19
ENDBRANCH  16  17
ENDBRANCH   1  16
TORSDOF 10
ENDMDL
