MODEL 1
REMARK VINA RESULT:      -8.0      0.000      0.000
REMARK  Name = 
REMARK  9 active torsions:
REMARK  status: ('A' for Active; 'I' for Inactive)
REMARK    1  A    between atoms: C_1  and  N_2
REMARK    2  A    between atoms: C_6  and  C_7
REMARK    3  A    between atoms: N_16  and  C_17
REMARK    4  A    between atoms: C_17  and  C_18
REMARK    5  A    between atoms: C_18  and  C_19
REMARK    6  A    between atoms: C_19  and  C_20
REMARK    7  A    between atoms: N_22  and  C_23
REMARK    8  A    between atoms: C_23  and  C_24
REMARK    9  A    between atoms: C_24  and  C_25
REMARK                            x       y       z     vdW  Elec       q    Type
REMARK                         _______ _______ _______ _____ _____    ______ ____
ROOT
ATOM      1  C   UNL     1       2.287   6.815  19.692  0.00  0.00    +0.000 A 
ATOM      2  C   UNL     1       3.453   6.211  19.151  0.00  0.00    +0.000 A 
ATOM      3  C   UNL     1       3.477   4.948  19.689  0.00  0.00    +0.000 A 
ATOM      4  N   UNL     1       2.369   4.862  20.467  0.00  0.00    +0.000 N 
ATOM      5  N   UNL     1       1.634   5.978  20.511  0.00  0.00    +0.000 NA
ATOM      6  C   UNL     1       1.973   3.688  21.190  0.00  0.00    +0.000 C 
ATOM      7  C   UNL     1       2.937   2.518  21.085  0.00  0.00    +0.000 C 
ATOM      8  C   UNL     1       4.157   2.680  20.202  0.00  0.00    +0.000 C 
ATOM      9  O   UNL     1       4.973   1.778  20.053  0.00  0.00    +0.000 OA
ATOM     10  N   UNL     1       4.396   3.925  19.523  0.00  0.00    +0.000 N 
ENDROOT
BRANCH   1  16
ATOM     11  C   UNL     1       1.101   8.876  21.749  0.00  0.00    +0.000 C 
ATOM     12  N   UNL     1       1.263   9.086  20.327  0.00  0.00    +0.000 N 
ATOM     13  C   UNL     1       0.922  10.251  19.681  0.00  0.00    +0.000 A 
ATOM     14  C   UNL     1       1.246  10.114  18.352  0.00  0.00    +0.000 A 
ATOM     15  C   UNL     1       1.812   8.828  18.187  0.00  0.00    +0.000 A 
ATOM     16  C   UNL     1       1.801   8.199  19.420  0.00  0.00    +0.000 A 
ENDBRANCH   1  16
BRANCH  10  17
ATOM     17  C   UNL     1       5.667   4.116  18.781  0.00  0.00    +0.000 C 
BRANCH  17  18
ATOM     18  C   UNL     1       5.415   4.172  17.270  0.00  0.00    +0.000 C 
BRANCH  18  19
ATOM     19  C   UNL     1       6.551   4.844  16.484  0.00  0.00    +0.000 C 
BRANCH  19  20
ATOM     20  C   UNL     1       6.552   6.342  16.700  0.00  0.00    +0.000 C 
ATOM     21  O   UNL     1       5.542   7.029  16.532  0.00  0.00    +0.000 OA
ATOM     22  N   UNL     1       7.742   6.878  17.114  0.00  0.00    +0.000 N 
ATOM     23  H   UNL     1       8.596   6.337  17.056  0.00  0.00    +0.000 HD
BRANCH  22  24
ATOM     24  C   UNL     1       7.803   8.314  17.329  0.00  0.00    +0.000 C 
BRANCH  24  25
ATOM     25  C   UNL     1       8.473   8.722  18.631  0.00  0.00    +0.000 C 
BRANCH  25  26
ATOM     26  C   UNL     1       8.953  10.124  18.549  0.00  0.00    +0.000 A 
ATOM     27  C   UNL     1       9.970  10.816  19.172  0.00  0.00    +0.000 A 
ATOM     28  C   UNL     1       9.911  12.140  18.676  0.00  0.00    +0.000 A 
ATOM     29  C   UNL     1       8.856  12.174  17.795  0.00  0.00    +0.000 A 
ATOM     30  O   UNL     1       8.264  10.953  17.715  0.00  0.00    +0.000 OA
ENDBRANCH  25  26
ENDBRANCH  24  25
ENDBRANCH  22  24
ENDBRANCH  19  20
ENDBRANCH  18  19
ENDBRANCH  17  18
ENDBRANCH  10  17
TORSDOF 8
ENDMDL
MODEL 2
REMARK VINA RESULT:      -7.9      0.937      1.080
REMARK  Name = 
REMARK  9 active torsions:
REMARK  status: ('A' for Active; 'I' for Inactive)
REMARK    1  A    between atoms: C_1  and  N_2
REMARK    2  A    between atoms: C_6  and  C_7
REMARK    3  A    between atoms: N_16  and  C_17
REMARK    4  A    between atoms: C_17  and  C_18
REMARK    5  A    between atoms: C_18  and  C_19
REMARK    6  A    between atoms: C_19  and  C_20
REMARK    7  A    between atoms: N_22  and  C_23
REMARK    8  A    between atoms: C_23  and  C_24
REMARK    9  A    between atoms: C_24  and  C_25
REMARK                            x       y       z     vdW  Elec       q    Type
REMARK                         _______ _______ _______ _____ _____    ______ ____
ROOT
ATOM      1  C   UNL     1       2.069   7.124  19.951  0.00  0.00    +0.000 A 
ATOM      2  C   UNL     1       3.240   6.580  19.358  0.00  0.00    +0.000 A 
ATOM      3  C   UNL     1       3.283   5.280  19.796  0.00  0.00    +0.000 A 
ATOM      4  N   UNL     1       2.182   5.118  20.572  0.00  0.00    +0.000 N 
ATOM      5  N   UNL     1       1.434   6.218  20.707  0.00  0.00    +0.000 NA
ATOM      6  C   UNL     1       1.808   3.886  21.205  0.00  0.00    +0.000 C 
ATOM      7  C   UNL     1       2.787   2.742  21.004  0.00  0.00    +0.000 C 
ATOM      8  C   UNL     1       3.997   2.989  20.128  0.00  0.00    +0.000 C 
ATOM      9  O   UNL     1       4.824   2.112  19.905  0.00  0.00    +0.000 OA
ATOM     10  N   UNL     1       4.215   4.285  19.546  0.00  0.00    +0.000 N 
ENDROOT
BRANCH   1  16
ATOM     11  C   UNL     1       1.135   9.104  22.208  0.00  0.00    +0.000 C 
ATOM     12  N   UNL     1       1.136   9.370  20.786  0.00  0.00    +0.000 N 
ATOM     13  C   UNL     1       0.730  10.559  20.229  0.00  0.00    +0.000 A 
ATOM     14  C   UNL     1       0.900  10.474  18.866  0.00  0.00    +0.000 A 
ATOM     15  C   UNL     1       1.438   9.195  18.589  0.00  0.00    +0.000 A 
ATOM     16  C   UNL     1       1.563   8.518  19.789  0.00  0.00    +0.000 A 
ENDBRANCH   1  16
BRANCH  10  17
ATOM     17  C   UNL     1       5.478   4.550  18.813  0.00  0.00    +0.000 C 
BRANCH  17  18
ATOM     18  C   UNL     1       5.265   4.437  17.299  0.00  0.00    +0.000 C 
BRANCH  18  19
ATOM     19  C   UNL     1       5.344   5.786  16.567  0.00  0.00    +0.000 C 
BRANCH  19  20
ATOM     20  C   UNL     1       6.691   6.443  16.779  0.00  0.00    +0.000 C 
ATOM     21  O   UNL     1       7.718   6.018  16.246  0.00  0.00    +0.000 OA
ATOM     22  N   UNL     1       6.688   7.553  17.583  0.00  0.00    +0.000 N 
ATOM     23  H   UNL     1       5.882   7.765  18.159  0.00  0.00    +0.000 HD
BRANCH  22  24
ATOM     24  C   UNL     1       7.956   8.219  17.827  0.00  0.00    +0.000 C 
BRANCH  24  25
ATOM     25  C   UNL     1       7.931   9.718  17.575  0.00  0.00    +0.000 C 
BRANCH  25  26
ATOM     26  C   UNL     1       9.028  10.386  18.319  0.00  0.00    +0.000 A 
ATOM     27  C   UNL     1      10.078  11.194  17.938  0.00  0.00    +0.000 A 
ATOM     28  C   UNL     1      10.790  11.504  19.121  0.00  0.00    +0.000 A 
ATOM     29  C   UNL     1      10.137  10.855  20.143  0.00  0.00    +0.000 A 
ATOM     30  O   UNL     1       9.067  10.169  19.664  0.00  0.00    +0.000 OA
ENDBRANCH  25  26
ENDBRANCH  24  25
ENDBRANCH  22  24
ENDBRANCH  19  20
ENDBRANCH  18  19
ENDBRANCH  17  18
ENDBRANCH  10  17
TORSDOF 8
ENDMDL
MODEL 3
REMARK VINA RESULT:      -7.9      0.789      1.303
REMARK  Name = 
REMARK  9 active torsions:
REMARK  status: ('A' for Active; 'I' for Inactive)
REMARK    1  A    between atoms: C_1  and  N_2
REMARK    2  A    between atoms: C_6  and  C_7
REMARK    3  A    between atoms: N_16  and  C_17
REMARK    4  A    between atoms: C_17  and  C_18
REMARK    5  A    between atoms: C_18  and  C_19
REMARK    6  A    between atoms: C_19  and  C_20
REMARK    7  A    between atoms: N_22  and  C_23
REMARK    8  A    between atoms: C_23  and  C_24
REMARK    9  A    between atoms: C_24  and  C_25
REMARK                            x       y       z     vdW  Elec       q    Type
REMARK                         _______ _______ _______ _____ _____    ______ ____
ROOT
ATOM      1  C   UNL     1       2.073   6.837  20.245  0.00  0.00    +0.000 A 
ATOM      2  C   UNL     1       3.190   6.300  19.551  0.00  0.00    +0.000 A 
ATOM      3  C   UNL     1       3.262   4.992  19.961  0.00  0.00    +0.000 A 
ATOM      4  N   UNL     1       2.225   4.820  20.818  0.00  0.00    +0.000 N 
ATOM      5  N   UNL     1       1.495   5.919  21.032  0.00  0.00    +0.000 NA
ATOM      6  C   UNL     1       1.895   3.577  21.456  0.00  0.00    +0.000 C 
ATOM      7  C   UNL     1       2.849   2.433  21.157  0.00  0.00    +0.000 C 
ATOM      8  C   UNL     1       3.988   2.692  20.193  0.00  0.00    +0.000 C 
ATOM      9  O   UNL     1       4.791   1.817  19.889  0.00  0.00    +0.000 OA
ATOM     10  N   UNL     1       4.166   3.999  19.619  0.00  0.00    +0.000 N 
ENDROOT
BRANCH   1  16
ATOM     11  C   UNL     1       1.940   8.664  17.690  0.00  0.00    +0.000 C 
ATOM     12  N   UNL     1       1.529   9.035  19.027  0.00  0.00    +0.000 N 
ATOM     13  C   UNL     1       1.001  10.261  19.353  0.00  0.00    +0.000 A 
ATOM     14  C   UNL     1       0.690  10.251  20.693  0.00  0.00    +0.000 A 
ATOM     15  C   UNL     1       1.030   8.971  21.194  0.00  0.00    +0.000 A 
ATOM     16  C   UNL     1       1.563   8.236  20.150  0.00  0.00    +0.000 A 
ENDBRANCH   1  16
BRANCH  10  17
ATOM     17  C   UNL     1       5.368   4.273  18.794  0.00  0.00    +0.000 C 
BRANCH  17  18
ATOM     18  C   UNL     1       5.035   4.193  17.299  0.00  0.00    +0.000 C 
BRANCH  18  19
ATOM     19  C   UNL     1       5.097   5.552  16.585  0.00  0.00    +0.000 C 
BRANCH  19  20
ATOM     20  C   UNL     1       6.487   6.146  16.662  0.00  0.00    +0.000 C 
ATOM     21  O   UNL     1       7.492   5.505  16.349  0.00  0.00    +0.000 OA
ATOM     22  N   UNL     1       6.551   7.449  17.080  0.00  0.00    +0.000 N 
ATOM     23  H   UNL     1       5.747   7.888  17.513  0.00  0.00    +0.000 HD
BRANCH  22  24
ATOM     24  C   UNL     1       7.861   8.068  17.181  0.00  0.00    +0.000 C 
BRANCH  24  25
ATOM     25  C   UNL     1       8.307   8.355  18.606  0.00  0.00    +0.000 C 
BRANCH  25  26
ATOM     26  C   UNL     1       8.824   9.741  18.717  0.00  0.00    +0.000 A 
ATOM     27  C   UNL     1       9.624  10.384  19.638  0.00  0.00    +0.000 A 
ATOM     28  C   UNL     1       9.748  11.721  19.191  0.00  0.00    +0.000 A 
ATOM     29  C   UNL     1       9.004  11.811  18.037  0.00  0.00    +0.000 A 
ATOM     30  O   UNL     1       8.435  10.613  17.745  0.00  0.00    +0.000 OA
ENDBRANCH  25  26
ENDBRANCH  24  25
ENDBRANCH  22  24
ENDBRANCH  19  20
ENDBRANCH  18  19
ENDBRANCH  17  18
ENDBRANCH  10  17
TORSDOF 8
ENDMDL
MODEL 4
REMARK VINA RESULT:      -7.7      1.435      1.994
REMARK  Name = 
REMARK  9 active torsions:
REMARK  status: ('A' for Active; 'I' for Inactive)
REMARK    1  A    between atoms: C_1  and  N_2
REMARK    2  A    between atoms: C_6  and  C_7
REMARK    3  A    between atoms: N_16  and  C_17
REMARK    4  A    between atoms: C_17  and  C_18
REMARK    5  A    between atoms: C_18  and  C_19
REMARK    6  A    between atoms: C_19  and  C_20
REMARK    7  A    between atoms: N_22  and  C_23
REMARK    8  A    between atoms: C_23  and  C_24
REMARK    9  A    between atoms: C_24  and  C_25
REMARK                            x       y       z     vdW  Elec       q    Type
REMARK                         _______ _______ _______ _____ _____    ______ ____
ROOT
ATOM      1  C   UNL     1       1.801   6.876  20.038  0.00  0.00    +0.000 A 
ATOM      2  C   UNL     1       2.611   6.502  18.933  0.00  0.00    +0.000 A 
ATOM      3  C   UNL     1       2.688   5.134  19.000  0.00  0.00    +0.000 A 
ATOM      4  N   UNL     1       1.941   4.778  20.075  0.00  0.00    +0.000 N 
ATOM      5  N   UNL     1       1.404   5.805  20.741  0.00  0.00    +0.000 NA
ATOM      6  C   UNL     1       1.709   3.424  20.491  0.00  0.00    +0.000 C 
ATOM      7  C   UNL     1       2.430   2.370  19.667  0.00  0.00    +0.000 C 
ATOM      8  C   UNL     1       3.250   2.834  18.482  0.00  0.00    +0.000 C 
ATOM      9  O   UNL     1       3.848   2.045  17.760  0.00  0.00    +0.000 OA
ATOM     10  N   UNL     1       3.361   4.237  18.186  0.00  0.00    +0.000 N 
ENDROOT
BRANCH   1  16
ATOM     11  C   UNL     1       1.290   9.318  18.125  0.00  0.00    +0.000 C 
ATOM     12  N   UNL     1       1.207   9.333  19.569  0.00  0.00    +0.000 N 
ATOM     13  C   UNL     1       0.870  10.443  20.305  0.00  0.00    +0.000 A 
ATOM     14  C   UNL     1       0.851  10.087  21.634  0.00  0.00    +0.000 A 
ATOM     15  C   UNL     1       1.175   8.712  21.705  0.00  0.00    +0.000 A 
ATOM     16  C   UNL     1       1.407   8.264  20.417  0.00  0.00    +0.000 A 
ENDBRANCH   1  16
BRANCH  10  17
ATOM     17  C   UNL     1       4.284   4.682  17.112  0.00  0.00    +0.000 C 
BRANCH  17  18
ATOM     18  C   UNL     1       5.601   5.200  17.703  0.00  0.00    +0.000 C 
BRANCH  18  19
ATOM     19  C   UNL     1       6.138   6.454  16.997  0.00  0.00    +0.000 C 
BRANCH  19  20
ATOM     20  C   UNL     1       7.290   7.063  17.767  0.00  0.00    +0.000 C 
ATOM     21  O   UNL     1       7.989   6.398  18.534  0.00  0.00    +0.000 OA
ATOM     22  N   UNL     1       7.517   8.394  17.538  0.00  0.00    +0.000 N 
ATOM     23  H   UNL     1       6.821   8.958  17.064  0.00  0.00    +0.000 HD
BRANCH  22  24
ATOM     24  C   UNL     1       8.605   9.033  18.258  0.00  0.00    +0.000 C 
BRANCH  24  25
ATOM     25  C   UNL     1       8.757  10.517  17.969  0.00  0.00    +0.000 C 
BRANCH  25  26
ATOM     26  C   UNL     1       9.734  11.129  18.904  0.00  0.00    +0.000 A 
ATOM     27  C   UNL     1      11.053  11.513  18.780  0.00  0.00    +0.000 A 
ATOM     28  C   UNL     1      11.437  12.024  20.042  0.00  0.00    +0.000 A 
ATOM     29  C   UNL     1      10.335  11.907  20.856  0.00  0.00    +0.000 A 
ATOM     30  O   UNL     1       9.296  11.358  20.173  0.00  0.00    +0.000 OA
ENDBRANCH  25  26
ENDBRANCH  24  25
ENDBRANCH  22  24
ENDBRANCH  19  20
ENDBRANCH  18  19
ENDBRANCH  17  18
ENDBRANCH  10  17
TORSDOF 8
ENDMDL
MODEL 5
REMARK VINA RESULT:      -7.7      2.802      5.052
REMARK  Name = 
REMARK  9 active torsions:
REMARK  status: ('A' for Active; 'I' for Inactive)
REMARK    1  A    between atoms: C_1  and  N_2
REMARK    2  A    between atoms: C_6  and  C_7
REMARK    3  A    between atoms: N_16  and  C_17
REMARK    4  A    between atoms: C_17  and  C_18
REMARK    5  A    between atoms: C_18  and  C_19
REMARK    6  A    between atoms: C_19  and  C_20
REMARK    7  A    between atoms: N_22  and  C_23
REMARK    8  A    between atoms: C_23  and  C_24
REMARK    9  A    between atoms: C_24  and  C_25
REMARK                            x       y       z     vdW  Elec       q    Type
REMARK                         _______ _______ _______ _____ _____    ______ ____
ROOT
ATOM      1  C   UNL     1       2.077   7.049  19.859  0.00  0.00    +0.000 A 
ATOM      2  C   UNL     1       3.165   6.420  19.196  0.00  0.00    +0.000 A 
ATOM      3  C   UNL     1       3.218   5.156  19.728  0.00  0.00    +0.000 A 
ATOM      4  N   UNL     1       2.198   5.092  20.620  0.00  0.00    +0.000 N 
ATOM      5  N   UNL     1       1.498   6.224  20.743  0.00  0.00    +0.000 NA
ATOM      6  C   UNL     1       1.856   3.925  21.382  0.00  0.00    +0.000 C 
ATOM      7  C   UNL     1       2.778   2.735  21.174  0.00  0.00    +0.000 C 
ATOM      8  C   UNL     1       3.899   2.872  20.166  0.00  0.00    +0.000 C 
ATOM      9  O   UNL     1       4.674   1.953  19.930  0.00  0.00    +0.000 OA
ATOM     10  N   UNL     1       4.091   4.113  19.465  0.00  0.00    +0.000 N 
ENDROOT
BRANCH   1  16
ATOM     11  C   UNL     1       1.064   9.095  22.021  0.00  0.00    +0.000 C 
ATOM     12  N   UNL     1       1.134   9.324  20.594  0.00  0.00    +0.000 N 
ATOM     13  C   UNL     1       0.769  10.504  19.990  0.00  0.00    +0.000 A 
ATOM     14  C   UNL     1       1.000  10.383  18.640  0.00  0.00    +0.000 A 
ATOM     15  C   UNL     1       1.534   9.091  18.418  0.00  0.00    +0.000 A 
ATOM     16  C   UNL     1       1.596   8.444  19.640  0.00  0.00    +0.000 A 
ENDBRANCH   1  16
BRANCH  10  17
ATOM     17  C   UNL     1       5.280   4.277  18.591  0.00  0.00    +0.000 C 
BRANCH  17  18
ATOM     18  C   UNL     1       6.262   5.291  19.190  0.00  0.00    +0.000 C 
BRANCH  18  19
ATOM     19  C   UNL     1       7.082   6.047  18.133  0.00  0.00    +0.000 C 
BRANCH  19  20
ATOM     20  C   UNL     1       7.394   5.160  16.947  0.00  0.00    +0.000 C 
ATOM     21  O   UNL     1       8.167   4.203  17.029  0.00  0.00    +0.000 OA
ATOM     22  N   UNL     1       6.742   5.477  15.784  0.00  0.00    +0.000 N 
ATOM     23  H   UNL     1       6.271   6.368  15.688  0.00  0.00    +0.000 HD
BRANCH  22  24
ATOM     24  C   UNL     1       7.010   4.663  14.611  0.00  0.00    +0.000 C 
BRANCH  24  25
ATOM     25  C   UNL     1       5.933   4.738  13.541  0.00  0.00    +0.000 C 
BRANCH  25  26
ATOM     26  C   UNL     1       6.064   3.603  12.594  0.00  0.00    +0.000 A 
ATOM     27  C   UNL     1       5.170   2.682  12.088  0.00  0.00    +0.000 A 
ATOM     28  C   UNL     1       5.914   1.837  11.231  0.00  0.00    +0.000 A 
ATOM     29  C   UNL     1       7.213   2.287  11.280  0.00  0.00    +0.000 A 
ATOM     30  O   UNL     1       7.314   3.358  12.111  0.00  0.00    +0.000 OA
ENDBRANCH  25  26
ENDBRANCH  24  25
ENDBRANCH  22  24
ENDBRANCH  19  20
ENDBRANCH  18  19
ENDBRANCH  17  18
ENDBRANCH  10  17
TORSDOF 8
ENDMDL
MODEL 6
REMARK VINA RESULT:      -7.6      1.020      1.128
REMARK  Name = 
REMARK  9 active torsions:
REMARK  status: ('A' for Active; 'I' for Inactive)
REMARK    1  A    between atoms: C_1  and  N_2
REMARK    2  A    between atoms: C_6  and  C_7
REMARK    3  A    between atoms: N_16  and  C_17
REMARK    4  A    between atoms: C_17  and  C_18
REMARK    5  A    between atoms: C_18  and  C_19
REMARK    6  A    between atoms: C_19  and  C_20
REMARK    7  A    between atoms: N_22  and  C_23
REMARK    8  A    between atoms: C_23  and  C_24
REMARK    9  A    between atoms: C_24  and  C_25
REMARK                            x       y       z     vdW  Elec       q    Type
REMARK                         _______ _______ _______ _____ _____    ______ ____
ROOT
ATOM      1  C   UNL     1       2.047   7.194  19.275  0.00  0.00    +0.000 A 
ATOM      2  C   UNL     1       2.550   6.351  18.248  0.00  0.00    +0.000 A 
ATOM      3  C   UNL     1       2.694   5.121  18.841  0.00  0.00    +0.000 A 
ATOM      4  N   UNL     1       2.271   5.282  20.120  0.00  0.00    +0.000 N 
ATOM      5  N   UNL     1       1.891   6.526  20.427  0.00  0.00    +0.000 NA
ATOM      6  C   UNL     1       2.209   4.229  21.093  0.00  0.00    +0.000 C 
ATOM      7  C   UNL     1       2.725   2.883  20.612  0.00  0.00    +0.000 C 
ATOM      8  C   UNL     1       3.184   2.772  19.173  0.00  0.00    +0.000 C 
ATOM      9  O   UNL     1       3.599   1.718  18.706  0.00  0.00    +0.000 OA
ATOM     10  N   UNL     1       3.161   3.927  18.317  0.00  0.00    +0.000 N 
ENDROOT
BRANCH   1  16
ATOM     11  C   UNL     1       0.623   9.035  21.387  0.00  0.00    +0.000 C 
ATOM     12  N   UNL     1       1.071   9.435  20.072  0.00  0.00    +0.000 N 
ATOM     13  C   UNL     1       0.941  10.708  19.572  0.00  0.00    +0.000 A 
ATOM     14  C   UNL     1       1.507  10.738  18.319  0.00  0.00    +0.000 A 
ATOM     15  C   UNL     1       2.008   9.441  18.054  0.00  0.00    +0.000 A 
ATOM     16  C   UNL     1       1.716   8.643  19.146  0.00  0.00    +0.000 A 
ENDBRANCH   1  16
BRANCH  10  17
ATOM     17  C   UNL     1       3.750   3.836  16.958  0.00  0.00    +0.000 C 
BRANCH  17  18
ATOM     18  C   UNL     1       5.282   3.842  17.024  0.00  0.00    +0.000 C 
BRANCH  18  19
ATOM     19  C   UNL     1       5.920   5.060  16.340  0.00  0.00    +0.000 C 
BRANCH  19  20
ATOM     20  C   UNL     1       6.484   6.026  17.359  0.00  0.00    +0.000 C 
ATOM     21  O   UNL     1       6.040   6.100  18.507  0.00  0.00    +0.000 OA
ATOM     22  N   UNL     1       7.533   6.794  16.929  0.00  0.00    +0.000 N 
ATOM     23  H   UNL     1       7.750   6.857  15.942  0.00  0.00    +0.000 HD
BRANCH  22  24
ATOM     24  C   UNL     1       8.109   7.745  17.865  0.00  0.00    +0.000 C 
BRANCH  24  25
ATOM     25  C   UNL     1       7.760   9.195  17.572  0.00  0.00    +0.000 C 
BRANCH  25  26
ATOM     26  C   UNL     1       8.634  10.106  18.353  0.00  0.00    +0.000 A 
ATOM     27  C   UNL     1       9.303   9.981  19.553  0.00  0.00    +0.000 A 
ATOM     28  C   UNL     1       9.964  11.214  19.768  0.00  0.00    +0.000 A 
ATOM     29  C   UNL     1       9.645  12.013  18.695  0.00  0.00    +0.000 A 
ATOM     30  O   UNL     1       8.832  11.349  17.833  0.00  0.00    +0.000 OA
ENDBRANCH  25  26
ENDBRANCH  24  25
ENDBRANCH  22  24
ENDBRANCH  19  20
ENDBRANCH  18  19
ENDBRANCH  17  18
ENDBRANCH  10  17
TORSDOF 8
ENDMDL
MODEL 7
REMARK VINA RESULT:      -7.6      1.079      1.600
REMARK  Name = 
REMARK  9 active torsions:
REMARK  status: ('A' for Active; 'I' for Inactive)
REMARK    1  A    between atoms: C_1  and  N_2
REMARK    2  A    between atoms: C_6  and  C_7
REMARK    3  A    between atoms: N_16  and  C_17
REMARK    4  A    between atoms: C_17  and  C_18
REMARK    5  A    between atoms: C_18  and  C_19
REMARK    6  A    between atoms: C_19  and  C_20
REMARK    7  A    between atoms: N_22  and  C_23
REMARK    8  A    between atoms: C_23  and  C_24
REMARK    9  A    between atoms: C_24  and  C_25
REMARK                            x       y       z     vdW  Elec       q    Type
REMARK                         _______ _______ _______ _____ _____    ______ ____
ROOT
ATOM      1  C   UNL     1       1.734   6.730  20.326  0.00  0.00    +0.000 A 
ATOM      2  C   UNL     1       2.930   6.211  19.763  0.00  0.00    +0.000 A 
ATOM      3  C   UNL     1       2.775   4.848  19.804  0.00  0.00    +0.000 A 
ATOM      4  N   UNL     1       1.548   4.635  20.343  0.00  0.00    +0.000 N 
ATOM      5  N   UNL     1       0.896   5.749  20.691  0.00  0.00    +0.000 NA
ATOM      6  C   UNL     1       0.956   3.342  20.531  0.00  0.00    +0.000 C 
ATOM      7  C   UNL     1       1.842   2.171  20.138  0.00  0.00    +0.000 C 
ATOM      8  C   UNL     1       3.201   2.477  19.544  0.00  0.00    +0.000 C 
ATOM      9  O   UNL     1       3.966   1.589  19.188  0.00  0.00    +0.000 OA
ATOM     10  N   UNL     1       3.636   3.840  19.402  0.00  0.00    +0.000 N 
ENDROOT
BRANCH   1  16
ATOM     11  C   UNL     1       1.462   8.942  18.109  0.00  0.00    +0.000 C 
ATOM     12  N   UNL     1       1.301   9.137  19.533  0.00  0.00    +0.000 N 
ATOM     13  C   UNL     1       0.987  10.344  20.110  0.00  0.00    +0.000 A 
ATOM     14  C   UNL     1       0.877  10.154  21.468  0.00  0.00    +0.000 A 
ATOM     15  C   UNL     1       1.120   8.784  21.722  0.00  0.00    +0.000 A 
ATOM     16  C   UNL     1       1.397   8.171  20.512  0.00  0.00    +0.000 A 
ENDBRANCH   1  16
BRANCH  10  17
ATOM     17  C   UNL     1       5.024   4.116  18.955  0.00  0.00    +0.000 C 
BRANCH  17  18
ATOM     18  C   UNL     1       5.039   4.668  17.525  0.00  0.00    +0.000 C 
BRANCH  18  19
ATOM     19  C   UNL     1       6.372   4.442  16.795  0.00  0.00    +0.000 C 
BRANCH  19  20
ATOM     20  C   UNL     1       7.104   5.749  16.580  0.00  0.00    +0.000 C 
ATOM     21  O   UNL     1       7.722   5.991  15.541  0.00  0.00    +0.000 OA
ATOM     22  N   UNL     1       7.015   6.652  17.607  0.00  0.00    +0.000 N 
ATOM     23  H   UNL     1       6.675   6.362  18.516  0.00  0.00    +0.000 HD
BRANCH  22  24
ATOM     24  C   UNL     1       7.707   7.921  17.458  0.00  0.00    +0.000 C 
BRANCH  24  25
ATOM     25  C   UNL     1       8.599   8.287  18.633  0.00  0.00    +0.000 C 
BRANCH  25  26
ATOM     26  C   UNL     1       8.827   9.752  18.674  0.00  0.00    +0.000 A 
ATOM     27  C   UNL     1       8.615  10.771  17.769  0.00  0.00    +0.000 A 
ATOM     28  C   UNL     1       9.052  11.960  18.400  0.00  0.00    +0.000 A 
ATOM     29  C   UNL     1       9.514  11.589  19.641  0.00  0.00    +0.000 A 
ATOM     30  O   UNL     1       9.386  10.247  19.814  0.00  0.00    +0.000 OA
ENDBRANCH  25  26
ENDBRANCH  24  25
ENDBRANCH  22  24
ENDBRANCH  19  20
ENDBRANCH  18  19
ENDBRANCH  17  18
ENDBRANCH  10  17
TORSDOF 8
ENDMDL
MODEL 8
REMARK VINA RESULT:      -7.5      2.398      4.684
REMARK  Name = 
REMARK  9 active torsions:
REMARK  status: ('A' for Active; 'I' for Inactive)
REMARK    1  A    between atoms: C_1  and  N_2
REMARK    2  A    between atoms: C_6  and  C_7
REMARK    3  A    between atoms: N_16  and  C_17
REMARK    4  A    between atoms: C_17  and  C_18
REMARK    5  A    between atoms: C_18  and  C_19
REMARK    6  A    between atoms: C_19  and  C_20
REMARK    7  A    between atoms: N_22  and  C_23
REMARK    8  A    between atoms: C_23  and  C_24
REMARK    9  A    between atoms: C_24  and  C_25
REMARK                            x       y       z     vdW  Elec       q    Type
REMARK                         _______ _______ _______ _____ _____    ______ ____
ROOT
ATOM      1  C   UNL     1       2.230   7.108  19.707  0.00  0.00    +0.000 A 
ATOM      2  C   UNL     1       3.376   6.507  19.120  0.00  0.00    +0.000 A 
ATOM      3  C   UNL     1       3.431   5.249  19.666  0.00  0.00    +0.000 A 
ATOM      4  N   UNL     1       2.358   5.161  20.491  0.00  0.00    +0.000 N 
ATOM      5  N   UNL     1       1.619   6.272  20.559  0.00  0.00    +0.000 NA
ATOM      6  C   UNL     1       2.002   3.989  21.239  0.00  0.00    +0.000 C 
ATOM      7  C   UNL     1       2.970   2.825  21.101  0.00  0.00    +0.000 C 
ATOM      8  C   UNL     1       4.149   2.989  20.165  0.00  0.00    +0.000 C 
ATOM      9  O   UNL     1       4.964   2.092  19.988  0.00  0.00    +0.000 OA
ATOM     10  N   UNL     1       4.350   4.231  19.468  0.00  0.00    +0.000 N 
ENDROOT
BRANCH   1  16
ATOM     11  C   UNL     1       1.109   9.172  21.796  0.00  0.00    +0.000 C 
ATOM     12  N   UNL     1       1.214   9.375  20.368  0.00  0.00    +0.000 N 
ATOM     13  C   UNL     1       0.839  10.533  19.729  0.00  0.00    +0.000 A 
ATOM     14  C   UNL     1       1.112  10.390  18.389  0.00  0.00    +0.000 A 
ATOM     15  C   UNL     1       1.682   9.107  18.210  0.00  0.00    +0.000 A 
ATOM     16  C   UNL     1       1.723   8.486  19.445  0.00  0.00    +0.000 A 
ENDBRANCH   1  16
BRANCH  10  17
ATOM     17  C   UNL     1       5.587   4.424  18.671  0.00  0.00    +0.000 C 
BRANCH  17  18
ATOM     18  C   UNL     1       6.675   5.107  19.508  0.00  0.00    +0.000 C 
BRANCH  18  19
ATOM     19  C   UNL     1       7.414   6.224  18.756  0.00  0.00    +0.000 C 
BRANCH  19  20
ATOM     20  C   UNL     1       7.083   6.201  17.280  0.00  0.00    +0.000 C 
ATOM     21  O   UNL     1       6.577   7.168  16.707  0.00  0.00    +0.000 OA
ATOM     22  N   UNL     1       7.404   5.044  16.620  0.00  0.00    +0.000 N 
ATOM     23  H   UNL     1       7.632   4.205  17.140  0.00  0.00    +0.000 HD
BRANCH  22  24
ATOM     24  C   UNL     1       7.099   4.963  15.202  0.00  0.00    +0.000 C 
BRANCH  24  25
ATOM     25  C   UNL     1       5.952   4.025  14.863  0.00  0.00    +0.000 C 
BRANCH  25  26
ATOM     26  C   UNL     1       5.940   3.726  13.410  0.00  0.00    +0.000 A 
ATOM     27  C   UNL     1       6.922   3.682  12.442  0.00  0.00    +0.000 A 
ATOM     28  C   UNL     1       6.271   3.346  11.231  0.00  0.00    +0.000 A 
ATOM     29  C   UNL     1       4.935   3.221  11.535  0.00  0.00    +0.000 A 
ATOM     30  O   UNL     1       4.724   3.456  12.856  0.00  0.00    +0.000 OA
ENDBRANCH  25  26
ENDBRANCH  24  25
ENDBRANCH  22  24
ENDBRANCH  19  20
ENDBRANCH  18  19
ENDBRANCH  17  18
ENDBRANCH  10  17
TORSDOF 8
ENDMDL
MODEL 9
REMARK VINA RESULT:      -7.4      2.455      3.268
REMARK  Name = 
REMARK  9 active torsions:
REMARK  status: ('A' for Active; 'I' for Inactive)
REMARK    1  A    between atoms: C_1  and  N_2
REMARK    2  A    between atoms: C_6  and  C_7
REMARK    3  A    between atoms: N_16  and  C_17
REMARK    4  A    between atoms: C_17  and  C_18
REMARK    5  A    between atoms: C_18  and  C_19
REMARK    6  A    between atoms: C_19  and  C_20
REMARK    7  A    between atoms: N_22  and  C_23
REMARK    8  A    between atoms: C_23  and  C_24
REMARK    9  A    between atoms: C_24  and  C_25
REMARK                            x       y       z     vdW  Elec       q    Type
REMARK                         _______ _______ _______ _____ _____    ______ ____
ROOT
ATOM      1  C   UNL     1       1.855   6.997  19.255  0.00  0.00    +0.000 A 
ATOM      2  C   UNL     1       2.187   5.988  18.312  0.00  0.00    +0.000 A 
ATOM      3  C   UNL     1       2.137   4.814  19.021  0.00  0.00    +0.000 A 
ATOM      4  N   UNL     1       1.777   5.163  20.282  0.00  0.00    +0.000 N 
ATOM      5  N   UNL     1       1.617   6.477  20.468  0.00  0.00    +0.000 NA
ATOM      6  C   UNL     1       1.564   4.233  21.353  0.00  0.00    +0.000 C 
ATOM      7  C   UNL     1       1.838   2.780  21.001  0.00  0.00    +0.000 C 
ATOM      8  C   UNL     1       2.238   2.458  19.577  0.00  0.00    +0.000 C 
ATOM      9  O   UNL     1       2.461   1.309  19.212  0.00  0.00    +0.000 OA
ATOM     10  N   UNL     1       2.387   3.514  18.613  0.00  0.00    +0.000 N 
ENDROOT
BRANCH   1  16
ATOM     11  C   UNL     1       0.411   9.183  20.992  0.00  0.00    +0.000 C 
ATOM     12  N   UNL     1       1.111   9.408  19.747  0.00  0.00    +0.000 N 
ATOM     13  C   UNL     1       1.250  10.642  19.158  0.00  0.00    +0.000 A 
ATOM     14  C   UNL     1       2.000  10.490  18.016  0.00  0.00    +0.000 A 
ATOM     15  C   UNL     1       2.339   9.120  17.914  0.00  0.00    +0.000 A 
ATOM     16  C   UNL     1       1.766   8.462  18.988  0.00  0.00    +0.000 A 
ENDBRANCH   1  16
BRANCH  10  17
ATOM     17  C   UNL     1       2.920   3.196  17.265  0.00  0.00    +0.000 C 
BRANCH  17  18
ATOM     18  C   UNL     1       4.436   3.420  17.210  0.00  0.00    +0.000 C 
BRANCH  18  19
ATOM     19  C   UNL     1       5.135   3.215  18.562  0.00  0.00    +0.000 C 
BRANCH  19  20
ATOM     20  C   UNL     1       5.825   4.483  19.018  0.00  0.00    +0.000 C 
ATOM     21  O   UNL     1       5.267   5.307  19.745  0.00  0.00    +0.000 OA
ATOM     22  N   UNL     1       7.116   4.641  18.588  0.00  0.00    +0.000 N 
ATOM     23  H   UNL     1       7.482   4.060  17.843  0.00  0.00    +0.000 HD
BRANCH  22  24
ATOM     24  C   UNL     1       7.823   5.845  18.988  0.00  0.00    +0.000 C 
BRANCH  24  25
ATOM     25  C   UNL     1       7.725   6.988  17.990  0.00  0.00    +0.000 C 
BRANCH  25  26
ATOM     26  C   UNL     1       6.837   6.614  16.862  0.00  0.00    +0.000 A 
ATOM     27  C   UNL     1       5.538   6.936  16.530  0.00  0.00    +0.000 A 
ATOM     28  C   UNL     1       5.252   6.246  15.328  0.00  0.00    +0.000 A 
ATOM     29  C   UNL     1       6.389   5.538  15.012  0.00  0.00    +0.000 A 
ATOM     30  O   UNL     1       7.355   5.751  15.943  0.00  0.00    +0.000 OA
ENDBRANCH  25  26
ENDBRANCH  24  25
ENDBRANCH  22  24
ENDBRANCH  19  20
ENDBRANCH  18  19
ENDBRANCH  17  18
ENDBRANCH  10  17
TORSDOF 8
ENDMDL
