MODEL 1
REMARK VINA RESULT:      -8.1      0.000      0.000
REMARK  Name = 
REMARK  4 active torsions:
REMARK  status: ('A' for Active; 'I' for Inactive)
REMARK    1  A    between atoms: C_2  and  C_15
REMARK    2  A    between atoms: N_3  and  N_4
REMARK    3  A    between atoms: C_19  and  C_20
REMARK    4  A    between atoms: C_28  and  O_29
REMARK                            x       y       z     vdW  Elec       q    Type
REMARK                         _______ _______ _______ _____ _____    ______ ____
ROOT
ATOM      1  C   UNL     1      -0.412  10.647  18.713  0.00  0.00    +0.000 A 
ATOM      2  C   UNL     1      -0.512  11.356  19.894  0.00  0.00    +0.000 A 
ATOM      3  N   UNL     1      -1.641  11.982  20.308  0.00  0.00    +0.000 NA
ATOM      4  C   UNL     1      -2.735  11.964  19.534  0.00  0.00    +0.000 A 
ATOM      5  C   UNL     1      -3.888  12.631  19.948  0.00  0.00    +0.000 A 
ATOM      6  C   UNL     1      -5.036  12.651  19.128  0.00  0.00    +0.000 A 
ATOM      7  C   UNL     1      -5.046  12.001  17.906  0.00  0.00    +0.000 A 
ATOM      8  C   UNL     1      -3.912  11.310  17.495  0.00  0.00    +0.000 A 
ATOM      9  C   UNL     1      -2.739  11.281  18.289  0.00  0.00    +0.000 A 
ATOM     10  C   UNL     1      -1.550  10.603  17.910  0.00  0.00    +0.000 A 
ENDROOT
BRANCH   1  12
ATOM     11  O   UNL     1       1.875  10.805  18.281  0.00  0.00    +0.000 OA
ATOM     12  C   UNL     1       0.904  10.059  18.377  0.00  0.00    +0.000 C 
ATOM     13  N   UNL     1       0.937   8.684  18.211  0.00  0.00    +0.000 N 
ATOM     14  H   UNL     1       0.073   8.149  18.255  0.00  0.00    +0.000 HD
BRANCH  13  15
ATOM     15  N   UNL     1       2.113   8.076  17.889  0.00  0.00    +0.000 NA
ATOM     16  C   UNL     1       2.505   7.134  18.682  0.00  0.00    +0.000 C 
ATOM     17  N   UNL     1       3.660   6.385  18.540  0.00  0.00    +0.000 N 
ATOM     18  C   UNL     1       4.046   5.363  19.425  0.00  0.00    +0.000 C 
ATOM     19  C   UNL     1       5.167   4.623  19.338  0.00  0.00    +0.000 C 
ATOM     20  C   UNL     1       6.029   4.914  18.252  0.00  0.00    +0.000 A 
ATOM     21  O   UNL     1       7.216   4.322  17.937  0.00  0.00    +0.000 OA
ATOM     22  N   UNL     1       7.746   4.911  16.794  0.00  0.00    +0.000 NA
ATOM     23  C   UNL     1       6.869   5.850  16.436  0.00  0.00    +0.000 A 
ATOM     24  C   UNL     1       5.776   5.892  17.311  0.00  0.00    +0.000 A 
ATOM     25  C   UNL     1       4.546   6.725  17.382  0.00  0.00    +0.000 C 
ENDBRANCH  13  15
ENDBRANCH   1  12
BRANCH   5  26
ATOM     26  C   UNL     1      -3.967  13.363  21.266  0.00  0.00    +0.000 C 
ATOM     27  F   UNL     1      -3.029  14.314  21.519  0.00  0.00    +0.000 F 
ATOM     28  F   UNL     1      -5.173  13.990  21.416  0.00  0.00    +0.000 F 
ATOM     29  F   UNL     1      -3.890  12.495  22.320  0.00  0.00    +0.000 F 
ENDBRANCH   5  26
BRANCH  10  30
ATOM     30  O   UNL     1      -1.485   9.889  16.734  0.00  0.00    +0.000 OA
ATOM     31  H   UNL     1      -2.274   9.322  16.669  0.00  0.00    +0.000 HD
ENDBRANCH  10  30
TORSDOF 4
ENDMDL
MODEL 2
REMARK VINA RESULT:      -8.1      1.752      2.401
REMARK  Name = 
REMARK  4 active torsions:
REMARK  status: ('A' for Active; 'I' for Inactive)
REMARK    1  A    between atoms: C_2  and  C_15
REMARK    2  A    between atoms: N_3  and  N_4
REMARK    3  A    between atoms: C_19  and  C_20
REMARK    4  A    between atoms: C_28  and  O_29
REMARK                            x       y       z     vdW  Elec       q    Type
REMARK                         _______ _______ _______ _____ _____    ______ ____
ROOT
ATOM      1  C   UNL     1      -0.172  10.712  18.512  0.00  0.00    +0.000 A 
ATOM      2  C   UNL     1      -1.246  10.400  17.701  0.00  0.00    +0.000 A 
ATOM      3  N   UNL     1      -2.501  10.877  17.889  0.00  0.00    +0.000 NA
ATOM      4  C   UNL     1      -2.761  11.673  18.934  0.00  0.00    +0.000 A 
ATOM      5  C   UNL     1      -4.059  12.142  19.143  0.00  0.00    +0.000 A 
ATOM      6  C   UNL     1      -4.356  12.952  20.259  0.00  0.00    +0.000 A 
ATOM      7  C   UNL     1      -3.367  13.308  21.160  0.00  0.00    +0.000 A 
ATOM      8  C   UNL     1      -2.065  12.869  20.948  0.00  0.00    +0.000 A 
ATOM      9  C   UNL     1      -1.736  12.045  19.845  0.00  0.00    +0.000 A 
ATOM     10  C   UNL     1      -0.426  11.558  19.591  0.00  0.00    +0.000 A 
ENDROOT
BRANCH   1  12
ATOM     11  O   UNL     1       2.134  10.777  18.166  0.00  0.00    +0.000 OA
ATOM     12  C   UNL     1       1.127  10.074  18.205  0.00  0.00    +0.000 C 
ATOM     13  N   UNL     1       1.105   8.704  18.000  0.00  0.00    +0.000 N 
ATOM     14  H   UNL     1       0.217   8.208  17.998  0.00  0.00    +0.000 HD
BRANCH  13  15
ATOM     15  N   UNL     1       2.264   8.052  17.702  0.00  0.00    +0.000 NA
ATOM     16  C   UNL     1       2.652   7.159  18.552  0.00  0.00    +0.000 C 
ATOM     17  N   UNL     1       3.791   6.380  18.443  0.00  0.00    +0.000 N 
ATOM     18  C   UNL     1       4.172   5.413  19.390  0.00  0.00    +0.000 C 
ATOM     19  C   UNL     1       5.278   4.647  19.336  0.00  0.00    +0.000 C 
ATOM     20  C   UNL     1       6.126   4.846  18.220  0.00  0.00    +0.000 A 
ATOM     21  O   UNL     1       7.297   4.211  17.927  0.00  0.00    +0.000 OA
ATOM     22  N   UNL     1       7.818   4.709  16.738  0.00  0.00    +0.000 NA
ATOM     23  C   UNL     1       6.952   5.639  16.330  0.00  0.00    +0.000 A 
ATOM     24  C   UNL     1       5.876   5.762  17.217  0.00  0.00    +0.000 A 
ATOM     25  C   UNL     1       4.662   6.622  17.250  0.00  0.00    +0.000 C 
ENDBRANCH  13  15
ENDBRANCH   1  12
BRANCH   5  26
ATOM     26  C   UNL     1      -5.196  11.807  18.209  0.00  0.00    +0.000 C 
ATOM     27  F   UNL     1      -6.415  12.345  18.477  0.00  0.00    +0.000 F 
ATOM     28  F   UNL     1      -4.910  12.172  16.923  0.00  0.00    +0.000 F 
ATOM     29  F   UNL     1      -5.408  10.456  18.150  0.00  0.00    +0.000 F 
ENDBRANCH   5  26
BRANCH  10  30
ATOM     30  O   UNL     1       0.629  11.900  20.407  0.00  0.00    +0.000 OA
ATOM     31  H   UNL     1       1.229  12.485  19.912  0.00  0.00    +0.000 HD
ENDBRANCH  10  30
TORSDOF 4
ENDMDL
MODEL 3
REMARK VINA RESULT:      -8.0      7.574      9.832
REMARK  Name = 
REMARK  4 active torsions:
REMARK  status: ('A' for Active; 'I' for Inactive)
REMARK    1  A    between atoms: C_2  and  C_15
REMARK    2  A    between atoms: N_3  and  N_4
REMARK    3  A    between atoms: C_19  and  C_20
REMARK    4  A    between atoms: C_28  and  O_29
REMARK                            x       y       z     vdW  Elec       q    Type
REMARK                         _______ _______ _______ _____ _____    ______ ____
ROOT
ATOM      1  C   UNL     1       5.827   5.972  17.445  0.00  0.00    +0.000 A 
ATOM      2  C   UNL     1       6.227   4.706  17.823  0.00  0.00    +0.000 A 
ATOM      3  N   UNL     1       5.370   3.694  18.107  0.00  0.00    +0.000 NA
ATOM      4  C   UNL     1       4.048   3.909  18.063  0.00  0.00    +0.000 A 
ATOM      5  C   UNL     1       3.166   2.875  18.381  0.00  0.00    +0.000 A 
ATOM      6  C   UNL     1       1.773   3.096  18.374  0.00  0.00    +0.000 A 
ATOM      7  C   UNL     1       1.253   4.335  18.040  0.00  0.00    +0.000 A 
ATOM      8  C   UNL     1       2.120   5.365  17.695  0.00  0.00    +0.000 A 
ATOM      9  C   UNL     1       3.524   5.179  17.704  0.00  0.00    +0.000 A 
ATOM     10  C   UNL     1       4.454   6.202  17.374  0.00  0.00    +0.000 A 
ENDROOT
BRANCH   1  12
ATOM     11  O   UNL     1       7.729   6.764  16.352  0.00  0.00    +0.000 OA
ATOM     12  C   UNL     1       6.882   6.984  17.214  0.00  0.00    +0.000 C 
ATOM     13  N   UNL     1       6.818   8.127  17.993  0.00  0.00    +0.000 N 
ATOM     14  H   UNL     1       6.113   8.202  18.723  0.00  0.00    +0.000 HD
BRANCH  13  15
ATOM     15  N   UNL     1       7.765   9.095  17.842  0.00  0.00    +0.000 NA
ATOM     16  C   UNL     1       8.350   9.496  18.923  0.00  0.00    +0.000 C 
ATOM     17  N   UNL     1       9.339  10.461  18.997  0.00  0.00    +0.000 N 
ATOM     18  C   UNL     1       9.955  10.863  20.196  0.00  0.00    +0.000 C 
ATOM     19  C   UNL     1      10.905  11.808  20.319  0.00  0.00    +0.000 C 
ATOM     20  C   UNL     1      11.310  12.450  19.123  0.00  0.00    +0.000 A 
ATOM     21  O   UNL     1      12.242  13.433  18.969  0.00  0.00    +0.000 OA
ATOM     22  N   UNL     1      12.333  13.790  17.628  0.00  0.00    +0.000 NA
ATOM     23  C   UNL     1      11.452  13.015  16.991  0.00  0.00    +0.000 A 
ATOM     24  C   UNL     1      10.789  12.157  17.878  0.00  0.00    +0.000 A 
ATOM     25  C   UNL     1       9.738  11.118  17.712  0.00  0.00    +0.000 C 
ENDBRANCH  13  15
ENDBRANCH   1  12
BRANCH   5  26
ATOM     26  C   UNL     1       3.646   1.494  18.754  0.00  0.00    +0.000 C 
ATOM     27  F   UNL     1       4.496   1.381  19.808  0.00  0.00    +0.000 F 
ATOM     28  F   UNL     1       2.598   0.663  19.040  0.00  0.00    +0.000 F 
ATOM     29  F   UNL     1       4.291   0.894  17.708  0.00  0.00    +0.000 F 
ENDBRANCH   5  26
BRANCH  10  30
ATOM     30  O   UNL     1       4.025   7.451  16.983  0.00  0.00    +0.000 OA
ATOM     31  H   UNL     1       4.760   7.906  16.535  0.00  0.00    +0.000 HD
ENDBRANCH  10  30
TORSDOF 4
ENDMDL
MODEL 4
REMARK VINA RESULT:      -8.0      1.443      1.771
REMARK  Name = 
REMARK  4 active torsions:
REMARK  status: ('A' for Active; 'I' for Inactive)
REMARK    1  A    between atoms: C_2  and  C_15
REMARK    2  A    between atoms: N_3  and  N_4
REMARK    3  A    between atoms: C_19  and  C_20
REMARK    4  A    between atoms: C_28  and  O_29
REMARK                            x       y       z     vdW  Elec       q    Type
REMARK                         _______ _______ _______ _____ _____    ______ ____
ROOT
ATOM      1  C   UNL     1       0.407  10.328  19.072  0.00  0.00    +0.000 A 
ATOM      2  C   UNL     1       0.613  10.541  20.421  0.00  0.00    +0.000 A 
ATOM      3  N   UNL     1      -0.291  11.131  21.241  0.00  0.00    +0.000 NA
ATOM      4  C   UNL     1      -1.450  11.580  20.742  0.00  0.00    +0.000 A 
ATOM      5  C   UNL     1      -2.369  12.212  21.581  0.00  0.00    +0.000 A 
ATOM      6  C   UNL     1      -3.579  12.721  21.063  0.00  0.00    +0.000 A 
ATOM      7  C   UNL     1      -3.884  12.593  19.719  0.00  0.00    +0.000 A 
ATOM      8  C   UNL     1      -2.989  11.941  18.878  0.00  0.00    +0.000 A 
ATOM      9  C   UNL     1      -1.761  11.430  19.364  0.00  0.00    +0.000 A 
ATOM     10  C   UNL     1      -0.806  10.770  18.546  0.00  0.00    +0.000 A 
ENDROOT
BRANCH   1  12
ATOM     11  O   UNL     1       2.172  10.426  17.551  0.00  0.00    +0.000 OA
ATOM     12  C   UNL     1       1.509   9.713  18.300  0.00  0.00    +0.000 C 
ATOM     13  N   UNL     1       1.719   8.358  18.500  0.00  0.00    +0.000 N 
ATOM     14  H   UNL     1       1.086   7.833  19.099  0.00  0.00    +0.000 HD
BRANCH  13  15
ATOM     15  N   UNL     1       2.709   7.725  17.813  0.00  0.00    +0.000 NA
ATOM     16  C   UNL     1       3.535   7.022  18.517  0.00  0.00    +0.000 C 
ATOM     17  N   UNL     1       4.605   6.296  18.024  0.00  0.00    +0.000 N 
ATOM     18  C   UNL     1       5.475   5.539  18.828  0.00  0.00    +0.000 C 
ATOM     19  C   UNL     1       6.538   4.834  18.396  0.00  0.00    +0.000 C 
ATOM     20  C   UNL     1       6.792   4.871  17.003  0.00  0.00    +0.000 A 
ATOM     21  O   UNL     1       7.793   4.255  16.313  0.00  0.00    +0.000 OA
ATOM     22  N   UNL     1       7.686   4.555  14.960  0.00  0.00    +0.000 NA
ATOM     23  C   UNL     1       6.618   5.349  14.853  0.00  0.00    +0.000 A 
ATOM     24  C   UNL     1       6.021   5.575  16.099  0.00  0.00    +0.000 A 
ATOM     25  C   UNL     1       4.842   6.363  16.547  0.00  0.00    +0.000 C 
ENDBRANCH  13  15
ENDBRANCH   1  12
BRANCH   5  26
ATOM     26  C   UNL     1      -2.120  12.392  23.058  0.00  0.00    +0.000 C 
ATOM     27  F   UNL     1      -1.022  13.099  23.434  0.00  0.00    +0.000 F 
ATOM     28  F   UNL     1      -3.177  13.005  23.671  0.00  0.00    +0.000 F 
ATOM     29  F   UNL     1      -2.001  11.185  23.692  0.00  0.00    +0.000 F 
ENDBRANCH   5  26
BRANCH  10  30
ATOM     30  O   UNL     1      -1.047  10.555  17.207  0.00  0.00    +0.000 OA
ATOM     31  H   UNL     1      -0.839   9.627  16.998  0.00  0.00    +0.000 HD
ENDBRANCH  10  30
TORSDOF 4
ENDMDL
MODEL 5
REMARK VINA RESULT:      -8.0      5.282     10.328
REMARK  Name = 
REMARK  4 active torsions:
REMARK  status: ('A' for Active; 'I' for Inactive)
REMARK    1  A    between atoms: C_2  and  C_15
REMARK    2  A    between atoms: N_3  and  N_4
REMARK    3  A    between atoms: C_19  and  C_20
REMARK    4  A    between atoms: C_28  and  O_29
REMARK                            x       y       z     vdW  Elec       q    Type
REMARK                         _______ _______ _______ _____ _____    ______ ____
ROOT
ATOM      1  C   UNL     1       1.613   7.981  20.011  0.00  0.00    +0.000 A 
ATOM      2  C   UNL     1       1.375   6.948  20.896  0.00  0.00    +0.000 A 
ATOM      3  N   UNL     1       1.853   5.689  20.737  0.00  0.00    +0.000 NA
ATOM      4  C   UNL     1       2.574   5.383  19.650  0.00  0.00    +0.000 A 
ATOM      5  C   UNL     1       3.043   4.081  19.473  0.00  0.00    +0.000 A 
ATOM      6  C   UNL     1       3.774   3.734  18.317  0.00  0.00    +0.000 A 
ATOM      7  C   UNL     1       4.050   4.680  17.344  0.00  0.00    +0.000 A 
ATOM      8  C   UNL     1       3.611   5.987  17.522  0.00  0.00    +0.000 A 
ATOM      9  C   UNL     1       2.865   6.364  18.665  0.00  0.00    +0.000 A 
ATOM     10  C   UNL     1       2.381   7.680  18.888  0.00  0.00    +0.000 A 
ENDROOT
BRANCH   1  12
ATOM     11  O   UNL     1       0.453   9.903  19.375  0.00  0.00    +0.000 OA
ATOM     12  C   UNL     1       0.982   9.289  20.299  0.00  0.00    +0.000 C 
ATOM     13  N   UNL     1       1.025   9.715  21.616  0.00  0.00    +0.000 N 
ATOM     14  H   UNL     1       1.533   9.167  22.307  0.00  0.00    +0.000 HD
BRANCH  13  15
ATOM     15  N   UNL     1       0.474  10.915  21.951  0.00  0.00    +0.000 NA
ATOM     16  C   UNL     1      -0.710  10.876  22.469  0.00  0.00    +0.000 C 
ATOM     17  N   UNL     1      -1.448  11.970  22.884  0.00  0.00    +0.000 N 
ATOM     18  C   UNL     1      -2.732  11.881  23.450  0.00  0.00    +0.000 C 
ATOM     19  C   UNL     1      -3.494  12.916  23.850  0.00  0.00    +0.000 C 
ATOM     20  C   UNL     1      -2.939  14.207  23.675  0.00  0.00    +0.000 A 
ATOM     21  O   UNL     1      -3.495  15.412  23.989  0.00  0.00    +0.000 OA
ATOM     22  N   UNL     1      -2.619  16.437  23.650  0.00  0.00    +0.000 NA
ATOM     23  C   UNL     1      -1.545  15.835  23.135  0.00  0.00    +0.000 A 
ATOM     24  C   UNL     1      -1.692  14.442  23.130  0.00  0.00    +0.000 A 
ATOM     25  C   UNL     1      -0.829  13.318  22.680  0.00  0.00    +0.000 C 
ENDBRANCH  13  15
ENDBRANCH   1  12
BRANCH   5  26
ATOM     26  C   UNL     1       2.791   2.989  20.484  0.00  0.00    +0.000 C 
ATOM     27  F   UNL     1       2.582   3.358  21.776  0.00  0.00    +0.000 F 
ATOM     28  F   UNL     1       1.705   2.232  20.140  0.00  0.00    +0.000 F 
ATOM     29  F   UNL     1       3.834   2.105  20.530  0.00  0.00    +0.000 F 
ENDBRANCH   5  26
BRANCH  10  30
ATOM     30  O   UNL     1       2.650   8.695  17.997  0.00  0.00    +0.000 OA
ATOM     31  H   UNL     1       2.656   9.541  18.480  0.00  0.00    +0.000 HD
ENDBRANCH  10  30
TORSDOF 4
ENDMDL
MODEL 6
REMARK VINA RESULT:      -7.9      1.464      1.722
REMARK  Name = 
REMARK  4 active torsions:
REMARK  status: ('A' for Active; 'I' for Inactive)
REMARK    1  A    between atoms: C_2  and  C_15
REMARK    2  A    between atoms: N_3  and  N_4
REMARK    3  A    between atoms: C_19  and  C_20
REMARK    4  A    between atoms: C_28  and  O_29
REMARK                            x       y       z     vdW  Elec       q    Type
REMARK                         _______ _______ _______ _____ _____    ______ ____
ROOT
ATOM      1  C   UNL     1       0.141  10.579  19.471  0.00  0.00    +0.000 A 
ATOM      2  C   UNL     1       0.259  10.822  20.825  0.00  0.00    +0.000 A 
ATOM      3  N   UNL     1      -0.705  11.409  21.576  0.00  0.00    +0.000 NA
ATOM      4  C   UNL     1      -1.840  11.823  20.996  0.00  0.00    +0.000 A 
ATOM      5  C   UNL     1      -2.821  12.452  21.765  0.00  0.00    +0.000 A 
ATOM      6  C   UNL     1      -4.006  12.926  21.163  0.00  0.00    +0.000 A 
ATOM      7  C   UNL     1      -4.224  12.766  19.805  0.00  0.00    +0.000 A 
ATOM      8  C   UNL     1      -3.266  12.118  19.034  0.00  0.00    +0.000 A 
ATOM      9  C   UNL     1      -2.061  11.642  19.606  0.00  0.00    +0.000 A 
ATOM     10  C   UNL     1      -1.044  10.986  18.861  0.00  0.00    +0.000 A 
ENDROOT
BRANCH   1  12
ATOM     11  O   UNL     1       1.933  10.658  17.979  0.00  0.00    +0.000 OA
ATOM     12  C   UNL     1       1.301   9.973  18.780  0.00  0.00    +0.000 C 
ATOM     13  N   UNL     1       1.598   8.662  19.112  0.00  0.00    +0.000 N 
ATOM     14  H   UNL     1       0.987   8.152  19.746  0.00  0.00    +0.000 HD
BRANCH  13  15
ATOM     15  N   UNL     1       2.646   8.037  18.506  0.00  0.00    +0.000 NA
ATOM     16  C   UNL     1       2.512   6.768  18.298  0.00  0.00    +0.000 C 
ATOM     17  N   UNL     1       3.446   5.944  17.695  0.00  0.00    +0.000 N 
ATOM     18  C   UNL     1       3.257   4.567  17.483  0.00  0.00    +0.000 C 
ATOM     19  C   UNL     1       4.142   3.725  16.920  0.00  0.00    +0.000 C 
ATOM     20  C   UNL     1       5.375   4.290  16.511  0.00  0.00    +0.000 A 
ATOM     21  O   UNL     1       6.434   3.665  15.923  0.00  0.00    +0.000 OA
ATOM     22  N   UNL     1       7.451   4.585  15.689  0.00  0.00    +0.000 NA
ATOM     23  C   UNL     1       6.989   5.752  16.140  0.00  0.00    +0.000 A 
ATOM     24  C   UNL     1       5.696   5.625  16.661  0.00  0.00    +0.000 A 
ATOM     25  C   UNL     1       4.737   6.579  17.280  0.00  0.00    +0.000 C 
ENDBRANCH  13  15
ENDBRANCH   1  12
BRANCH   5  26
ATOM     26  C   UNL     1      -2.668  12.664  23.251  0.00  0.00    +0.000 C 
ATOM     27  F   UNL     1      -1.549  13.300  23.688  0.00  0.00    +0.000 F 
ATOM     28  F   UNL     1      -3.716  13.377  23.763  0.00  0.00    +0.000 F 
ATOM     29  F   UNL     1      -2.690  11.475  23.927  0.00  0.00    +0.000 F 
ENDBRANCH   5  26
BRANCH  10  30
ATOM     30  O   UNL     1      -1.197  10.742  17.514  0.00  0.00    +0.000 OA
ATOM     31  H   UNL     1      -0.879   9.841  17.323  0.00  0.00    +0.000 HD
ENDBRANCH  10  30
TORSDOF 4
ENDMDL
MODEL 7
REMARK VINA RESULT:      -7.8      5.421     10.198
REMARK  Name = 
REMARK  4 active torsions:
REMARK  status: ('A' for Active; 'I' for Inactive)
REMARK    1  A    between atoms: C_2  and  C_15
REMARK    2  A    between atoms: N_3  and  N_4
REMARK    3  A    between atoms: C_19  and  C_20
REMARK    4  A    between atoms: C_28  and  O_29
REMARK                            x       y       z     vdW  Elec       q    Type
REMARK                         _______ _______ _______ _____ _____    ______ ____
ROOT
ATOM      1  C   UNL     1       2.153   7.216  18.845  0.00  0.00    +0.000 A 
ATOM      2  C   UNL     1       2.570   6.449  17.775  0.00  0.00    +0.000 A 
ATOM      3  N   UNL     1       2.823   5.120  17.849  0.00  0.00    +0.000 NA
ATOM      4  C   UNL     1       2.706   4.484  19.022  0.00  0.00    +0.000 A 
ATOM      5  C   UNL     1       2.993   3.121  19.104  0.00  0.00    +0.000 A 
ATOM      6  C   UNL     1       2.909   2.444  20.340  0.00  0.00    +0.000 A 
ATOM      7  C   UNL     1       2.530   3.115  21.490  0.00  0.00    +0.000 A 
ATOM      8  C   UNL     1       2.216   4.467  21.416  0.00  0.00    +0.000 A 
ATOM      9  C   UNL     1       2.302   5.177  20.194  0.00  0.00    +0.000 A 
ATOM     10  C   UNL     1       2.007   6.561  20.067  0.00  0.00    +0.000 A 
ENDROOT
BRANCH   1  12
ATOM     11  O   UNL     1       2.550   9.195  17.676  0.00  0.00    +0.000 OA
ATOM     12  C   UNL     1       1.964   8.666  18.617  0.00  0.00    +0.000 C 
ATOM     13  N   UNL     1       1.110   9.319  19.490  0.00  0.00    +0.000 N 
ATOM     14  H   UNL     1       0.708   8.813  20.276  0.00  0.00    +0.000 HD
BRANCH  13  15
ATOM     15  N   UNL     1       0.898  10.657  19.346  0.00  0.00    +0.000 NA
ATOM     16  C   UNL     1      -0.029  11.172  20.086  0.00  0.00    +0.000 C 
ATOM     17  N   UNL     1      -0.403  12.504  20.104  0.00  0.00    +0.000 N 
ATOM     18  C   UNL     1      -1.414  13.024  20.931  0.00  0.00    +0.000 C 
ATOM     19  C   UNL     1      -1.824  14.305  20.969  0.00  0.00    +0.000 C 
ATOM     20  C   UNL     1      -1.170  15.200  20.087  0.00  0.00    +0.000 A 
ATOM     21  O   UNL     1      -1.393  16.535  19.924  0.00  0.00    +0.000 OA
ATOM     22  N   UNL     1      -0.538  17.039  18.950  0.00  0.00    +0.000 NA
ATOM     23  C   UNL     1       0.189  15.998  18.538  0.00  0.00    +0.000 A 
ATOM     24  C   UNL     1      -0.164  14.826  19.218  0.00  0.00    +0.000 A 
ATOM     25  C   UNL     1       0.310  13.417  19.155  0.00  0.00    +0.000 C 
ENDBRANCH  13  15
ENDBRANCH   1  12
BRANCH   5  26
ATOM     26  C   UNL     1       3.410   2.311  17.900  0.00  0.00    +0.000 C 
ATOM     27  F   UNL     1       4.405   2.807  17.118  0.00  0.00    +0.000 F 
ATOM     28  F   UNL     1       3.820   1.058  18.261  0.00  0.00    +0.000 F 
ATOM     29  F   UNL     1       2.357   2.105  17.052  0.00  0.00    +0.000 F 
ENDBRANCH   5  26
BRANCH  10  30
ATOM     30  O   UNL     1       1.576   7.297  21.148  0.00  0.00    +0.000 OA
ATOM     31  H   UNL     1       2.172   7.127  21.899  0.00  0.00    +0.000 HD
ENDBRANCH  10  30
TORSDOF 4
ENDMDL
MODEL 8
REMARK VINA RESULT:      -7.8      5.287      9.628
REMARK  Name = 
REMARK  4 active torsions:
REMARK  status: ('A' for Active; 'I' for Inactive)
REMARK    1  A    between atoms: C_2  and  C_15
REMARK    2  A    between atoms: N_3  and  N_4
REMARK    3  A    between atoms: C_19  and  C_20
REMARK    4  A    between atoms: C_28  and  O_29
REMARK                            x       y       z     vdW  Elec       q    Type
REMARK                         _______ _______ _______ _____ _____    ______ ____
ROOT
ATOM      1  C   UNL     1       1.563   8.561  19.481  0.00  0.00    +0.000 A 
ATOM      2  C   UNL     1       1.218   7.777  20.564  0.00  0.00    +0.000 A 
ATOM      3  N   UNL     1       1.553   6.469  20.691  0.00  0.00    +0.000 NA
ATOM      4  C   UNL     1       2.229   5.858  19.709  0.00  0.00    +0.000 A 
ATOM      5  C   UNL     1       2.550   4.505  19.827  0.00  0.00    +0.000 A 
ATOM      6  C   UNL     1       3.231   3.837  18.787  0.00  0.00    +0.000 A 
ATOM      7  C   UNL     1       3.604   4.513  17.637  0.00  0.00    +0.000 A 
ATOM      8  C   UNL     1       3.314   5.867  17.519  0.00  0.00    +0.000 A 
ATOM      9  C   UNL     1       2.621   6.563  18.540  0.00  0.00    +0.000 A 
ATOM     10  C   UNL     1       2.287   7.941  18.463  0.00  0.00    +0.000 A 
ENDROOT
BRANCH   1  12
ATOM     11  O   UNL     1      -0.046  10.199  19.889  0.00  0.00    +0.000 OA
ATOM     12  C   UNL     1       1.083   9.960  19.467  0.00  0.00    +0.000 C 
ATOM     13  N   UNL     1       1.969  10.910  18.986  0.00  0.00    +0.000 N 
ATOM     14  H   UNL     1       2.865  10.615  18.605  0.00  0.00    +0.000 HD
BRANCH  13  15
ATOM     15  N   UNL     1       1.588  12.217  18.933  0.00  0.00    +0.000 NA
ATOM     16  C   UNL     1       2.451  13.044  18.440  0.00  0.00    +0.000 C 
ATOM     17  N   UNL     1       2.270  14.407  18.290  0.00  0.00    +0.000 N 
ATOM     18  C   UNL     1       3.234  15.271  17.741  0.00  0.00    +0.000 C 
ATOM     19  C   UNL     1       3.110  16.603  17.592  0.00  0.00    +0.000 C 
ATOM     20  C   UNL     1       1.893  17.173  18.037  0.00  0.00    +0.000 A 
ATOM     21  O   UNL     1       1.515  18.483  18.005  0.00  0.00    +0.000 OA
ATOM     22  N   UNL     1       0.241  18.619  18.546  0.00  0.00    +0.000 NA
ATOM     23  C   UNL     1      -0.132  17.386  18.897  0.00  0.00    +0.000 A 
ATOM     24  C   UNL     1       0.861  16.445  18.598  0.00  0.00    +0.000 A 
ATOM     25  C   UNL     1       0.971  14.973  18.774  0.00  0.00    +0.000 C 
ENDBRANCH  13  15
ENDBRANCH   1  12
BRANCH   5  26
ATOM     26  C   UNL     1       2.186   3.693  21.046  0.00  0.00    +0.000 C 
ATOM     27  F   UNL     1       2.499   4.206  22.265  0.00  0.00    +0.000 F 
ATOM     28  F   UNL     1       0.843   3.438  21.091  0.00  0.00    +0.000 F 
ATOM     29  F   UNL     1       2.775   2.459  21.015  0.00  0.00    +0.000 F 
ENDBRANCH   5  26
BRANCH  10  30
ATOM     30  O   UNL     1       2.660   8.703  17.379  0.00  0.00    +0.000 OA
ATOM     31  H   UNL     1       1.858   8.982  16.903  0.00  0.00    +0.000 HD
ENDBRANCH  10  30
TORSDOF 4
ENDMDL
MODEL 9
REMARK VINA RESULT:      -7.8      5.162     10.481
REMARK  Name = 
REMARK  4 active torsions:
REMARK  status: ('A' for Active; 'I' for Inactive)
REMARK    1  A    between atoms: C_2  and  C_15
REMARK    2  A    between atoms: N_3  and  N_4
REMARK    3  A    between atoms: C_19  and  C_20
REMARK    4  A    between atoms: C_28  and  O_29
REMARK                            x       y       z     vdW  Elec       q    Type
REMARK                         _______ _______ _______ _____ _____    ______ ____
ROOT
ATOM      1  C   UNL     1       2.252   7.269  19.376  0.00  0.00    +0.000 A 
ATOM      2  C   UNL     1       3.024   7.827  18.375  0.00  0.00    +0.000 A 
ATOM      3  N   UNL     1       3.763   7.105  17.497  0.00  0.00    +0.000 NA
ATOM      4  C   UNL     1       3.798   5.769  17.598  0.00  0.00    +0.000 A 
ATOM      5  C   UNL     1       4.580   5.027  16.711  0.00  0.00    +0.000 A 
ATOM      6  C   UNL     1       4.656   3.623  16.826  0.00  0.00    +0.000 A 
ATOM      7  C   UNL     1       3.949   2.954  17.810  0.00  0.00    +0.000 A 
ATOM      8  C   UNL     1       3.145   3.679  18.682  0.00  0.00    +0.000 A 
ATOM      9  C   UNL     1       3.058   5.090  18.601  0.00  0.00    +0.000 A 
ATOM     10  C   UNL     1       2.264   5.879  19.476  0.00  0.00    +0.000 A 
ENDROOT
BRANCH   1  12
ATOM     11  O   UNL     1       1.294   7.819  21.430  0.00  0.00    +0.000 OA
ATOM     12  C   UNL     1       1.539   8.193  20.286  0.00  0.00    +0.000 C 
ATOM     13  N   UNL     1       1.214   9.436  19.769  0.00  0.00    +0.000 N 
ATOM     14  H   UNL     1       1.408   9.642  18.791  0.00  0.00    +0.000 HD
BRANCH  13  15
ATOM     15  N   UNL     1       0.547  10.333  20.548  0.00  0.00    +0.000 NA
ATOM     16  C   UNL     1      -0.508  10.869  20.026  0.00  0.00    +0.000 C 
ATOM     17  N   UNL     1      -1.332  11.795  20.641  0.00  0.00    +0.000 N 
ATOM     18  C   UNL     1      -2.475  12.349  20.038  0.00  0.00    +0.000 C 
ATOM     19  C   UNL     1      -3.295  13.264  20.589  0.00  0.00    +0.000 C 
ATOM     20  C   UNL     1      -2.960  13.702  21.893  0.00  0.00    +0.000 A 
ATOM     21  O   UNL     1      -3.614  14.614  22.669  0.00  0.00    +0.000 OA
ATOM     22  N   UNL     1      -2.950  14.760  23.883  0.00  0.00    +0.000 NA
ATOM     23  C   UNL     1      -1.905  13.933  23.821  0.00  0.00    +0.000 A 
ATOM     24  C   UNL     1      -1.866  13.245  22.601  0.00  0.00    +0.000 A 
ATOM     25  C   UNL     1      -0.944  12.235  22.018  0.00  0.00    +0.000 C 
ENDBRANCH  13  15
ENDBRANCH   1  12
BRANCH   5  26
ATOM     26  C   UNL     1       5.380   5.675  15.607  0.00  0.00    +0.000 C 
ATOM     27  F   UNL     1       4.879   6.803  15.039  0.00  0.00    +0.000 F 
ATOM     28  F   UNL     1       6.637   6.008  16.032  0.00  0.00    +0.000 F 
ATOM     29  F   UNL     1       5.581   4.809  14.567  0.00  0.00    +0.000 F 
ENDBRANCH   5  26
BRANCH  10  30
ATOM     30  O   UNL     1       1.490   5.294  20.453  0.00  0.00    +0.000 OA
ATOM     31  H   UNL     1       2.060   5.070  21.210  0.00  0.00    +0.000 HD
ENDBRANCH  10  30
TORSDOF 4
ENDMDL
