MODEL 1
REMARK VINA RESULT:      -8.0      0.000      0.000
REMARK  Name = 
REMARK  4 active torsions:
REMARK  status: ('A' for Active; 'I' for Inactive)
REMARK    1  A    between atoms: C_1  and  N_2
REMARK    2  A    between atoms: N_7  and  C_8
REMARK    3  A    between atoms: N_16  and  N_17
REMARK    4  A    between atoms: C_18  and  C_19
REMARK                            x       y       z     vdW  Elec       q    Type
REMARK                         _______ _______ _______ _____ _____    ______ ____
ROOT
ATOM      1  C   UNL     1       5.502   6.176  15.474  0.00  0.00    +0.000 C 
ATOM      2  N   UNL     1       4.790   5.363  16.448  0.00  0.00    +0.000 N 
ATOM      3  C   UNL     1       4.907   3.984  16.374  0.00  0.00    +0.000 A 
ATOM      4  O   UNL     1       5.576   3.408  15.522  0.00  0.00    +0.000 OA
ATOM      5  C   UNL     1       4.151   3.153  17.416  0.00  0.00    +0.000 A 
ATOM      6  O   UNL     1       4.284   1.932  17.360  0.00  0.00    +0.000 OA
ATOM      7  N   UNL     1       3.365   3.816  18.362  0.00  0.00    +0.000 N 
ATOM      8  C   UNL     1       3.283   5.241  18.388  0.00  0.00    +0.000 A 
ATOM      9  N   UNL     1       2.517   5.835  19.340  0.00  0.00    +0.000 NA
ATOM     10  C   UNL     1       2.433   7.180  19.348  0.00  0.00    +0.000 A 
ATOM     11  N   UNL     1       1.628   7.792  20.329  0.00  0.00    +0.000 N 
ATOM     12  N   UNL     1       3.086   7.952  18.468  0.00  0.00    +0.000 NA
ATOM     13  C   UNL     1       3.842   7.341  17.546  0.00  0.00    +0.000 A 
ATOM     14  C   UNL     1       3.987   5.975  17.442  0.00  0.00    +0.000 A 
ATOM     15  H   UNL     1       1.083   7.089  20.817  0.00  0.00    +0.000 HD
ENDROOT
BRANCH   7  16
ATOM     16  C   UNL     1       2.620   3.032  19.358  0.00  0.00    +0.000 C 
ATOM     17  C   UNL     1       3.071   3.259  20.806  0.00  0.00    +0.000 C 
ATOM     18  C   UNL     1       1.905   2.759  21.647  0.00  0.00    +0.000 C 
ATOM     19  C   UNL     1       0.650   2.939  20.795  0.00  0.00    +0.000 C 
ATOM     20  C   UNL     1       1.114   3.329  19.393  0.00  0.00    +0.000 C 
ENDBRANCH   7  16
BRANCH  11  21
ATOM     21  N   UNL     1       1.080   9.002  20.011  0.00  0.00    +0.000 NA
ATOM     22  C   UNL     1       0.067   9.388  20.720  0.00  0.00    +0.000 C 
BRANCH  22  23
ATOM     23  C   UNL     1      -0.598  10.687  20.440  0.00  0.00    +0.000 A 
ATOM     24  C   UNL     1      -0.695  11.120  19.107  0.00  0.00    +0.000 A 
ATOM     25  C   UNL     1      -1.330  12.323  18.792  0.00  0.00    +0.000 A 
ATOM     26  C   UNL     1      -1.874  13.108  19.804  0.00  0.00    +0.000 A 
ATOM     27  C   UNL     1      -1.774  12.692  21.133  0.00  0.00    +0.000 A 
ATOM     28  C   UNL     1      -1.137  11.486  21.457  0.00  0.00    +0.000 A 
ATOM     29 CL   UNL     1      -1.054  11.061  23.128  0.00  0.00    +0.000 Cl
ENDBRANCH  22  23
ENDBRANCH  11  21
TORSDOF 3
ENDMDL
MODEL 2
REMARK VINA RESULT:      -8.0      1.032      1.366
REMARK  Name = 
REMARK  4 active torsions:
REMARK  status: ('A' for Active; 'I' for Inactive)
REMARK    1  A    between atoms: C_1  and  N_2
REMARK    2  A    between atoms: N_7  and  C_8
REMARK    3  A    between atoms: N_16  and  N_17
REMARK    4  A    between atoms: C_18  and  C_19
REMARK                            x       y       z     vdW  Elec       q    Type
REMARK                         _______ _______ _______ _____ _____    ______ ____
ROOT
ATOM      1  C   UNL     1       5.435   6.277  15.524  0.00  0.00    +0.000 C 
ATOM      2  N   UNL     1       4.746   5.440  16.494  0.00  0.00    +0.000 N 
ATOM      3  C   UNL     1       4.867   4.063  16.387  0.00  0.00    +0.000 A 
ATOM      4  O   UNL     1       5.522   3.509  15.510  0.00  0.00    +0.000 OA
ATOM      5  C   UNL     1       4.137   3.207  17.426  0.00  0.00    +0.000 A 
ATOM      6  O   UNL     1       4.274   1.987  17.341  0.00  0.00    +0.000 OA
ATOM      7  N   UNL     1       3.368   3.845  18.402  0.00  0.00    +0.000 N 
ATOM      8  C   UNL     1       3.280   5.269  18.462  0.00  0.00    +0.000 A 
ATOM      9  N   UNL     1       2.531   5.839  19.441  0.00  0.00    +0.000 NA
ATOM     10  C   UNL     1       2.442   7.182  19.481  0.00  0.00    +0.000 A 
ATOM     11  N   UNL     1       1.654   7.769  20.491  0.00  0.00    +0.000 N 
ATOM     12  N   UNL     1       3.073   7.976  18.604  0.00  0.00    +0.000 NA
ATOM     13  C   UNL     1       3.813   7.390  17.654  0.00  0.00    +0.000 A 
ATOM     14  C   UNL     1       3.962   6.027  17.517  0.00  0.00    +0.000 A 
ATOM     15  H   UNL     1       1.122   7.054  20.975  0.00  0.00    +0.000 HD
ENDROOT
BRANCH   7  16
ATOM     16  C   UNL     1       2.647   3.037  19.396  0.00  0.00    +0.000 C 
ATOM     17  C   UNL     1       3.196   3.152  20.823  0.00  0.00    +0.000 C 
ATOM     18  C   UNL     1       2.060   2.655  21.706  0.00  0.00    +0.000 C 
ATOM     19  C   UNL     1       0.766   2.946  20.948  0.00  0.00    +0.000 C 
ATOM     20  C   UNL     1       1.162   3.401  19.544  0.00  0.00    +0.000 C 
ENDBRANCH   7  16
BRANCH  11  21
ATOM     21  N   UNL     1       1.095   8.983  20.211  0.00  0.00    +0.000 NA
ATOM     22  C   UNL     1       0.001   9.280  20.837  0.00  0.00    +0.000 C 
BRANCH  22  23
ATOM     23  C   UNL     1      -0.683  10.576  20.588  0.00  0.00    +0.000 A 
ATOM     24  C   UNL     1      -0.890  11.446  21.672  0.00  0.00    +0.000 A 
ATOM     25  C   UNL     1      -1.509  12.684  21.485  0.00  0.00    +0.000 A 
ATOM     26  C   UNL     1      -1.930  13.066  20.215  0.00  0.00    +0.000 A 
ATOM     27  C   UNL     1      -1.738  12.204  19.134  0.00  0.00    +0.000 A 
ATOM     28  C   UNL     1      -1.119  10.960  19.313  0.00  0.00    +0.000 A 
ATOM     29 CL   UNL     1      -0.936   9.960  17.918  0.00  0.00    +0.000 Cl
ENDBRANCH  22  23
ENDBRANCH  11  21
TORSDOF 3
ENDMDL
MODEL 3
REMARK VINA RESULT:      -7.9      1.592      3.894
REMARK  Name = 
REMARK  4 active torsions:
REMARK  status: ('A' for Active; 'I' for Inactive)
REMARK    1  A    between atoms: C_1  and  N_2
REMARK    2  A    between atoms: N_7  and  C_8
REMARK    3  A    between atoms: N_16  and  N_17
REMARK    4  A    between atoms: C_18  and  C_19
REMARK                            x       y       z     vdW  Elec       q    Type
REMARK                         _______ _______ _______ _____ _____    ______ ____
ROOT
ATOM      1  C   UNL     1       1.926   3.279  21.802  0.00  0.00    +0.000 C 
ATOM      2  N   UNL     1       2.729   3.902  20.761  0.00  0.00    +0.000 N 
ATOM      3  C   UNL     1       3.765   3.174  20.196  0.00  0.00    +0.000 A 
ATOM      4  O   UNL     1       4.047   2.028  20.534  0.00  0.00    +0.000 OA
ATOM      5  C   UNL     1       4.589   3.852  19.098  0.00  0.00    +0.000 A 
ATOM      6  O   UNL     1       5.487   3.188  18.583  0.00  0.00    +0.000 OA
ATOM      7  N   UNL     1       4.282   5.167  18.743  0.00  0.00    +0.000 N 
ATOM      8  C   UNL     1       3.202   5.868  19.361  0.00  0.00    +0.000 A 
ATOM      9  N   UNL     1       2.935   7.140  18.966  0.00  0.00    +0.000 NA
ATOM     10  C   UNL     1       1.925   7.799  19.565  0.00  0.00    +0.000 A 
ATOM     11  N   UNL     1       1.659   9.123  19.161  0.00  0.00    +0.000 N 
ATOM     12  N   UNL     1       1.165   7.246  20.520  0.00  0.00    +0.000 NA
ATOM     13  C   UNL     1       1.442   5.987  20.884  0.00  0.00    +0.000 A 
ATOM     14  C   UNL     1       2.459   5.229  20.345  0.00  0.00    +0.000 A 
ATOM     15  H   UNL     1       2.400   9.455  18.553  0.00  0.00    +0.000 HD
ENDROOT
BRANCH   7  16
ATOM     16  C   UNL     1       5.074   5.839  17.702  0.00  0.00    +0.000 C 
ATOM     17  C   UNL     1       6.566   5.972  18.030  0.00  0.00    +0.000 C 
ATOM     18  C   UNL     1       7.228   6.229  16.684  0.00  0.00    +0.000 C 
ATOM     19  C   UNL     1       6.338   5.567  15.633  0.00  0.00    +0.000 C 
ATOM     20  C   UNL     1       5.060   5.125  16.343  0.00  0.00    +0.000 C 
ENDBRANCH   7  16
BRANCH  11  21
ATOM     21  N   UNL     1       1.097   9.951  20.091  0.00  0.00    +0.000 NA
ATOM     22  C   UNL     1      -0.180  10.145  20.003  0.00  0.00    +0.000 C 
BRANCH  22  23
ATOM     23  C   UNL     1      -0.876  11.038  20.967  0.00  0.00    +0.000 A 
ATOM     24  C   UNL     1      -1.515  12.189  20.477  0.00  0.00    +0.000 A 
ATOM     25  C   UNL     1      -2.199  13.048  21.340  0.00  0.00    +0.000 A 
ATOM     26  C   UNL     1      -2.251  12.767  22.702  0.00  0.00    +0.000 A 
ATOM     27  C   UNL     1      -1.611  11.631  23.200  0.00  0.00    +0.000 A 
ATOM     28  C   UNL     1      -0.922  10.766  22.341  0.00  0.00    +0.000 A 
ATOM     29 CL   UNL     1      -0.152   9.392  23.051  0.00  0.00    +0.000 Cl
ENDBRANCH  22  23
ENDBRANCH  11  21
TORSDOF 3
ENDMDL
MODEL 4
REMARK VINA RESULT:      -7.9      4.712      9.192
REMARK  Name = 
REMARK  4 active torsions:
REMARK  status: ('A' for Active; 'I' for Inactive)
REMARK    1  A    between atoms: C_1  and  N_2
REMARK    2  A    between atoms: N_7  and  C_8
REMARK    3  A    between atoms: N_16  and  N_17
REMARK    4  A    between atoms: C_18  and  C_19
REMARK                            x       y       z     vdW  Elec       q    Type
REMARK                         _______ _______ _______ _____ _____    ______ ____
ROOT
ATOM      1  C   UNL     1      -1.099  12.767  22.740  0.00  0.00    +0.000 C 
ATOM      2  N   UNL     1      -1.683  12.404  21.457  0.00  0.00    +0.000 N 
ATOM      3  C   UNL     1      -3.006  12.739  21.212  0.00  0.00    +0.000 A 
ATOM      4  O   UNL     1      -3.717  13.322  22.025  0.00  0.00    +0.000 OA
ATOM      5  C   UNL     1      -3.593  12.351  19.852  0.00  0.00    +0.000 A 
ATOM      6  O   UNL     1      -4.758  12.678  19.632  0.00  0.00    +0.000 OA
ATOM      7  N   UNL     1      -2.787  11.659  18.945  0.00  0.00    +0.000 N 
ATOM      8  C   UNL     1      -1.429  11.340  19.254  0.00  0.00    +0.000 A 
ATOM      9  N   UNL     1      -0.684  10.680  18.329  0.00  0.00    +0.000 NA
ATOM     10  C   UNL     1       0.590  10.371  18.635  0.00  0.00    +0.000 A 
ATOM     11  N   UNL     1       1.356   9.676  17.678  0.00  0.00    +0.000 N 
ATOM     12  N   UNL     1       1.155  10.700  19.806  0.00  0.00    +0.000 NA
ATOM     13  C   UNL     1       0.402  11.359  20.696  0.00  0.00    +0.000 A 
ATOM     14  C   UNL     1      -0.914  11.714  20.489  0.00  0.00    +0.000 A 
ATOM     15  H   UNL     1       0.761   9.362  16.919  0.00  0.00    +0.000 HD
ENDROOT
BRANCH   7  16
ATOM     16  C   UNL     1      -3.340  11.264  17.641  0.00  0.00    +0.000 C 
ATOM     17  C   UNL     1      -2.491  11.691  16.438  0.00  0.00    +0.000 C 
ATOM     18  C   UNL     1      -2.969  10.798  15.302  0.00  0.00    +0.000 C 
ATOM     19  C   UNL     1      -3.476   9.511  15.950  0.00  0.00    +0.000 C 
ATOM     20  C   UNL     1      -3.498   9.748  17.459  0.00  0.00    +0.000 C 
ENDBRANCH   7  16
BRANCH  11  21
ATOM     21  N   UNL     1       2.359   8.878  18.151  0.00  0.00    +0.000 NA
ATOM     22  C   UNL     1       2.456   7.695  17.634  0.00  0.00    +0.000 C 
BRANCH  22  23
ATOM     23  C   UNL     1       3.512   6.754  18.094  0.00  0.00    +0.000 A 
ATOM     24  C   UNL     1       4.693   6.649  17.340  0.00  0.00    +0.000 A 
ATOM     25  C   UNL     1       5.722   5.795  17.742  0.00  0.00    +0.000 A 
ATOM     26  C   UNL     1       5.583   5.036  18.901  0.00  0.00    +0.000 A 
ATOM     27  C   UNL     1       4.409   5.127  19.651  0.00  0.00    +0.000 A 
ATOM     28  C   UNL     1       3.372   5.980  19.253  0.00  0.00    +0.000 A 
ATOM     29 CL   UNL     1       1.955   6.015  20.240  0.00  0.00    +0.000 Cl
ENDBRANCH  22  23
ENDBRANCH  11  21
TORSDOF 3
ENDMDL
MODEL 5
REMARK VINA RESULT:      -7.9      1.844      4.057
REMARK  Name = 
REMARK  4 active torsions:
REMARK  status: ('A' for Active; 'I' for Inactive)
REMARK    1  A    between atoms: C_1  and  N_2
REMARK    2  A    between atoms: N_7  and  C_8
REMARK    3  A    between atoms: N_16  and  N_17
REMARK    4  A    between atoms: C_18  and  C_19
REMARK                            x       y       z     vdW  Elec       q    Type
REMARK                         _______ _______ _______ _____ _____    ______ ____
ROOT
ATOM      1  C   UNL     1       1.938   3.032  21.669  0.00  0.00    +0.000 C 
ATOM      2  N   UNL     1       2.776   3.738  20.712  0.00  0.00    +0.000 N 
ATOM      3  C   UNL     1       3.874   3.080  20.179  0.00  0.00    +0.000 A 
ATOM      4  O   UNL     1       4.183   1.931  20.478  0.00  0.00    +0.000 OA
ATOM      5  C   UNL     1       4.735   3.845  19.169  0.00  0.00    +0.000 A 
ATOM      6  O   UNL     1       5.690   3.243  18.681  0.00  0.00    +0.000 OA
ATOM      7  N   UNL     1       4.396   5.163  18.859  0.00  0.00    +0.000 N 
ATOM      8  C   UNL     1       3.252   5.790  19.441  0.00  0.00    +0.000 A 
ATOM      9  N   UNL     1       2.957   7.069  19.092  0.00  0.00    +0.000 NA
ATOM     10  C   UNL     1       1.885   7.657  19.656  0.00  0.00    +0.000 A 
ATOM     11  N   UNL     1       1.589   8.988  19.301  0.00  0.00    +0.000 N 
ATOM     12  N   UNL     1       1.091   7.027  20.534  0.00  0.00    +0.000 NA
ATOM     13  C   UNL     1       1.398   5.763  20.853  0.00  0.00    +0.000 A 
ATOM     14  C   UNL     1       2.477   5.073  20.344  0.00  0.00    +0.000 A 
ATOM     15  H   UNL     1       2.352   9.379  18.758  0.00  0.00    +0.000 HD
ENDROOT
BRANCH   7  16
ATOM     16  C   UNL     1       5.222   5.917  17.904  0.00  0.00    +0.000 C 
ATOM     17  C   UNL     1       6.688   6.077  18.325  0.00  0.00    +0.000 C 
ATOM     18  C   UNL     1       7.414   6.431  17.035  0.00  0.00    +0.000 C 
ATOM     19  C   UNL     1       6.608   5.802  15.900  0.00  0.00    +0.000 C 
ATOM     20  C   UNL     1       5.308   5.281  16.510  0.00  0.00    +0.000 C 
ENDBRANCH   7  16
BRANCH  11  21
ATOM     21  N   UNL     1       0.937   9.745  20.232  0.00  0.00    +0.000 NA
ATOM     22  C   UNL     1      -0.128  10.367  19.837  0.00  0.00    +0.000 C 
BRANCH  22  23
ATOM     23  C   UNL     1      -0.897  11.221  20.779  0.00  0.00    +0.000 A 
ATOM     24  C   UNL     1      -0.553  11.198  22.141  0.00  0.00    +0.000 A 
ATOM     25  C   UNL     1      -1.233  11.999  23.062  0.00  0.00    +0.000 A 
ATOM     26  C   UNL     1      -2.263  12.830  22.633  0.00  0.00    +0.000 A 
ATOM     27  C   UNL     1      -2.618  12.853  21.283  0.00  0.00    +0.000 A 
ATOM     28  C   UNL     1      -1.942  12.052  20.354  0.00  0.00    +0.000 A 
ATOM     29 CL   UNL     1      -2.461  12.140  18.709  0.00  0.00    +0.000 Cl
ENDBRANCH  22  23
ENDBRANCH  11  21
TORSDOF 3
ENDMDL
MODEL 6
REMARK VINA RESULT:      -7.9      1.971      4.124
REMARK  Name = 
REMARK  4 active torsions:
REMARK  status: ('A' for Active; 'I' for Inactive)
REMARK    1  A    between atoms: C_1  and  N_2
REMARK    2  A    between atoms: N_7  and  C_8
REMARK    3  A    between atoms: N_16  and  N_17
REMARK    4  A    between atoms: C_18  and  C_19
REMARK                            x       y       z     vdW  Elec       q    Type
REMARK                         _______ _______ _______ _____ _____    ______ ____
ROOT
ATOM      1  C   UNL     1       2.032   2.872  21.571  0.00  0.00    +0.000 C 
ATOM      2  N   UNL     1       2.857   3.641  20.652  0.00  0.00    +0.000 N 
ATOM      3  C   UNL     1       3.976   3.037  20.100  0.00  0.00    +0.000 A 
ATOM      4  O   UNL     1       4.315   1.885  20.351  0.00  0.00    +0.000 OA
ATOM      5  C   UNL     1       4.823   3.868  19.131  0.00  0.00    +0.000 A 
ATOM      6  O   UNL     1       5.797   3.314  18.624  0.00  0.00    +0.000 OA
ATOM      7  N   UNL     1       4.449   5.189  18.875  0.00  0.00    +0.000 N 
ATOM      8  C   UNL     1       3.284   5.759  19.475  0.00  0.00    +0.000 A 
ATOM      9  N   UNL     1       2.957   7.043  19.179  0.00  0.00    +0.000 NA
ATOM     10  C   UNL     1       1.866   7.577  19.761  0.00  0.00    +0.000 A 
ATOM     11  N   UNL     1       1.536   8.914  19.461  0.00  0.00    +0.000 N 
ATOM     12  N   UNL     1       1.084   6.888  20.604  0.00  0.00    +0.000 NA
ATOM     13  C   UNL     1       1.424   5.620  20.871  0.00  0.00    +0.000 A 
ATOM     14  C   UNL     1       2.524   4.982  20.340  0.00  0.00    +0.000 A 
ATOM     15  H   UNL     1       2.291   9.348  18.941  0.00  0.00    +0.000 HD
ENDROOT
BRANCH   7  16
ATOM     16  C   UNL     1       5.260   6.006  17.960  0.00  0.00    +0.000 C 
ATOM     17  C   UNL     1       6.716   6.194  18.403  0.00  0.00    +0.000 C 
ATOM     18  C   UNL     1       7.444   6.622  17.136  0.00  0.00    +0.000 C 
ATOM     19  C   UNL     1       6.669   6.014  15.968  0.00  0.00    +0.000 C 
ATOM     20  C   UNL     1       5.380   5.429  16.542  0.00  0.00    +0.000 C 
ENDBRANCH   7  16
BRANCH  11  21
ATOM     21  N   UNL     1       0.858   9.612  20.419  0.00  0.00    +0.000 NA
ATOM     22  C   UNL     1       0.792  10.896  20.268  0.00  0.00    +0.000 C 
BRANCH  22  23
ATOM     23  C   UNL     1       0.082  11.739  21.266  0.00  0.00    +0.000 A 
ATOM     24  C   UNL     1      -0.804  11.117  22.162  0.00  0.00    +0.000 A 
ATOM     25  C   UNL     1      -1.479  11.863  23.131  0.00  0.00    +0.000 A 
ATOM     26  C   UNL     1      -1.277  13.237  23.215  0.00  0.00    +0.000 A 
ATOM     27  C   UNL     1      -0.406  13.866  22.323  0.00  0.00    +0.000 A 
ATOM     28  C   UNL     1       0.273  13.124  21.347  0.00  0.00    +0.000 A 
ATOM     29 CL   UNL     1       1.320  13.992  20.283  0.00  0.00    +0.000 Cl
ENDBRANCH  22  23
ENDBRANCH  11  21
TORSDOF 3
ENDMDL
MODEL 7
REMARK VINA RESULT:      -7.8      4.868      9.276
REMARK  Name = 
REMARK  4 active torsions:
REMARK  status: ('A' for Active; 'I' for Inactive)
REMARK    1  A    between atoms: C_1  and  N_2
REMARK    2  A    between atoms: N_7  and  C_8
REMARK    3  A    between atoms: N_16  and  N_17
REMARK    4  A    between atoms: C_18  and  C_19
REMARK                            x       y       z     vdW  Elec       q    Type
REMARK                         _______ _______ _______ _____ _____    ______ ____
ROOT
ATOM      1  C   UNL     1      -0.938  12.587  22.710  0.00  0.00    +0.000 C 
ATOM      2  N   UNL     1      -1.538  12.256  21.426  0.00  0.00    +0.000 N 
ATOM      3  C   UNL     1      -2.849  12.640  21.188  0.00  0.00    +0.000 A 
ATOM      4  O   UNL     1      -3.536  13.242  22.008  0.00  0.00    +0.000 OA
ATOM      5  C   UNL     1      -3.453  12.285  19.826  0.00  0.00    +0.000 A 
ATOM      6  O   UNL     1      -4.607  12.656  19.613  0.00  0.00    +0.000 OA
ATOM      7  N   UNL     1      -2.676  11.572  18.911  0.00  0.00    +0.000 N 
ATOM      8  C   UNL     1      -1.330  11.202  19.214  0.00  0.00    +0.000 A 
ATOM      9  N   UNL     1      -0.612  10.523  18.281  0.00  0.00    +0.000 NA
ATOM     10  C   UNL     1       0.651  10.165  18.581  0.00  0.00    +0.000 A 
ATOM     11  N   UNL     1       1.389   9.451  17.615  0.00  0.00    +0.000 N 
ATOM     12  N   UNL     1       1.231  10.464  19.752  0.00  0.00    +0.000 NA
ATOM     13  C   UNL     1       0.505  11.143  20.649  0.00  0.00    +0.000 A 
ATOM     14  C   UNL     1      -0.797  11.547  20.449  0.00  0.00    +0.000 A 
ATOM     15  H   UNL     1       0.780   9.165  16.856  0.00  0.00    +0.000 HD
ENDROOT
BRANCH   7  16
ATOM     16  C   UNL     1      -3.247  11.208  17.606  0.00  0.00    +0.000 C 
ATOM     17  C   UNL     1      -2.413  11.661  16.402  0.00  0.00    +0.000 C 
ATOM     18  C   UNL     1      -2.908  10.796  15.252  0.00  0.00    +0.000 C 
ATOM     19  C   UNL     1      -3.408   9.494  15.877  0.00  0.00    +0.000 C 
ATOM     20  C   UNL     1      -3.410   9.696  17.391  0.00  0.00    +0.000 C 
ENDBRANCH   7  16
BRANCH  11  21
ATOM     21  N   UNL     1       2.364   8.613  18.079  0.00  0.00    +0.000 NA
ATOM     22  C   UNL     1       2.290   7.373  17.713  0.00  0.00    +0.000 C 
BRANCH  22  23
ATOM     23  C   UNL     1       3.302   6.388  18.175  0.00  0.00    +0.000 A 
ATOM     24  C   UNL     1       3.065   5.691  19.372  0.00  0.00    +0.000 A 
ATOM     25  C   UNL     1       3.976   4.741  19.837  0.00  0.00    +0.000 A 
ATOM     26  C   UNL     1       5.135   4.477  19.113  0.00  0.00    +0.000 A 
ATOM     27  C   UNL     1       5.385   5.171  17.928  0.00  0.00    +0.000 A 
ATOM     28  C   UNL     1       4.476   6.127  17.456  0.00  0.00    +0.000 A 
ATOM     29 CL   UNL     1       4.877   6.941  15.987  0.00  0.00    +0.000 Cl
ENDBRANCH  22  23
ENDBRANCH  11  21
TORSDOF 3
ENDMDL
MODEL 8
REMARK VINA RESULT:      -7.5      4.991      9.322
REMARK  Name = 
REMARK  4 active torsions:
REMARK  status: ('A' for Active; 'I' for Inactive)
REMARK    1  A    between atoms: C_1  and  N_2
REMARK    2  A    between atoms: N_7  and  C_8
REMARK    3  A    between atoms: N_16  and  N_17
REMARK    4  A    between atoms: C_18  and  C_19
REMARK                            x       y       z     vdW  Elec       q    Type
REMARK                         _______ _______ _______ _____ _____    ______ ____
ROOT
ATOM      1  C   UNL     1       3.176  15.398  18.796  0.00  0.00    +0.000 C 
ATOM      2  N   UNL     1       2.075  14.686  19.427  0.00  0.00    +0.000 N 
ATOM      3  C   UNL     1       1.283  15.365  20.340  0.00  0.00    +0.000 A 
ATOM      4  O   UNL     1       1.466  16.537  20.653  0.00  0.00    +0.000 OA
ATOM      5  C   UNL     1       0.127  14.593  20.984  0.00  0.00    +0.000 A 
ATOM      6  O   UNL     1      -0.588  15.212  21.771  0.00  0.00    +0.000 OA
ATOM      7  N   UNL     1      -0.054  13.250  20.647  0.00  0.00    +0.000 N 
ATOM      8  C   UNL     1       0.795  12.603  19.698  0.00  0.00    +0.000 A 
ATOM      9  N   UNL     1       0.565  11.300  19.395  0.00  0.00    +0.000 NA
ATOM     10  C   UNL     1       1.381  10.694  18.510  0.00  0.00    +0.000 A 
ATOM     11  N   UNL     1       1.146   9.338  18.206  0.00  0.00    +0.000 N 
ATOM     12  N   UNL     1       2.397  11.328  17.909  0.00  0.00    +0.000 NA
ATOM     13  C   UNL     1       2.596  12.616  18.218  0.00  0.00    +0.000 A 
ATOM     14  C   UNL     1       1.829  13.326  19.117  0.00  0.00    +0.000 A 
ATOM     15  H   UNL     1       0.455   8.955  18.843  0.00  0.00    +0.000 HD
ENDROOT
BRANCH   7  16
ATOM     16  C   UNL     1      -1.149  12.490  21.269  0.00  0.00    +0.000 C 
ATOM     17  C   UNL     1      -1.064  12.395  22.797  0.00  0.00    +0.000 C 
ATOM     18  C   UNL     1      -2.474  12.019  23.230  0.00  0.00    +0.000 C 
ATOM     19  C   UNL     1      -3.416  12.578  22.165  0.00  0.00    +0.000 C 
ATOM     20  C   UNL     1      -2.544  13.077  21.014  0.00  0.00    +0.000 C 
ENDBRANCH   7  16
BRANCH  11  21
ATOM     21  N   UNL     1       2.226   8.595  17.823  0.00  0.00    +0.000 NA
ATOM     22  C   UNL     1       2.194   7.331  18.104  0.00  0.00    +0.000 C 
BRANCH  22  23
ATOM     23  C   UNL     1       3.330   6.447  17.732  0.00  0.00    +0.000 A 
ATOM     24  C   UNL     1       4.572   7.034  17.437  0.00  0.00    +0.000 A 
ATOM     25  C   UNL     1       5.673   6.244  17.103  0.00  0.00    +0.000 A 
ATOM     26  C   UNL     1       5.547   4.859  17.059  0.00  0.00    +0.000 A 
ATOM     27  C   UNL     1       4.315   4.266  17.341  0.00  0.00    +0.000 A 
ATOM     28  C   UNL     1       3.205   5.053  17.675  0.00  0.00    +0.000 A 
ATOM     29 CL   UNL     1       1.721   4.229  17.996  0.00  0.00    +0.000 Cl
ENDBRANCH  22  23
ENDBRANCH  11  21
TORSDOF 3
ENDMDL
MODEL 9
REMARK VINA RESULT:      -7.4      1.578      3.844
REMARK  Name = 
REMARK  4 active torsions:
REMARK  status: ('A' for Active; 'I' for Inactive)
REMARK    1  A    between atoms: C_1  and  N_2
REMARK    2  A    between atoms: N_7  and  C_8
REMARK    3  A    between atoms: N_16  and  N_17
REMARK    4  A    between atoms: C_18  and  C_19
REMARK                            x       y       z     vdW  Elec       q    Type
REMARK                         _______ _______ _______ _____ _____    ______ ____
ROOT
ATOM      1  C   UNL     1       2.200   4.081  21.542  0.00  0.00    +0.000 C 
ATOM      2  N   UNL     1       2.910   4.393  20.311  0.00  0.00    +0.000 N 
ATOM      3  C   UNL     1       3.785   3.450  19.793  0.00  0.00    +0.000 A 
ATOM      4  O   UNL     1       4.000   2.365  20.322  0.00  0.00    +0.000 OA
ATOM      5  C   UNL     1       4.513   3.802  18.492  0.00  0.00    +0.000 A 
ATOM      6  O   UNL     1       5.265   2.948  18.024  0.00  0.00    +0.000 OA
ATOM      7  N   UNL     1       4.288   5.053  17.912  0.00  0.00    +0.000 N 
ATOM      8  C   UNL     1       3.374   5.984  18.493  0.00  0.00    +0.000 A 
ATOM      9  N   UNL     1       3.179   7.180  17.880  0.00  0.00    +0.000 NA
ATOM     10  C   UNL     1       2.327   8.059  18.443  0.00  0.00    +0.000 A 
ATOM     11  N   UNL     1       2.137   9.303  17.810  0.00  0.00    +0.000 N 
ATOM     12  N   UNL     1       1.655   7.793  19.572  0.00  0.00    +0.000 NA
ATOM     13  C   UNL     1       1.857   6.603  20.151  0.00  0.00    +0.000 A 
ATOM     14  C   UNL     1       2.714   5.639  19.666  0.00  0.00    +0.000 A 
ATOM     15  H   UNL     1       2.817   9.421  17.067  0.00  0.00    +0.000 HD
ENDROOT
BRANCH   7  16
ATOM     16  C   UNL     1       4.992   5.413  16.673  0.00  0.00    +0.000 C 
ATOM     17  C   UNL     1       6.517   5.502  16.814  0.00  0.00    +0.000 C 
ATOM     18  C   UNL     1       7.035   5.401  15.387  0.00  0.00    +0.000 C 
ATOM     19  C   UNL     1       5.999   4.591  14.609  0.00  0.00    +0.000 C 
ATOM     20  C   UNL     1       4.788   4.417  15.522  0.00  0.00    +0.000 C 
ENDBRANCH   7  16
BRANCH  11  21
ATOM     21  N   UNL     1       1.789  10.355  18.609  0.00  0.00    +0.000 NA
ATOM     22  C   UNL     1       0.588  10.821  18.470  0.00  0.00    +0.000 C 
BRANCH  22  23
ATOM     23  C   UNL     1       0.125  11.970  19.291  0.00  0.00    +0.000 A 
ATOM     24  C   UNL     1       0.053  13.239  18.692  0.00  0.00    +0.000 A 
ATOM     25  C   UNL     1      -0.396  14.345  19.417  0.00  0.00    +0.000 A 
ATOM     26  C   UNL     1      -0.777  14.197  20.747  0.00  0.00    +0.000 A 
ATOM     27  C   UNL     1      -0.699  12.942  21.354  0.00  0.00    +0.000 A 
ATOM     28  C   UNL     1      -0.248  11.828  20.634  0.00  0.00    +0.000 A 
ATOM     29 CL   UNL     1      -0.177  10.321  21.474  0.00  0.00    +0.000 Cl
ENDBRANCH  22  23
ENDBRANCH  11  21
TORSDOF 3
ENDMDL
