MODEL 1
REMARK VINA RESULT:      -7.8      0.000      0.000
REMARK  Name = 
REMARK  7 active torsions:
REMARK  status: ('A' for Active; 'I' for Inactive)
REMARK    1  A    between atoms: C_1  and  C_2
REMARK    2  A    between atoms: C_2  and  N_3
REMARK    3  A    between atoms: N_3  and  C_4
REMARK    4  A    between atoms: N_3  and  S_16
REMARK    5  A    between atoms: C_4  and  C_5
REMARK    6  A    between atoms: C_14  and  O_15
REMARK    7  A    between atoms: S_16  and  C_19
REMARK                            x       y       z     vdW  Elec       q    Type
REMARK                         _______ _______ _______ _____ _____    ______ ____
ROOT
ATOM      1  C   UNL     1       3.138   5.542  19.751  0.00  0.00    +0.000 C 
ENDROOT
BRANCH   1   2
ATOM      2  C   UNL     1       2.398   6.851  19.726  0.00  0.00    +0.000 A 
ATOM      3  C   UNL     1       1.651   7.306  20.815  0.00  0.00    +0.000 A 
ATOM      4  C   UNL     1       0.990   8.545  20.753  0.00  0.00    +0.000 A 
ATOM      5  C   UNL     1       0.223   9.037  21.824  0.00  0.00    +0.000 A 
ATOM      6  C   UNL     1      -0.422  10.270  21.725  0.00  0.00    +0.000 A 
ATOM      7  C   UNL     1      -0.307  11.015  20.556  0.00  0.00    +0.000 A 
ATOM      8  C   UNL     1       0.455  10.526  19.493  0.00  0.00    +0.000 A 
ATOM      9  C   UNL     1       1.113   9.302  19.568  0.00  0.00    +0.000 A 
ATOM     10  N   UNL     1       1.844   8.890  18.521  0.00  0.00    +0.000 NA
ATOM     11  C   UNL     1       2.451   7.697  18.634  0.00  0.00    +0.000 A 
BRANCH  11  12
ATOM     12  O   UNL     1       3.177   7.379  17.532  0.00  0.00    +0.000 OA
ATOM     13  H   UNL     1       2.905   8.110  16.946  0.00  0.00    +0.000 HD
ENDBRANCH  11  12
ENDBRANCH   1   2
BRANCH   1  14
ATOM     14  N   UNL     1       2.769   4.521  18.701  0.00  0.00    +0.000 NA
BRANCH  14  15
ATOM     15  S   UNL     1       4.028   3.329  18.519  0.00  0.00    +0.000 S 
ATOM     16  O   UNL     1       4.753   3.202  19.762  0.00  0.00    +0.000 OA
ATOM     17  O   UNL     1       3.424   2.181  17.871  0.00  0.00    +0.000 OA
BRANCH  15  18
ATOM     18  C   UNL     1       5.150   4.073  17.357  0.00  0.00    +0.000 A 
ATOM     19  C   UNL     1       4.786   4.156  16.011  0.00  0.00    +0.000 A 
ATOM     20  C   UNL     1       5.700   4.671  15.092  0.00  0.00    +0.000 A 
ATOM     21  C   UNL     1       6.955   5.108  15.522  0.00  0.00    +0.000 A 
ATOM     22  C   UNL     1       7.303   5.040  16.872  0.00  0.00    +0.000 A 
ATOM     23  C   UNL     1       6.399   4.523  17.798  0.00  0.00    +0.000 A 
ENDBRANCH  15  18
ENDBRANCH  14  15
BRANCH  14  25
ATOM     24  C   UNL     1       1.299   3.486  20.475  0.00  0.00    +0.000 C 
ATOM     25  C   UNL     1       1.435   3.892  19.016  0.00  0.00    +0.000 C 
ENDBRANCH  14  25
ENDBRANCH   1  14
TORSDOF 6
ENDMDL
MODEL 2
REMARK VINA RESULT:      -7.8      0.286      1.031
REMARK  Name = 
REMARK  7 active torsions:
REMARK  status: ('A' for Active; 'I' for Inactive)
REMARK    1  A    between atoms: C_1  and  C_2
REMARK    2  A    between atoms: C_2  and  N_3
REMARK    3  A    between atoms: N_3  and  C_4
REMARK    4  A    between atoms: N_3  and  S_16
REMARK    5  A    between atoms: C_4  and  C_5
REMARK    6  A    between atoms: C_14  and  O_15
REMARK    7  A    between atoms: S_16  and  C_19
REMARK                            x       y       z     vdW  Elec       q    Type
REMARK                         _______ _______ _______ _____ _____    ______ ____
ROOT
ATOM      1  C   UNL     1       3.045   5.319  19.880  0.00  0.00    +0.000 C 
ENDROOT
BRANCH   1   2
ATOM      2  C   UNL     1       2.394   6.668  19.749  0.00  0.00    +0.000 A 
ATOM      3  C   UNL     1       1.609   7.219  20.764  0.00  0.00    +0.000 A 
ATOM      4  C   UNL     1       1.034   8.492  20.604  0.00  0.00    +0.000 A 
ATOM      5  C   UNL     1       0.233   9.081  21.599  0.00  0.00    +0.000 A 
ATOM      6  C   UNL     1      -0.323  10.345  21.403  0.00  0.00    +0.000 A 
ATOM      7  C   UNL     1      -0.087  11.024  20.213  0.00  0.00    +0.000 A 
ATOM      8  C   UNL     1       0.709  10.440  19.226  0.00  0.00    +0.000 A 
ATOM      9  C   UNL     1       1.281   9.183  19.398  0.00  0.00    +0.000 A 
ATOM     10  N   UNL     1       2.050   8.677  18.421  0.00  0.00    +0.000 NA
ATOM     11  C   UNL     1       2.570   7.456  18.627  0.00  0.00    +0.000 A 
BRANCH  11  12
ATOM     12  O   UNL     1       3.344   7.042  17.591  0.00  0.00    +0.000 OA
ATOM     13  H   UNL     1       2.661   6.607  17.047  0.00  0.00    +0.000 HD
ENDBRANCH  11  12
ENDBRANCH   1   2
BRANCH   1  14
ATOM     14  N   UNL     1       2.710   4.286  18.829  0.00  0.00    +0.000 NA
BRANCH  14  15
ATOM     15  S   UNL     1       4.022   3.157  18.623  0.00  0.00    +0.000 S 
ATOM     16  O   UNL     1       4.732   3.011  19.873  0.00  0.00    +0.000 OA
ATOM     17  O   UNL     1       3.479   2.012  17.919  0.00  0.00    +0.000 OA
BRANCH  15  18
ATOM     18  C   UNL     1       5.130   3.995  17.512  0.00  0.00    +0.000 A 
ATOM     19  C   UNL     1       6.297   4.574  18.017  0.00  0.00    +0.000 A 
ATOM     20  C   UNL     1       7.124   5.295  17.156  0.00  0.00    +0.000 A 
ATOM     21  C   UNL     1       6.789   5.421  15.805  0.00  0.00    +0.000 A 
ATOM     22  C   UNL     1       5.630   4.823  15.306  0.00  0.00    +0.000 A 
ATOM     23  C   UNL     1       4.795   4.105  16.158  0.00  0.00    +0.000 A 
ENDBRANCH  15  18
ENDBRANCH  14  15
BRANCH  14  25
ATOM     24  C   UNL     1       1.249   3.315  20.647  0.00  0.00    +0.000 C 
ATOM     25  C   UNL     1       1.413   3.592  19.161  0.00  0.00    +0.000 C 
ENDBRANCH  14  25
ENDBRANCH   1  14
TORSDOF 6
ENDMDL
MODEL 3
REMARK VINA RESULT:      -7.7      2.775      7.387
REMARK  Name = 
REMARK  7 active torsions:
REMARK  status: ('A' for Active; 'I' for Inactive)
REMARK    1  A    between atoms: C_1  and  C_2
REMARK    2  A    between atoms: C_2  and  N_3
REMARK    3  A    between atoms: N_3  and  C_4
REMARK    4  A    between atoms: N_3  and  S_16
REMARK    5  A    between atoms: C_4  and  C_5
REMARK    6  A    between atoms: C_14  and  O_15
REMARK    7  A    between atoms: S_16  and  C_19
REMARK                            x       y       z     vdW  Elec       q    Type
REMARK                         _______ _______ _______ _____ _____    ______ ____
ROOT
ATOM      1  C   UNL     1       4.755   4.540  17.591  0.00  0.00    +0.000 C 
ENDROOT
BRANCH   1   2
ATOM      2  C   UNL     1       5.581   4.663  16.340  0.00  0.00    +0.000 A 
ATOM      3  C   UNL     1       5.267   3.971  15.168  0.00  0.00    +0.000 A 
ATOM      4  C   UNL     1       6.058   4.130  14.017  0.00  0.00    +0.000 A 
ATOM      5  C   UNL     1       5.780   3.449  12.819  0.00  0.00    +0.000 A 
ATOM      6  C   UNL     1       6.590   3.630  11.697  0.00  0.00    +0.000 A 
ATOM      7  C   UNL     1       7.683   4.487  11.769  0.00  0.00    +0.000 A 
ATOM      8  C   UNL     1       7.958   5.164  12.958  0.00  0.00    +0.000 A 
ATOM      9  C   UNL     1       7.163   5.006  14.089  0.00  0.00    +0.000 A 
ATOM     10  N   UNL     1       7.466   5.695  15.201  0.00  0.00    +0.000 NA
ATOM     11  C   UNL     1       6.678   5.501  16.271  0.00  0.00    +0.000 A 
BRANCH  11  12
ATOM     12  O   UNL     1       7.057   6.252  17.336  0.00  0.00    +0.000 OA
ATOM     13  H   UNL     1       6.955   7.142  16.948  0.00  0.00    +0.000 HD
ENDBRANCH  11  12
ENDBRANCH   1   2
BRANCH   1  14
ATOM     14  N   UNL     1       3.361   5.119  17.555  0.00  0.00    +0.000 NA
BRANCH  14  15
ATOM     15  S   UNL     1       2.159   3.855  17.575  0.00  0.00    +0.000 S 
ATOM     16  O   UNL     1       0.854   4.429  17.344  0.00  0.00    +0.000 OA
ATOM     17  O   UNL     1       2.673   2.780  16.749  0.00  0.00    +0.000 OA
BRANCH  15  18
ATOM     18  C   UNL     1       2.168   3.289  19.261  0.00  0.00    +0.000 A 
ATOM     19  C   UNL     1       1.052   3.523  20.067  0.00  0.00    +0.000 A 
ATOM     20  C   UNL     1       1.093   3.145  21.409  0.00  0.00    +0.000 A 
ATOM     21  C   UNL     1       2.234   2.530  21.929  0.00  0.00    +0.000 A 
ATOM     22  C   UNL     1       3.338   2.283  21.111  0.00  0.00    +0.000 A 
ATOM     23  C   UNL     1       3.310   2.660  19.770  0.00  0.00    +0.000 A 
ENDBRANCH  15  18
ENDBRANCH  14  15
BRANCH  14  25
ATOM     24  C   UNL     1       2.609   7.439  18.213  0.00  0.00    +0.000 C 
ATOM     25  C   UNL     1       3.163   6.103  18.681  0.00  0.00    +0.000 C 
ENDBRANCH  14  25
ENDBRANCH   1  14
TORSDOF 6
ENDMDL
MODEL 4
REMARK VINA RESULT:      -7.7      1.290      1.527
REMARK  Name = 
REMARK  7 active torsions:
REMARK  status: ('A' for Active; 'I' for Inactive)
REMARK    1  A    between atoms: C_1  and  C_2
REMARK    2  A    between atoms: C_2  and  N_3
REMARK    3  A    between atoms: N_3  and  C_4
REMARK    4  A    between atoms: N_3  and  S_16
REMARK    5  A    between atoms: C_4  and  C_5
REMARK    6  A    between atoms: C_14  and  O_15
REMARK    7  A    between atoms: S_16  and  C_19
REMARK                            x       y       z     vdW  Elec       q    Type
REMARK                         _______ _______ _______ _____ _____    ______ ____
ROOT
ATOM      1  C   UNL     1       3.096   6.031  19.582  0.00  0.00    +0.000 C 
ENDROOT
BRANCH   1   2
ATOM      2  C   UNL     1       2.258   7.271  19.728  0.00  0.00    +0.000 A 
ATOM      3  C   UNL     1       1.584   7.581  20.911  0.00  0.00    +0.000 A 
ATOM      4  C   UNL     1       0.826   8.761  21.007  0.00  0.00    +0.000 A 
ATOM      5  C   UNL     1       0.128   9.108  22.178  0.00  0.00    +0.000 A 
ATOM      6  C   UNL     1      -0.616  10.286  22.234  0.00  0.00    +0.000 A 
ATOM      7  C   UNL     1      -0.671  11.121  21.123  0.00  0.00    +0.000 A 
ATOM      8  C   UNL     1       0.023  10.776  19.962  0.00  0.00    +0.000 A 
ATOM      9  C   UNL     1       0.777   9.610  19.880  0.00  0.00    +0.000 A 
ATOM     10  N   UNL     1       1.437   9.337  18.743  0.00  0.00    +0.000 NA
ATOM     11  C   UNL     1       2.142   8.195  18.706  0.00  0.00    +0.000 A 
BRANCH  11  12
ATOM     12  O   UNL     1       2.782   8.020  17.523  0.00  0.00    +0.000 OA
ATOM     13  H   UNL     1       3.470   7.388  17.806  0.00  0.00    +0.000 HD
ENDBRANCH  11  12
ENDBRANCH   1   2
BRANCH   1  14
ATOM     14  N   UNL     1       2.944   5.241  18.303  0.00  0.00    +0.000 NA
BRANCH  14  15
ATOM     15  S   UNL     1       4.348   4.251  18.010  0.00  0.00    +0.000 S 
ATOM     16  O   UNL     1       4.521   3.325  19.106  0.00  0.00    +0.000 OA
ATOM     17  O   UNL     1       4.256   3.795  16.637  0.00  0.00    +0.000 OA
BRANCH  15  18
ATOM     18  C   UNL     1       5.703   5.400  18.105  0.00  0.00    +0.000 A 
ATOM     19  C   UNL     1       5.782   6.442  17.178  0.00  0.00    +0.000 A 
ATOM     20  C   UNL     1       6.885   7.295  17.209  0.00  0.00    +0.000 A 
ATOM     21  C   UNL     1       7.887   7.110  18.165  0.00  0.00    +0.000 A 
ATOM     22  C   UNL     1       7.789   6.078  19.100  0.00  0.00    +0.000 A 
ATOM     23  C   UNL     1       6.694   5.217  19.075  0.00  0.00    +0.000 A 
ENDBRANCH  15  18
ENDBRANCH  14  15
BRANCH  14  25
ATOM     24  C   UNL     1       1.243   4.040  19.733  0.00  0.00    +0.000 C 
ATOM     25  C   UNL     1       1.674   4.429  18.327  0.00  0.00    +0.000 C 
ENDBRANCH  14  25
ENDBRANCH   1  14
TORSDOF 6
ENDMDL
MODEL 5
REMARK VINA RESULT:      -7.5      0.972      1.543
REMARK  Name = 
REMARK  7 active torsions:
REMARK  status: ('A' for Active; 'I' for Inactive)
REMARK    1  A    between atoms: C_1  and  C_2
REMARK    2  A    between atoms: C_2  and  N_3
REMARK    3  A    between atoms: N_3  and  C_4
REMARK    4  A    between atoms: N_3  and  S_16
REMARK    5  A    between atoms: C_4  and  C_5
REMARK    6  A    between atoms: C_14  and  O_15
REMARK    7  A    between atoms: S_16  and  C_19
REMARK                            x       y       z     vdW  Elec       q    Type
REMARK                         _______ _______ _______ _____ _____    ______ ____
ROOT
ATOM      1  C   UNL     1       3.186   5.943  19.968  0.00  0.00    +0.000 C 
ENDROOT
BRANCH   1   2
ATOM      2  C   UNL     1       2.439   7.198  19.613  0.00  0.00    +0.000 A 
ATOM      3  C   UNL     1       1.564   7.823  20.505  0.00  0.00    +0.000 A 
ATOM      4  C   UNL     1       0.901   9.006  20.135  0.00  0.00    +0.000 A 
ATOM      5  C   UNL     1       0.008   9.664  20.999  0.00  0.00    +0.000 A 
ATOM      6  C   UNL     1      -0.635  10.835  20.596  0.00  0.00    +0.000 A 
ATOM      7  C   UNL     1      -0.392  11.351  19.328  0.00  0.00    +0.000 A 
ATOM      8  C   UNL     1       0.494  10.698  18.470  0.00  0.00    +0.000 A 
ATOM      9  C   UNL     1       1.153   9.533  18.849  0.00  0.00    +0.000 A 
ATOM     10  N   UNL     1       2.007   8.956  17.989  0.00  0.00    +0.000 NA
ATOM     11  C   UNL     1       2.610   7.827  18.393  0.00  0.00    +0.000 A 
BRANCH  11  12
ATOM     12  O   UNL     1       3.464   7.333  17.461  0.00  0.00    +0.000 OA
ATOM     13  H   UNL     1       4.242   7.171  18.027  0.00  0.00    +0.000 HD
ENDBRANCH  11  12
ENDBRANCH   1   2
BRANCH   1  14
ATOM     14  N   UNL     1       3.502   4.986  18.843  0.00  0.00    +0.000 NA
BRANCH  14  15
ATOM     15  S   UNL     1       5.141   4.404  18.959  0.00  0.00    +0.000 S 
ATOM     16  O   UNL     1       5.940   5.361  19.691  0.00  0.00    +0.000 OA
ATOM     17  O   UNL     1       5.062   3.014  19.362  0.00  0.00    +0.000 OA
BRANCH  15  18
ATOM     18  C   UNL     1       5.724   4.445  17.279  0.00  0.00    +0.000 A 
ATOM     19  C   UNL     1       7.062   4.754  17.026  0.00  0.00    +0.000 A 
ATOM     20  C   UNL     1       7.497   4.859  15.705  0.00  0.00    +0.000 A 
ATOM     21  C   UNL     1       6.601   4.645  14.654  0.00  0.00    +0.000 A 
ATOM     22  C   UNL     1       5.270   4.317  14.916  0.00  0.00    +0.000 A 
ATOM     23  C   UNL     1       4.824   4.214  16.233  0.00  0.00    +0.000 A 
ENDBRANCH  15  18
ENDBRANCH  14  15
BRANCH  14  25
ATOM     24  C   UNL     1       1.427   4.046  17.750  0.00  0.00    +0.000 C 
ATOM     25  C   UNL     1       2.503   3.857  18.808  0.00  0.00    +0.000 C 
ENDBRANCH  14  25
ENDBRANCH   1  14
TORSDOF 6
ENDMDL
MODEL 6
REMARK VINA RESULT:      -7.4      2.659      7.325
REMARK  Name = 
REMARK  7 active torsions:
REMARK  status: ('A' for Active; 'I' for Inactive)
REMARK    1  A    between atoms: C_1  and  C_2
REMARK    2  A    between atoms: C_2  and  N_3
REMARK    3  A    between atoms: N_3  and  C_4
REMARK    4  A    between atoms: N_3  and  S_16
REMARK    5  A    between atoms: C_4  and  C_5
REMARK    6  A    between atoms: C_14  and  O_15
REMARK    7  A    between atoms: S_16  and  C_19
REMARK                            x       y       z     vdW  Elec       q    Type
REMARK                         _______ _______ _______ _____ _____    ______ ____
ROOT
ATOM      1  C   UNL     1       5.097   6.053  17.433  0.00  0.00    +0.000 C 
ENDROOT
BRANCH   1   2
ATOM      2  C   UNL     1       5.725   5.570  16.155  0.00  0.00    +0.000 A 
ATOM      3  C   UNL     1       5.027   4.790  15.230  0.00  0.00    +0.000 A 
ATOM      4  C   UNL     1       5.650   4.376  14.039  0.00  0.00    +0.000 A 
ATOM      5  C   UNL     1       4.986   3.586  13.084  0.00  0.00    +0.000 A 
ATOM      6  C   UNL     1       5.638   3.191  11.916  0.00  0.00    +0.000 A 
ATOM      7  C   UNL     1       6.955   3.579  11.698  0.00  0.00    +0.000 A 
ATOM      8  C   UNL     1       7.614   4.363  12.646  0.00  0.00    +0.000 A 
ATOM      9  C   UNL     1       6.986   4.776  13.817  0.00  0.00    +0.000 A 
ATOM     10  N   UNL     1       7.663   5.542  14.686  0.00  0.00    +0.000 NA
ATOM     11  C   UNL     1       7.020   5.906  15.808  0.00  0.00    +0.000 A 
BRANCH  11  12
ATOM     12  O   UNL     1       7.783   6.691  16.610  0.00  0.00    +0.000 OA
ATOM     13  H   UNL     1       8.424   7.017  15.951  0.00  0.00    +0.000 HD
ENDBRANCH  11  12
ENDBRANCH   1   2
BRANCH   1  14
ATOM     14  N   UNL     1       3.881   5.306  17.930  0.00  0.00    +0.000 NA
BRANCH  14  15
ATOM     15  S   UNL     1       4.312   3.709  18.481  0.00  0.00    +0.000 S 
ATOM     16  O   UNL     1       4.191   2.774  17.385  0.00  0.00    +0.000 OA
ATOM     17  O   UNL     1       5.544   3.845  19.231  0.00  0.00    +0.000 OA
BRANCH  15  18
ATOM     18  C   UNL     1       3.022   3.298  19.635  0.00  0.00    +0.000 A 
ATOM     19  C   UNL     1       1.688   3.389  19.231  0.00  0.00    +0.000 A 
ATOM     20  C   UNL     1       0.679   3.140  20.161  0.00  0.00    +0.000 A 
ATOM     21  C   UNL     1       1.007   2.792  21.474  0.00  0.00    +0.000 A 
ATOM     22  C   UNL     1       2.343   2.684  21.863  0.00  0.00    +0.000 A 
ATOM     23  C   UNL     1       3.359   2.936  20.943  0.00  0.00    +0.000 A 
ENDBRANCH  15  18
ENDBRANCH  14  15
BRANCH  14  25
ATOM     24  C   UNL     1       2.430   7.309  18.445  0.00  0.00    +0.000 C 
ATOM     25  C   UNL     1       3.169   6.099  18.996  0.00  0.00    +0.000 C 
ENDBRANCH  14  25
ENDBRANCH   1  14
TORSDOF 6
ENDMDL
MODEL 7
REMARK VINA RESULT:      -7.4      2.080      3.693
REMARK  Name = 
REMARK  7 active torsions:
REMARK  status: ('A' for Active; 'I' for Inactive)
REMARK    1  A    between atoms: C_1  and  C_2
REMARK    2  A    between atoms: C_2  and  N_3
REMARK    3  A    between atoms: N_3  and  C_4
REMARK    4  A    between atoms: N_3  and  S_16
REMARK    5  A    between atoms: C_4  and  C_5
REMARK    6  A    between atoms: C_14  and  O_15
REMARK    7  A    between atoms: S_16  and  C_19
REMARK                            x       y       z     vdW  Elec       q    Type
REMARK                         _______ _______ _______ _____ _____    ______ ____
ROOT
ATOM      1  C   UNL     1       3.672   6.146  17.624  0.00  0.00    +0.000 C 
ENDROOT
BRANCH   1   2
ATOM      2  C   UNL     1       2.836   7.123  18.402  0.00  0.00    +0.000 A 
ATOM      3  C   UNL     1       2.304   8.277  17.822  0.00  0.00    +0.000 A 
ATOM      4  C   UNL     1       1.512   9.154  18.585  0.00  0.00    +0.000 A 
ATOM      5  C   UNL     1       0.962  10.328  18.042  0.00  0.00    +0.000 A 
ATOM      6  C   UNL     1       0.184  11.176  18.831  0.00  0.00    +0.000 A 
ATOM      7  C   UNL     1      -0.044  10.857  20.165  0.00  0.00    +0.000 A 
ATOM      8  C   UNL     1       0.502   9.691  20.703  0.00  0.00    +0.000 A 
ATOM      9  C   UNL     1       1.276   8.825  19.938  0.00  0.00    +0.000 A 
ATOM     10  N   UNL     1       1.762   7.709  20.504  0.00  0.00    +0.000 NA
ATOM     11  C   UNL     1       2.514   6.911  19.730  0.00  0.00    +0.000 A 
BRANCH  11  12
ATOM     12  O   UNL     1       2.943   5.805  20.389  0.00  0.00    +0.000 OA
ATOM     13  H   UNL     1       2.407   5.886  21.201  0.00  0.00    +0.000 HD
ENDBRANCH  11  12
ENDBRANCH   1   2
BRANCH   1  14
ATOM     14  N   UNL     1       5.150   6.103  17.933  0.00  0.00    +0.000 NA
BRANCH  14  15
ATOM     15  S   UNL     1       5.769   4.478  17.803  0.00  0.00    +0.000 S 
ATOM     16  O   UNL     1       6.033   4.175  16.414  0.00  0.00    +0.000 OA
ATOM     17  O   UNL     1       6.793   4.339  18.819  0.00  0.00    +0.000 OA
BRANCH  15  18
ATOM     18  C   UNL     1       4.391   3.461  18.285  0.00  0.00    +0.000 A 
ATOM     19  C   UNL     1       3.430   3.116  17.332  0.00  0.00    +0.000 A 
ATOM     20  C   UNL     1       2.312   2.382  17.731  0.00  0.00    +0.000 A 
ATOM     21  C   UNL     1       2.171   1.992  19.065  0.00  0.00    +0.000 A 
ATOM     22  C   UNL     1       3.146   2.325  20.006  0.00  0.00    +0.000 A 
ATOM     23  C   UNL     1       4.264   3.062  19.619  0.00  0.00    +0.000 A 
ENDBRANCH  15  18
ENDBRANCH  14  15
BRANCH  14  25
ATOM     24  C   UNL     1       7.309   7.362  17.565  0.00  0.00    +0.000 C 
ATOM     25  C   UNL     1       5.906   7.067  17.056  0.00  0.00    +0.000 C 
ENDBRANCH  14  25
ENDBRANCH   1  14
TORSDOF 6
ENDMDL
MODEL 8
REMARK VINA RESULT:      -7.4      1.632      3.657
REMARK  Name = 
REMARK  7 active torsions:
REMARK  status: ('A' for Active; 'I' for Inactive)
REMARK    1  A    between atoms: C_1  and  C_2
REMARK    2  A    between atoms: C_2  and  N_3
REMARK    3  A    between atoms: N_3  and  C_4
REMARK    4  A    between atoms: N_3  and  S_16
REMARK    5  A    between atoms: C_4  and  C_5
REMARK    6  A    between atoms: C_14  and  O_15
REMARK    7  A    between atoms: S_16  and  C_19
REMARK                            x       y       z     vdW  Elec       q    Type
REMARK                         _______ _______ _______ _____ _____    ______ ____
ROOT
ATOM      1  C   UNL     1       3.005   6.342  18.016  0.00  0.00    +0.000 C 
ENDROOT
BRANCH   1   2
ATOM      2  C   UNL     1       2.309   7.443  18.767  0.00  0.00    +0.000 A 
ATOM      3  C   UNL     1       1.887   7.292  20.090  0.00  0.00    +0.000 A 
ATOM      4  C   UNL     1       1.255   8.356  20.759  0.00  0.00    +0.000 A 
ATOM      5  C   UNL     1       0.810   8.244  22.088  0.00  0.00    +0.000 A 
ATOM      6  C   UNL     1       0.184   9.320  22.717  0.00  0.00    +0.000 A 
ATOM      7  C   UNL     1      -0.004  10.510  22.022  0.00  0.00    +0.000 A 
ATOM      8  C   UNL     1       0.439  10.620  20.703  0.00  0.00    +0.000 A 
ATOM      9  C   UNL     1       1.071   9.565  20.053  0.00  0.00    +0.000 A 
ATOM     10  N   UNL     1       1.490   9.733  18.789  0.00  0.00    +0.000 NA
ATOM     11  C   UNL     1       2.084   8.683  18.199  0.00  0.00    +0.000 A 
BRANCH  11  12
ATOM     12  O   UNL     1       2.484   8.960  16.932  0.00  0.00    +0.000 OA
ATOM     13  H   UNL     1       3.044   8.177  16.768  0.00  0.00    +0.000 HD
ENDBRANCH  11  12
ENDBRANCH   1   2
BRANCH   1  14
ATOM     14  N   UNL     1       4.401   5.978  18.463  0.00  0.00    +0.000 NA
BRANCH  14  15
ATOM     15  S   UNL     1       4.601   4.247  18.540  0.00  0.00    +0.000 S 
ATOM     16  O   UNL     1       4.552   3.699  17.204  0.00  0.00    +0.000 OA
ATOM     17  O   UNL     1       5.722   3.996  19.424  0.00  0.00    +0.000 OA
BRANCH  15  18
ATOM     18  C   UNL     1       3.128   3.688  19.366  0.00  0.00    +0.000 A 
ATOM     19  C   UNL     1       2.112   3.087  18.620  0.00  0.00    +0.000 A 
ATOM     20  C   UNL     1       0.928   2.719  19.259  0.00  0.00    +0.000 A 
ATOM     21  C   UNL     1       0.774   2.941  20.630  0.00  0.00    +0.000 A 
ATOM     22  C   UNL     1       1.803   3.524  21.371  0.00  0.00    +0.000 A 
ATOM     23  C   UNL     1       2.988   3.900  20.741  0.00  0.00    +0.000 A 
ENDBRANCH  15  18
ENDBRANCH  14  15
BRANCH  14  25
ATOM     24  C   UNL     1       5.001   6.698  16.118  0.00  0.00    +0.000 C 
ATOM     25  C   UNL     1       5.431   6.627  17.574  0.00  0.00    +0.000 C 
ENDBRANCH  14  25
ENDBRANCH   1  14
TORSDOF 6
ENDMDL
MODEL 9
REMARK VINA RESULT:      -7.3      2.048      3.815
REMARK  Name = 
REMARK  7 active torsions:
REMARK  status: ('A' for Active; 'I' for Inactive)
REMARK    1  A    between atoms: C_1  and  C_2
REMARK    2  A    between atoms: C_2  and  N_3
REMARK    3  A    between atoms: N_3  and  C_4
REMARK    4  A    between atoms: N_3  and  S_16
REMARK    5  A    between atoms: C_4  and  C_5
REMARK    6  A    between atoms: C_14  and  O_15
REMARK    7  A    between atoms: S_16  and  C_19
REMARK                            x       y       z     vdW  Elec       q    Type
REMARK                         _______ _______ _______ _____ _____    ______ ____
ROOT
ATOM      1  C   UNL     1       3.532   6.239  17.649  0.00  0.00    +0.000 C 
ENDROOT
BRANCH   1   2
ATOM      2  C   UNL     1       2.710   7.227  18.430  0.00  0.00    +0.000 A 
ATOM      3  C   UNL     1       2.141   8.357  17.838  0.00  0.00    +0.000 A 
ATOM      4  C   UNL     1       1.364   9.244  18.605  0.00  0.00    +0.000 A 
ATOM      5  C   UNL     1       0.778  10.395  18.050  0.00  0.00    +0.000 A 
ATOM      6  C   UNL     1       0.017  11.254  18.843  0.00  0.00    +0.000 A 
ATOM      7  C   UNL     1      -0.159  10.970  20.193  0.00  0.00    +0.000 A 
ATOM      8  C   UNL     1       0.423   9.827  20.743  0.00  0.00    +0.000 A 
ATOM      9  C   UNL     1       1.182   8.950  19.974  0.00  0.00    +0.000 A 
ATOM     10  N   UNL     1       1.704   7.858  20.553  0.00  0.00    +0.000 NA
ATOM     11  C   UNL     1       2.439   7.048  19.774  0.00  0.00    +0.000 A 
BRANCH  11  12
ATOM     12  O   UNL     1       2.907   5.966  20.448  0.00  0.00    +0.000 OA
ATOM     13  H   UNL     1       3.307   6.418  21.215  0.00  0.00    +0.000 HD
ENDBRANCH  11  12
ENDBRANCH   1   2
BRANCH   1  14
ATOM     14  N   UNL     1       5.008   6.171  17.961  0.00  0.00    +0.000 NA
BRANCH  14  15
ATOM     15  S   UNL     1       5.582   4.525  17.912  0.00  0.00    +0.000 S 
ATOM     16  O   UNL     1       5.889   4.165  16.546  0.00  0.00    +0.000 OA
ATOM     17  O   UNL     1       6.562   4.394  18.971  0.00  0.00    +0.000 OA
BRANCH  15  18
ATOM     18  C   UNL     1       4.157   3.567  18.375  0.00  0.00    +0.000 A 
ATOM     19  C   UNL     1       3.966   3.231  19.717  0.00  0.00    +0.000 A 
ATOM     20  C   UNL     1       2.889   2.416  20.066  0.00  0.00    +0.000 A 
ATOM     21  C   UNL     1       2.010   1.957  19.081  0.00  0.00    +0.000 A 
ATOM     22  C   UNL     1       2.198   2.315  17.745  0.00  0.00    +0.000 A 
ATOM     23  C   UNL     1       3.273   3.124  17.385  0.00  0.00    +0.000 A 
ENDBRANCH  15  18
ENDBRANCH  14  15
BRANCH  14  25
ATOM     24  C   UNL     1       7.217   7.309  17.505  0.00  0.00    +0.000 C 
ATOM     25  C   UNL     1       5.790   7.070  17.037  0.00  0.00    +0.000 C 
ENDBRANCH  14  25
ENDBRANCH   1  14
TORSDOF 6
ENDMDL
