MODEL 1
REMARK VINA RESULT:      -6.0      0.000      0.000
REMARK  Name = 
REMARK  6 active torsions:
REMARK  status: ('A' for Active; 'I' for Inactive)
REMARK    1  A    between atoms: C_1  and  S_2
REMARK    2  A    between atoms: S_2  and  N_5
REMARK    3  A    between atoms: C_6  and  C_7
REMARK    4  A    between atoms: C_15  and  C_16
REMARK    5  A    between atoms: C_16  and  O_18
REMARK    6  A    between atoms: C_19  and  C_20
REMARK                            x       y       z     vdW  Elec       q    Type
REMARK                         _______ _______ _______ _____ _____    ______ ____
ROOT
ATOM      1  N   UNL     1       0.834  11.721  19.873  0.00  0.00    +0.000 NA
ATOM      2  C   UNL     1       0.555  10.779  18.752  0.00  0.00    +0.000 C 
ATOM      3  C   UNL     1       1.066   9.371  19.135  0.00  0.00    +0.000 C 
ATOM      4  C   UNL     1       0.755   8.954  20.541  0.00  0.00    +0.000 C 
ATOM      5  C   UNL     1       0.391   9.847  21.483  0.00  0.00    +0.000 C 
ATOM      6  C   UNL     1       0.321  11.365  21.253  0.00  0.00    +0.000 C 
ENDROOT
BRANCH   6   7
ATOM      7  C   UNL     1      -1.013  12.005  21.678  0.00  0.00    +0.000 A 
ATOM      8  C   UNL     1      -1.181  12.711  22.880  0.00  0.00    +0.000 A 
ATOM      9  C   UNL     1      -2.387  13.345  23.199  0.00  0.00    +0.000 A 
ATOM     10  C   UNL     1      -3.459  13.294  22.316  0.00  0.00    +0.000 A 
ATOM     11  C   UNL     1      -3.317  12.606  21.117  0.00  0.00    +0.000 A 
ATOM     12 BR   UNL     1      -4.765  12.540  19.900  0.00  0.00    +0.000 Br
ATOM     13  C   UNL     1      -2.111  11.979  20.795  0.00  0.00    +0.000 A 
ENDBRANCH   6   7
BRANCH   2  14
ATOM     14  C   UNL     1      -0.856  10.832  18.189  0.00  0.00    +0.000 A 
ATOM     15  C   UNL     1      -1.735   9.769  18.457  0.00  0.00    +0.000 A 
ATOM     16  C   UNL     1      -2.969   9.672  17.813  0.00  0.00    +0.000 A 
ATOM     17  C   UNL     1      -3.355  10.647  16.903  0.00  0.00    +0.000 A 
ATOM     18  C   UNL     1      -2.541  11.754  16.694  0.00  0.00    +0.000 A 
ATOM     19  C   UNL     1      -1.316  11.860  17.358  0.00  0.00    +0.000 A 
ENDBRANCH   2  14
BRANCH   1  21
ATOM     20  C   UNL     1       2.173  13.365  18.141  0.00  0.00    +0.000 C 
ATOM     21  S   UNL     1       1.105  13.355  19.565  0.00  0.00    +0.000 S 
ATOM     22  O   UNL     1       1.913  13.881  20.648  0.00  0.00    +0.000 OA
ATOM     23  O   UNL     1      -0.132  13.996  19.191  0.00  0.00    +0.000 OA
ENDBRANCH   1  21
BRANCH   5  24
ATOM     24  C   UNL     1       0.152   9.425  22.890  0.00  0.00    +0.000 C 
ATOM     25  O   UNL     1       0.910   9.705  23.806  0.00  0.00    +0.000 OA
BRANCH  24  26
ATOM     26  O   UNL     1      -0.986   8.730  23.097  0.00  0.00    +0.000 OA
ATOM     27  H   UNL     1      -1.651   8.777  22.385  0.00  0.00    +0.000 HD
ENDBRANCH  24  26
ENDBRANCH   5  24
TORSDOF 5
ENDMDL
MODEL 2
REMARK VINA RESULT:      -6.0      1.217      1.525
REMARK  Name = 
REMARK  6 active torsions:
REMARK  status: ('A' for Active; 'I' for Inactive)
REMARK    1  A    between atoms: C_1  and  S_2
REMARK    2  A    between atoms: S_2  and  N_5
REMARK    3  A    between atoms: C_6  and  C_7
REMARK    4  A    between atoms: C_15  and  C_16
REMARK    5  A    between atoms: C_16  and  O_18
REMARK    6  A    between atoms: C_19  and  C_20
REMARK                            x       y       z     vdW  Elec       q    Type
REMARK                         _______ _______ _______ _____ _____    ______ ____
ROOT
ATOM      1  N   UNL     1       0.963  11.687  19.921  0.00  0.00    +0.000 NA
ATOM      2  C   UNL     1       0.626  10.702  18.853  0.00  0.00    +0.000 C 
ATOM      3  C   UNL     1       1.060   9.291  19.312  0.00  0.00    +0.000 C 
ATOM      4  C   UNL     1       0.732   8.969  20.739  0.00  0.00    +0.000 C 
ATOM      5  C   UNL     1       0.424   9.931  21.632  0.00  0.00    +0.000 C 
ATOM      6  C   UNL     1       0.438  11.436  21.319  0.00  0.00    +0.000 C 
ENDROOT
BRANCH   6   7
ATOM      7  C   UNL     1      -0.857  12.171  21.711  0.00  0.00    +0.000 A 
ATOM      8  C   UNL     1      -2.104  11.901  21.125  0.00  0.00    +0.000 A 
ATOM      9  C   UNL     1      -3.274  12.534  21.558  0.00  0.00    +0.000 A 
ATOM     10  C   UNL     1      -3.227  13.455  22.599  0.00  0.00    +0.000 A 
ATOM     11  C   UNL     1      -2.006  13.736  23.199  0.00  0.00    +0.000 A 
ATOM     12 BR   UNL     1      -1.930  14.978  24.626  0.00  0.00    +0.000 Br
ATOM     13  C   UNL     1      -0.839  13.098  22.771  0.00  0.00    +0.000 A 
ENDBRANCH   6   7
BRANCH   2  14
ATOM     14  C   UNL     1      -0.783  10.803  18.291  0.00  0.00    +0.000 A 
ATOM     15  C   UNL     1      -1.681   9.745  18.512  0.00  0.00    +0.000 A 
ATOM     16  C   UNL     1      -2.915   9.696  17.862  0.00  0.00    +0.000 A 
ATOM     17  C   UNL     1      -3.282  10.717  16.994  0.00  0.00    +0.000 A 
ATOM     18  C   UNL     1      -2.449  11.818  16.835  0.00  0.00    +0.000 A 
ATOM     19  C   UNL     1      -1.224  11.874  17.504  0.00  0.00    +0.000 A 
ENDBRANCH   2  14
BRANCH   1  21
ATOM     20  C   UNL     1       2.291  13.161  18.035  0.00  0.00    +0.000 C 
ATOM     21  S   UNL     1       1.323  13.284  19.523  0.00  0.00    +0.000 S 
ATOM     22  O   UNL     1       2.235  13.795  20.528  0.00  0.00    +0.000 OA
ATOM     23  O   UNL     1       0.110  13.996  19.201  0.00  0.00    +0.000 OA
ENDBRANCH   1  21
BRANCH   5  24
ATOM     24  C   UNL     1       0.169   9.601  23.060  0.00  0.00    +0.000 C 
ATOM     25  O   UNL     1       1.041   9.626  23.915  0.00  0.00    +0.000 OA
BRANCH  24  26
ATOM     26  O   UNL     1      -1.111   9.296  23.361  0.00  0.00    +0.000 OA
ATOM     27  H   UNL     1      -1.644   8.927  22.633  0.00  0.00    +0.000 HD
ENDBRANCH  24  26
ENDBRANCH   5  24
TORSDOF 5
ENDMDL
MODEL 3
REMARK VINA RESULT:      -5.9      1.107      1.337
REMARK  Name = 
REMARK  6 active torsions:
REMARK  status: ('A' for Active; 'I' for Inactive)
REMARK    1  A    between atoms: C_1  and  S_2
REMARK    2  A    between atoms: S_2  and  N_5
REMARK    3  A    between atoms: C_6  and  C_7
REMARK    4  A    between atoms: C_15  and  C_16
REMARK    5  A    between atoms: C_16  and  O_18
REMARK    6  A    between atoms: C_19  and  C_20
REMARK                            x       y       z     vdW  Elec       q    Type
REMARK                         _______ _______ _______ _____ _____    ______ ____
ROOT
ATOM      1  N   UNL     1       0.472  11.907  19.627  0.00  0.00    +0.000 NA
ATOM      2  C   UNL     1       0.208  10.764  18.707  0.00  0.00    +0.000 C 
ATOM      3  C   UNL     1       0.597   9.445  19.415  0.00  0.00    +0.000 C 
ATOM      4  C   UNL     1       0.163   9.353  20.847  0.00  0.00    +0.000 C 
ATOM      5  C   UNL     1      -0.205  10.443  21.551  0.00  0.00    +0.000 C 
ATOM      6  C   UNL     1      -0.157  11.878  21.005  0.00  0.00    +0.000 C 
ENDROOT
BRANCH   6   7
ATOM      7  C   UNL     1      -1.472  12.661  21.178  0.00  0.00    +0.000 A 
ATOM      8  C   UNL     1      -1.580  13.822  21.960  0.00  0.00    +0.000 A 
ATOM      9  C   UNL     1      -2.772  14.552  22.033  0.00  0.00    +0.000 A 
ATOM     10  C   UNL     1      -3.890  14.139  21.317  0.00  0.00    +0.000 A 
ATOM     11  C   UNL     1      -3.808  12.996  20.532  0.00  0.00    +0.000 A 
ATOM     12 BR   UNL     1      -5.319  12.430  19.543  0.00  0.00    +0.000 Br
ATOM     13  C   UNL     1      -2.615  12.272  20.453  0.00  0.00    +0.000 A 
ENDBRANCH   6   7
BRANCH   2  14
ATOM     14  C   UNL     1      -1.155  10.767  18.034  0.00  0.00    +0.000 A 
ATOM     15  C   UNL     1      -2.057   9.729  18.320  0.00  0.00    +0.000 A 
ATOM     16  C   UNL     1      -3.238   9.576  17.591  0.00  0.00    +0.000 A 
ATOM     17  C   UNL     1      -3.547  10.472  16.576  0.00  0.00    +0.000 A 
ATOM     18  C   UNL     1      -2.714  11.559  16.341  0.00  0.00    +0.000 A 
ATOM     19  C   UNL     1      -1.544  11.722  17.087  0.00  0.00    +0.000 A 
ENDBRANCH   2  14
BRANCH   1  21
ATOM     20  C   UNL     1       1.680  14.251  20.359  0.00  0.00    +0.000 C 
ATOM     21  S   UNL     1       0.871  13.422  19.009  0.00  0.00    +0.000 S 
ATOM     22  O   UNL     1      -0.364  14.154  18.800  0.00  0.00    +0.000 OA
ATOM     23  O   UNL     1       1.831  13.280  17.941  0.00  0.00    +0.000 OA
ENDBRANCH   1  21
BRANCH   5  24
ATOM     24  C   UNL     1      -0.567  10.342  22.990  0.00  0.00    +0.000 C 
ATOM     25  O   UNL     1      -1.648  10.703  23.431  0.00  0.00    +0.000 OA
BRANCH  24  26
ATOM     26  O   UNL     1       0.375   9.792  23.785  0.00  0.00    +0.000 OA
ATOM     27  H   UNL     1       0.799  10.395  24.424  0.00  0.00    +0.000 HD
ENDBRANCH  24  26
ENDBRANCH   5  24
TORSDOF 5
ENDMDL
MODEL 4
REMARK VINA RESULT:      -5.7      4.363      7.104
REMARK  Name = 
REMARK  6 active torsions:
REMARK  status: ('A' for Active; 'I' for Inactive)
REMARK    1  A    between atoms: C_1  and  S_2
REMARK    2  A    between atoms: S_2  and  N_5
REMARK    3  A    between atoms: C_6  and  C_7
REMARK    4  A    between atoms: C_15  and  C_16
REMARK    5  A    between atoms: C_16  and  O_18
REMARK    6  A    between atoms: C_19  and  C_20
REMARK                            x       y       z     vdW  Elec       q    Type
REMARK                         _______ _______ _______ _____ _____    ______ ____
ROOT
ATOM      1  N   UNL     1      -5.017  14.323  24.095  0.00  0.00    +0.000 NA
ATOM      2  C   UNL     1      -5.557  15.636  23.639  0.00  0.00    +0.000 C 
ATOM      3  C   UNL     1      -5.087  16.743  24.611  0.00  0.00    +0.000 C 
ATOM      4  C   UNL     1      -3.649  16.642  25.023  0.00  0.00    +0.000 C 
ATOM      5  C   UNL     1      -2.939  15.508  24.857  0.00  0.00    +0.000 C 
ATOM      6  C   UNL     1      -3.522  14.198  24.305  0.00  0.00    +0.000 C 
ENDROOT
BRANCH   6   7
ATOM      7  C   UNL     1      -2.713  13.590  23.144  0.00  0.00    +0.000 A 
ATOM      8  C   UNL     1      -2.485  14.258  21.930  0.00  0.00    +0.000 A 
ATOM      9  C   UNL     1      -1.681  13.707  20.926  0.00  0.00    +0.000 A 
ATOM     10  C   UNL     1      -1.076  12.470  21.115  0.00  0.00    +0.000 A 
ATOM     11  C   UNL     1      -1.281  11.791  22.309  0.00  0.00    +0.000 A 
ATOM     12 BR   UNL     1      -0.452  10.112  22.583  0.00  0.00    +0.000 Br
ATOM     13  C   UNL     1      -2.078  12.344  23.314  0.00  0.00    +0.000 A 
ENDBRANCH   6   7
BRANCH   2  14
ATOM     14  C   UNL     1      -5.372  15.942  22.161  0.00  0.00    +0.000 A 
ATOM     15  C   UNL     1      -4.498  16.976  21.785  0.00  0.00    +0.000 A 
ATOM     16  C   UNL     1      -4.436  17.426  20.465  0.00  0.00    +0.000 A 
ATOM     17  C   UNL     1      -5.232  16.835  19.493  0.00  0.00    +0.000 A 
ATOM     18  C   UNL     1      -6.034  15.749  19.827  0.00  0.00    +0.000 A 
ATOM     19  C   UNL     1      -6.077  15.287  21.145  0.00  0.00    +0.000 A 
ENDBRANCH   2  14
BRANCH   1  21
ATOM     20  C   UNL     1      -7.564  13.323  24.059  0.00  0.00    +0.000 C 
ATOM     21  S   UNL     1      -5.859  12.900  23.777  0.00  0.00    +0.000 S 
ATOM     22  O   UNL     1      -5.527  11.948  24.820  0.00  0.00    +0.000 OA
ATOM     23  O   UNL     1      -5.718  12.545  22.386  0.00  0.00    +0.000 OA
ENDBRANCH   1  21
BRANCH   5  24
ATOM     24  C   UNL     1      -1.533  15.404  25.334  0.00  0.00    +0.000 C 
ATOM     25  O   UNL     1      -0.576  15.354  24.577  0.00  0.00    +0.000 OA
BRANCH  24  26
ATOM     26  O   UNL     1      -1.379  15.399  26.675  0.00  0.00    +0.000 OA
ATOM     27  H   UNL     1      -0.620  14.890  27.015  0.00  0.00    +0.000 HD
ENDBRANCH  24  26
ENDBRANCH   5  24
TORSDOF 5
ENDMDL
MODEL 5
REMARK VINA RESULT:      -5.6      1.465      1.981
REMARK  Name = 
REMARK  6 active torsions:
REMARK  status: ('A' for Active; 'I' for Inactive)
REMARK    1  A    between atoms: C_1  and  S_2
REMARK    2  A    between atoms: S_2  and  N_5
REMARK    3  A    between atoms: C_6  and  C_7
REMARK    4  A    between atoms: C_15  and  C_16
REMARK    5  A    between atoms: C_16  and  O_18
REMARK    6  A    between atoms: C_19  and  C_20
REMARK                            x       y       z     vdW  Elec       q    Type
REMARK                         _______ _______ _______ _____ _____    ______ ____
ROOT
ATOM      1  N   UNL     1       1.097  11.554  19.839  0.00  0.00    +0.000 NA
ATOM      2  C   UNL     1       0.730  10.566  18.784  0.00  0.00    +0.000 C 
ATOM      3  C   UNL     1       1.156   9.152  19.244  0.00  0.00    +0.000 C 
ATOM      4  C   UNL     1       0.849   8.844  20.680  0.00  0.00    +0.000 C 
ATOM      5  C   UNL     1       0.568   9.816  21.571  0.00  0.00    +0.000 C 
ATOM      6  C   UNL     1       0.594  11.318  21.248  0.00  0.00    +0.000 C 
ENDROOT
BRANCH   6   7
ATOM      7  C   UNL     1      -0.685  12.071  21.657  0.00  0.00    +0.000 A 
ATOM      8  C   UNL     1      -1.957  11.765  21.144  0.00  0.00    +0.000 A 
ATOM      9  C   UNL     1      -3.109  12.419  21.595  0.00  0.00    +0.000 A 
ATOM     10  C   UNL     1      -3.019  13.396  22.580  0.00  0.00    +0.000 A 
ATOM     11  C   UNL     1      -1.773  13.714  23.107  0.00  0.00    +0.000 A 
ATOM     12 BR   UNL     1      -1.639  15.033  24.458  0.00  0.00    +0.000 Br
ATOM     13  C   UNL     1      -0.624  13.055  22.663  0.00  0.00    +0.000 A 
ENDBRANCH   6   7
BRANCH   2  14
ATOM     14  C   UNL     1      -0.687  10.680  18.246  0.00  0.00    +0.000 A 
ATOM     15  C   UNL     1      -1.201  11.953  17.947  0.00  0.00    +0.000 A 
ATOM     16  C   UNL     1      -2.549  12.133  17.636  0.00  0.00    +0.000 A 
ATOM     17  C   UNL     1      -3.404  11.039  17.597  0.00  0.00    +0.000 A 
ATOM     18  C   UNL     1      -2.896   9.761  17.797  0.00  0.00    +0.000 A 
ATOM     19  C   UNL     1      -1.541   9.582  18.087  0.00  0.00    +0.000 A 
ENDBRANCH   2  14
BRANCH   1  21
ATOM     20  C   UNL     1       2.589  13.682  20.697  0.00  0.00    +0.000 C 
ATOM     21  S   UNL     1       1.469  13.144  19.425  0.00  0.00    +0.000 S 
ATOM     22  O   UNL     1       0.271  13.940  19.611  0.00  0.00    +0.000 OA
ATOM     23  O   UNL     1       2.182  13.171  18.171  0.00  0.00    +0.000 OA
ENDBRANCH   1  21
BRANCH   5  24
ATOM     24  C   UNL     1       0.333   9.497  23.006  0.00  0.00    +0.000 C 
ATOM     25  O   UNL     1       1.205   9.584  23.857  0.00  0.00    +0.000 OA
BRANCH  24  26
ATOM     26  O   UNL     1      -0.928   9.131  23.316  0.00  0.00    +0.000 OA
ATOM     27  H   UNL     1      -1.398   8.608  22.640  0.00  0.00    +0.000 HD
ENDBRANCH  24  26
ENDBRANCH   5  24
TORSDOF 5
ENDMDL
MODEL 6
REMARK VINA RESULT:      -5.6      2.762      4.848
REMARK  Name = 
REMARK  6 active torsions:
REMARK  status: ('A' for Active; 'I' for Inactive)
REMARK    1  A    between atoms: C_1  and  S_2
REMARK    2  A    between atoms: S_2  and  N_5
REMARK    3  A    between atoms: C_6  and  C_7
REMARK    4  A    between atoms: C_15  and  C_16
REMARK    5  A    between atoms: C_16  and  O_18
REMARK    6  A    between atoms: C_19  and  C_20
REMARK                            x       y       z     vdW  Elec       q    Type
REMARK                         _______ _______ _______ _____ _____    ______ ____
ROOT
ATOM      1  N   UNL     1      -0.866  11.339  21.056  0.00  0.00    +0.000 NA
ATOM      2  C   UNL     1       0.361  10.974  20.292  0.00  0.00    +0.000 C 
ATOM      3  C   UNL     1      -0.031  10.050  19.115  0.00  0.00    +0.000 C 
ATOM      4  C   UNL     1      -1.263  10.474  18.372  0.00  0.00    +0.000 C 
ATOM      5  C   UNL     1      -2.140  11.355  18.893  0.00  0.00    +0.000 C 
ATOM      6  C   UNL     1      -2.022  11.961  20.300  0.00  0.00    +0.000 C 
ENDROOT
BRANCH   6   7
ATOM      7  C   UNL     1      -2.120  13.497  20.334  0.00  0.00    +0.000 A 
ATOM      8  C   UNL     1      -3.138  14.190  21.010  0.00  0.00    +0.000 A 
ATOM      9  C   UNL     1      -3.153  15.587  21.084  0.00  0.00    +0.000 A 
ATOM     10  C   UNL     1      -2.141  16.330  20.488  0.00  0.00    +0.000 A 
ATOM     11  C   UNL     1      -1.119  15.669  19.818  0.00  0.00    +0.000 A 
ATOM     12 BR   UNL     1       0.271  16.669  19.013  0.00  0.00    +0.000 Br
ATOM     13  C   UNL     1      -1.100  14.274  19.750  0.00  0.00    +0.000 A 
ENDBRANCH   6   7
BRANCH   2  14
ATOM     14  C   UNL     1       1.279  12.132  19.935  0.00  0.00    +0.000 A 
ATOM     15  C   UNL     1       1.545  12.397  18.581  0.00  0.00    +0.000 A 
ATOM     16  C   UNL     1       2.523  13.318  18.203  0.00  0.00    +0.000 A 
ATOM     17  C   UNL     1       3.240  14.006  19.174  0.00  0.00    +0.000 A 
ATOM     18  C   UNL     1       2.926  13.827  20.517  0.00  0.00    +0.000 A 
ATOM     19  C   UNL     1       1.931  12.921  20.891  0.00  0.00    +0.000 A 
ENDBRANCH   2  14
BRANCH   1  21
ATOM     20  C   UNL     1      -2.470  11.705  23.243  0.00  0.00    +0.000 C 
ATOM     21  S   UNL     1      -0.774  11.668  22.705  0.00  0.00    +0.000 S 
ATOM     22  O   UNL     1      -0.299  13.030  22.858  0.00  0.00    +0.000 OA
ATOM     23  O   UNL     1      -0.120  10.579  23.388  0.00  0.00    +0.000 OA
ENDBRANCH   1  21
BRANCH   5  24
ATOM     24  C   UNL     1      -3.391  11.713  18.171  0.00  0.00    +0.000 C 
ATOM     25  O   UNL     1      -4.471  11.827  18.729  0.00  0.00    +0.000 OA
BRANCH  24  26
ATOM     26  O   UNL     1      -3.248  11.934  16.847  0.00  0.00    +0.000 OA
ATOM     27  H   UNL     1      -2.884  12.803  16.597  0.00  0.00    +0.000 HD
ENDBRANCH  24  26
ENDBRANCH   5  24
TORSDOF 5
ENDMDL
MODEL 7
REMARK VINA RESULT:      -5.6      2.713      5.043
REMARK  Name = 
REMARK  6 active torsions:
REMARK  status: ('A' for Active; 'I' for Inactive)
REMARK    1  A    between atoms: C_1  and  S_2
REMARK    2  A    between atoms: S_2  and  N_5
REMARK    3  A    between atoms: C_6  and  C_7
REMARK    4  A    between atoms: C_15  and  C_16
REMARK    5  A    between atoms: C_16  and  O_18
REMARK    6  A    between atoms: C_19  and  C_20
REMARK                            x       y       z     vdW  Elec       q    Type
REMARK                         _______ _______ _______ _____ _____    ______ ____
ROOT
ATOM      1  N   UNL     1      -1.756  11.485  20.414  0.00  0.00    +0.000 NA
ATOM      2  C   UNL     1      -2.107  12.406  21.533  0.00  0.00    +0.000 C 
ATOM      3  C   UNL     1      -2.045  11.626  22.867  0.00  0.00    +0.000 C 
ATOM      4  C   UNL     1      -0.860  10.718  23.006  0.00  0.00    +0.000 C 
ATOM      5  C   UNL     1      -0.124  10.342  21.941  0.00  0.00    +0.000 C 
ATOM      6  C   UNL     1      -0.443  10.733  20.489  0.00  0.00    +0.000 C 
ENDROOT
BRANCH   6   7
ATOM      7  C   UNL     1       0.746  11.347  19.727  0.00  0.00    +0.000 A 
ATOM      8  C   UNL     1       1.308  10.765  18.579  0.00  0.00    +0.000 A 
ATOM      9  C   UNL     1       2.338  11.389  17.867  0.00  0.00    +0.000 A 
ATOM     10  C   UNL     1       2.831  12.619  18.284  0.00  0.00    +0.000 A 
ATOM     11  C   UNL     1       2.289  13.219  19.413  0.00  0.00    +0.000 A 
ATOM     12 BR   UNL     1       2.942  14.901  19.984  0.00  0.00    +0.000 Br
ATOM     13  C   UNL     1       1.255  12.600  20.120  0.00  0.00    +0.000 A 
ENDBRANCH   6   7
BRANCH   2  14
ATOM     14  C   UNL     1      -1.393  13.748  21.526  0.00  0.00    +0.000 A 
ATOM     15  C   UNL     1      -0.514  14.056  22.578  0.00  0.00    +0.000 A 
ATOM     16  C   UNL     1       0.017  15.338  22.724  0.00  0.00    +0.000 A 
ATOM     17  C   UNL     1      -0.305  16.330  21.807  0.00  0.00    +0.000 A 
ATOM     18  C   UNL     1      -1.097  16.020  20.707  0.00  0.00    +0.000 A 
ATOM     19  C   UNL     1      -1.609  14.730  20.552  0.00  0.00    +0.000 A 
ENDBRANCH   2  14
BRANCH   1  21
ATOM     20  C   UNL     1      -2.309  10.131  18.100  0.00  0.00    +0.000 C 
ATOM     21  S   UNL     1      -2.401  11.729  18.877  0.00  0.00    +0.000 S 
ATOM     22  O   UNL     1      -1.476  12.564  18.136  0.00  0.00    +0.000 OA
ATOM     23  O   UNL     1      -3.795  12.088  18.981  0.00  0.00    +0.000 OA
ENDBRANCH   1  21
BRANCH   5  24
ATOM     24  C   UNL     1       1.007   9.386  22.087  0.00  0.00    +0.000 C 
ATOM     25  O   UNL     1       1.939   9.571  22.854  0.00  0.00    +0.000 OA
BRANCH  24  26
ATOM     26  O   UNL     1       0.921   8.272  21.330  0.00  0.00    +0.000 OA
ATOM     27  H   UNL     1       0.055   8.105  20.914  0.00  0.00    +0.000 HD
ENDBRANCH  24  26
ENDBRANCH   5  24
TORSDOF 5
ENDMDL
MODEL 8
REMARK VINA RESULT:      -5.4      2.223      4.533
REMARK  Name = 
REMARK  6 active torsions:
REMARK  status: ('A' for Active; 'I' for Inactive)
REMARK    1  A    between atoms: C_1  and  S_2
REMARK    2  A    between atoms: S_2  and  N_5
REMARK    3  A    between atoms: C_6  and  C_7
REMARK    4  A    between atoms: C_15  and  C_16
REMARK    5  A    between atoms: C_16  and  O_18
REMARK    6  A    between atoms: C_19  and  C_20
REMARK                            x       y       z     vdW  Elec       q    Type
REMARK                         _______ _______ _______ _____ _____    ______ ____
ROOT
ATOM      1  N   UNL     1      -0.274  10.305  20.414  0.00  0.00    +0.000 NA
ATOM      2  C   UNL     1       0.918  10.436  19.529  0.00  0.00    +0.000 C 
ATOM      3  C   UNL     1       0.589   9.832  18.143  0.00  0.00    +0.000 C 
ATOM      4  C   UNL     1      -0.766  10.192  17.611  0.00  0.00    +0.000 C 
ATOM      5  C   UNL     1      -1.735  10.685  18.408  0.00  0.00    +0.000 C 
ATOM      6  C   UNL     1      -1.594  10.868  19.927  0.00  0.00    +0.000 C 
ENDROOT
BRANCH   6   7
ATOM      7  C   UNL     1      -1.968  12.275  20.429  0.00  0.00    +0.000 A 
ATOM      8  C   UNL     1      -1.351  13.448  19.964  0.00  0.00    +0.000 A 
ATOM      9  C   UNL     1      -1.769  14.715  20.385  0.00  0.00    +0.000 A 
ATOM     10  C   UNL     1      -2.824  14.843  21.282  0.00  0.00    +0.000 A 
ATOM     11  C   UNL     1      -3.454  13.698  21.753  0.00  0.00    +0.000 A 
ATOM     12 BR   UNL     1      -4.900  13.858  22.963  0.00  0.00    +0.000 Br
ATOM     13  C   UNL     1      -3.042  12.433  21.326  0.00  0.00    +0.000 A 
ENDBRANCH   6   7
BRANCH   2  14
ATOM     14  C   UNL     1       1.568  11.810  19.505  0.00  0.00    +0.000 A 
ATOM     15  C   UNL     1       1.908  12.380  18.267  0.00  0.00    +0.000 A 
ATOM     16  C   UNL     1       2.675  13.544  18.193  0.00  0.00    +0.000 A 
ATOM     17  C   UNL     1       3.098  14.170  19.358  0.00  0.00    +0.000 A 
ATOM     18  C   UNL     1       2.693  13.675  20.592  0.00  0.00    +0.000 A 
ATOM     19  C   UNL     1       1.907  12.522  20.662  0.00  0.00    +0.000 A 
ENDBRANCH   2  14
BRANCH   1  21
ATOM     20  C   UNL     1       1.477   9.322  22.274  0.00  0.00    +0.000 C 
ATOM     21  S   UNL     1      -0.084  10.155  22.081  0.00  0.00    +0.000 S 
ATOM     22  O   UNL     1      -1.078   9.211  22.556  0.00  0.00    +0.000 OA
ATOM     23  O   UNL     1       0.037  11.461  22.682  0.00  0.00    +0.000 OA
ENDBRANCH   1  21
BRANCH   5  24
ATOM     24  C   UNL     1      -3.095  10.972  17.877  0.00  0.00    +0.000 C 
ATOM     25  O   UNL     1      -4.099  10.402  18.275  0.00  0.00    +0.000 OA
BRANCH  24  26
ATOM     26  O   UNL     1      -3.154  11.937  16.935  0.00  0.00    +0.000 OA
ATOM     27  H   UNL     1      -2.298  12.236  16.576  0.00  0.00    +0.000 HD
ENDBRANCH  24  26
ENDBRANCH   5  24
TORSDOF 5
ENDMDL
MODEL 9
REMARK VINA RESULT:      -5.4      2.618      4.737
REMARK  Name = 
REMARK  6 active torsions:
REMARK  status: ('A' for Active; 'I' for Inactive)
REMARK    1  A    between atoms: C_1  and  S_2
REMARK    2  A    between atoms: S_2  and  N_5
REMARK    3  A    between atoms: C_6  and  C_7
REMARK    4  A    between atoms: C_15  and  C_16
REMARK    5  A    between atoms: C_16  and  O_18
REMARK    6  A    between atoms: C_19  and  C_20
REMARK                            x       y       z     vdW  Elec       q    Type
REMARK                         _______ _______ _______ _____ _____    ______ ____
ROOT
ATOM      1  N   UNL     1      -0.889  11.266  21.074  0.00  0.00    +0.000 NA
ATOM      2  C   UNL     1       0.293  10.766  20.315  0.00  0.00    +0.000 C 
ATOM      3  C   UNL     1      -0.193   9.861  19.159  0.00  0.00    +0.000 C 
ATOM      4  C   UNL     1      -1.380  10.389  18.410  0.00  0.00    +0.000 C 
ATOM      5  C   UNL     1      -2.164  11.363  18.914  0.00  0.00    +0.000 C 
ATOM      6  C   UNL     1      -1.981  11.983  20.308  0.00  0.00    +0.000 C 
ENDROOT
BRANCH   6   7
ATOM      7  C   UNL     1      -1.927  13.522  20.309  0.00  0.00    +0.000 A 
ATOM      8  C   UNL     1      -0.952  14.259  19.618  0.00  0.00    +0.000 A 
ATOM      9  C   UNL     1      -0.978  15.657  19.578  0.00  0.00    +0.000 A 
ATOM     10  C   UNL     1      -1.988  16.357  20.227  0.00  0.00    +0.000 A 
ATOM     11  C   UNL     1      -2.968  15.652  20.914  0.00  0.00    +0.000 A 
ATOM     12 BR   UNL     1      -4.356  16.593  21.790  0.00  0.00    +0.000 Br
ATOM     13  C   UNL     1      -2.947  14.255  20.947  0.00  0.00    +0.000 A 
ENDBRANCH   6   7
BRANCH   2  14
ATOM     14  C   UNL     1       1.319  11.821  19.931  0.00  0.00    +0.000 A 
ATOM     15  C   UNL     1       1.866  12.635  20.938  0.00  0.00    +0.000 A 
ATOM     16  C   UNL     1       2.660  13.738  20.623  0.00  0.00    +0.000 A 
ATOM     17  C   UNL     1       2.939  14.036  19.295  0.00  0.00    +0.000 A 
ATOM     18  C   UNL     1       2.485  13.189  18.290  0.00  0.00    +0.000 A 
ATOM     19  C   UNL     1       1.709  12.072  18.611  0.00  0.00    +0.000 A 
ENDBRANCH   2  14
BRANCH   1  21
ATOM     20  C   UNL     1      -2.441  11.699  23.286  0.00  0.00    +0.000 C 
ATOM     21  S   UNL     1      -0.758  11.620  22.716  0.00  0.00    +0.000 S 
ATOM     22  O   UNL     1      -0.252  12.973  22.837  0.00  0.00    +0.000 OA
ATOM     23  O   UNL     1      -0.111  10.528  23.403  0.00  0.00    +0.000 OA
ENDBRANCH   1  21
BRANCH   5  24
ATOM     24  C   UNL     1      -3.377  11.826  18.187  0.00  0.00    +0.000 C 
ATOM     25  O   UNL     1      -4.438  12.061  18.746  0.00  0.00    +0.000 OA
BRANCH  24  26
ATOM     26  O   UNL     1      -3.220  12.002  16.859  0.00  0.00    +0.000 OA
ATOM     27  H   UNL     1      -2.328  11.827  16.507  0.00  0.00    +0.000 HD
ENDBRANCH  24  26
ENDBRANCH   5  24
TORSDOF 5
ENDMDL
