MODEL 1
REMARK VINA RESULT:      -7.2      0.000      0.000
REMARK  Name = 
REMARK  8 active torsions:
REMARK  status: ('A' for Active; 'I' for Inactive)
REMARK    1  A    between atoms: C_1  and  C_2
REMARK    2  A    between atoms: C_4  and  S_5
REMARK    3  A    between atoms: S_5  and  N_8
REMARK    4  A    between atoms: N_8  and  C_9
REMARK    5  A    between atoms: C_9  and  C_10
REMARK    6  A    between atoms: C_10  and  C_11
REMARK    7  A    between atoms: C_10  and  C_12
REMARK    8  A    between atoms: C_10  and  N_13
REMARK                            x       y       z     vdW  Elec       q    Type
REMARK                         _______ _______ _______ _____ _____    ______ ____
ROOT
ATOM      1  S   UNL     1       5.356   4.858  18.654  0.00  0.00    +0.000 S 
ATOM      2  O   UNL     1       5.089   6.203  18.190  0.00  0.00    +0.000 OA
ATOM      3  O   UNL     1       6.154   4.620  19.838  0.00  0.00    +0.000 OA
ENDROOT
BRANCH   1   7
ATOM      4  C   UNL     1       1.554   2.726  21.626  0.00  0.00    +0.000 C 
ATOM      5  C   UNL     1       2.096   3.087  20.274  0.00  0.00    +0.000 A 
ATOM      6  C   UNL     1       3.357   3.682  20.128  0.00  0.00    +0.000 A 
ATOM      7  C   UNL     1       3.813   4.038  18.852  0.00  0.00    +0.000 A 
ATOM      8  C   UNL     1       3.023   3.806  17.731  0.00  0.00    +0.000 A 
ATOM      9  F   UNL     1       3.445   4.137  16.503  0.00  0.00    +0.000 F 
ATOM     10  C   UNL     1       1.772   3.217  17.865  0.00  0.00    +0.000 A 
ATOM     11  C   UNL     1       1.318   2.866  19.132  0.00  0.00    +0.000 A 
ATOM     12  F   UNL     1       0.104   2.310  19.253  0.00  0.00    +0.000 F 
ENDBRANCH   1   7
BRANCH   1  13
ATOM     13  N   UNL     1       6.083   4.037  17.373  0.00  0.00    +0.000 NA
ATOM     14  H   UNL     1       5.372   3.526  16.847  0.00  0.00    +0.000 HD
BRANCH  13  15
ATOM     15  C   UNL     1       7.103   4.774  16.595  0.00  0.00    +0.000 C 
BRANCH  15  16
ATOM     16  C   UNL     1       6.649   5.001  15.122  0.00  0.00    +0.000 C 
ATOM     17  C   UNL     1       6.109   3.704  14.498  0.00  0.00    +0.000 C 
ATOM     18  C   UNL     1       5.541   6.064  15.104  0.00  0.00    +0.000 C 
BRANCH  16  19
ATOM     19  N   UNL     1       7.767   5.471  14.284  0.00  0.00    +0.000 NA
ATOM     20  H   UNL     1       8.171   6.305  14.715  0.00  0.00    +0.000 HD
ATOM     21  H   UNL     1       7.413   5.783  13.380  0.00  0.00    +0.000 HD
ENDBRANCH  16  19
ENDBRANCH  15  16
ENDBRANCH  13  15
ENDBRANCH   1  13
TORSDOF 5
ENDMDL
MODEL 2
REMARK VINA RESULT:      -7.0      2.886      3.625
REMARK  Name = 
REMARK  8 active torsions:
REMARK  status: ('A' for Active; 'I' for Inactive)
REMARK    1  A    between atoms: C_1  and  C_2
REMARK    2  A    between atoms: C_4  and  S_5
REMARK    3  A    between atoms: S_5  and  N_8
REMARK    4  A    between atoms: N_8  and  C_9
REMARK    5  A    between atoms: C_9  and  C_10
REMARK    6  A    between atoms: C_10  and  C_11
REMARK    7  A    between atoms: C_10  and  C_12
REMARK    8  A    between atoms: C_10  and  N_13
REMARK                            x       y       z     vdW  Elec       q    Type
REMARK                         _______ _______ _______ _____ _____    ______ ____
ROOT
ATOM      1  S   UNL     1       4.100   3.623  18.477  0.00  0.00    +0.000 S 
ATOM      2  O   UNL     1       5.246   3.403  19.334  0.00  0.00    +0.000 OA
ATOM      3  O   UNL     1       3.105   2.591  18.279  0.00  0.00    +0.000 OA
ENDROOT
BRANCH   1   7
ATOM      4  C   UNL     1       2.431   8.579  17.779  0.00  0.00    +0.000 C 
ATOM      5  C   UNL     1       2.533   7.353  18.638  0.00  0.00    +0.000 A 
ATOM      6  C   UNL     1       3.243   6.220  18.212  0.00  0.00    +0.000 A 
ATOM      7  C   UNL     1       3.285   5.081  19.027  0.00  0.00    +0.000 A 
ATOM      8  C   UNL     1       2.628   5.065  20.252  0.00  0.00    +0.000 A 
ATOM      9  F   UNL     1       2.661   3.987  21.045  0.00  0.00    +0.000 F 
ATOM     10  C   UNL     1       1.923   6.182  20.684  0.00  0.00    +0.000 A 
ATOM     11  C   UNL     1       1.879   7.313  19.874  0.00  0.00    +0.000 A 
ATOM     12  F   UNL     1       1.184   8.381  20.292  0.00  0.00    +0.000 F 
ENDBRANCH   1   7
BRANCH   1  13
ATOM     13  N   UNL     1       4.703   4.051  16.961  0.00  0.00    +0.000 NA
ATOM     14  H   UNL     1       4.109   4.771  16.548  0.00  0.00    +0.000 HD
BRANCH  13  15
ATOM     15  C   UNL     1       6.167   4.231  16.846  0.00  0.00    +0.000 C 
BRANCH  15  16
ATOM     16  C   UNL     1       6.528   5.585  16.167  0.00  0.00    +0.000 C 
ATOM     17  C   UNL     1       5.318   6.179  15.427  0.00  0.00    +0.000 C 
ATOM     18  C   UNL     1       6.987   6.574  17.248  0.00  0.00    +0.000 C 
BRANCH  16  19
ATOM     19  N   UNL     1       7.616   5.420  15.187  0.00  0.00    +0.000 NA
ATOM     20  H   UNL     1       7.323   4.738  14.484  0.00  0.00    +0.000 HD
ATOM     21  H   UNL     1       8.429   5.004  15.640  0.00  0.00    +0.000 HD
ENDBRANCH  16  19
ENDBRANCH  15  16
ENDBRANCH  13  15
ENDBRANCH   1  13
TORSDOF 5
ENDMDL
MODEL 3
REMARK VINA RESULT:      -7.0      2.744      3.461
REMARK  Name = 
REMARK  8 active torsions:
REMARK  status: ('A' for Active; 'I' for Inactive)
REMARK    1  A    between atoms: C_1  and  C_2
REMARK    2  A    between atoms: C_4  and  S_5
REMARK    3  A    between atoms: S_5  and  N_8
REMARK    4  A    between atoms: N_8  and  C_9
REMARK    5  A    between atoms: C_9  and  C_10
REMARK    6  A    between atoms: C_10  and  C_11
REMARK    7  A    between atoms: C_10  and  C_12
REMARK    8  A    between atoms: C_10  and  N_13
REMARK                            x       y       z     vdW  Elec       q    Type
REMARK                         _______ _______ _______ _____ _____    ______ ____
ROOT
ATOM      1  S   UNL     1       4.289   3.300  18.770  0.00  0.00    +0.000 S 
ATOM      2  O   UNL     1       4.984   2.804  19.938  0.00  0.00    +0.000 OA
ATOM      3  O   UNL     1       3.387   2.452  18.019  0.00  0.00    +0.000 OA
ENDROOT
BRANCH   1   7
ATOM      4  C   UNL     1       2.714   8.262  17.918  0.00  0.00    +0.000 C 
ATOM      5  C   UNL     1       2.720   7.032  18.777  0.00  0.00    +0.000 A 
ATOM      6  C   UNL     1       3.470   5.900  18.426  0.00  0.00    +0.000 A 
ATOM      7  C   UNL     1       3.421   4.757  19.235  0.00  0.00    +0.000 A 
ATOM      8  C   UNL     1       2.635   4.737  20.381  0.00  0.00    +0.000 A 
ATOM      9  F   UNL     1       2.580   3.655  21.168  0.00  0.00    +0.000 F 
ATOM     10  C   UNL     1       1.889   5.854  20.739  0.00  0.00    +0.000 A 
ATOM     11  C   UNL     1       1.935   6.988  19.934  0.00  0.00    +0.000 A 
ATOM     12  F   UNL     1       1.201   8.056  20.279  0.00  0.00    +0.000 F 
ENDBRANCH   1   7
BRANCH   1  13
ATOM     13  N   UNL     1       5.470   3.862  17.705  0.00  0.00    +0.000 NA
ATOM     14  H   UNL     1       6.395   3.639  18.072  0.00  0.00    +0.000 HD
BRANCH  13  15
ATOM     15  C   UNL     1       5.238   3.630  16.262  0.00  0.00    +0.000 C 
BRANCH  15  16
ATOM     16  C   UNL     1       6.094   4.589  15.382  0.00  0.00    +0.000 C 
ATOM     17  C   UNL     1       6.236   4.053  13.948  0.00  0.00    +0.000 C 
ATOM     18  C   UNL     1       5.408   5.962  15.336  0.00  0.00    +0.000 C 
BRANCH  16  19
ATOM     19  N   UNL     1       7.450   4.757  15.935  0.00  0.00    +0.000 NA
ATOM     20  H   UNL     1       8.105   4.224  15.361  0.00  0.00    +0.000 HD
ATOM     21  H   UNL     1       7.500   4.334  16.860  0.00  0.00    +0.000 HD
ENDBRANCH  16  19
ENDBRANCH  15  16
ENDBRANCH  13  15
ENDBRANCH   1  13
TORSDOF 5
ENDMDL
MODEL 4
REMARK VINA RESULT:      -7.0      3.108      4.012
REMARK  Name = 
REMARK  8 active torsions:
REMARK  status: ('A' for Active; 'I' for Inactive)
REMARK    1  A    between atoms: C_1  and  C_2
REMARK    2  A    between atoms: C_4  and  S_5
REMARK    3  A    between atoms: S_5  and  N_8
REMARK    4  A    between atoms: N_8  and  C_9
REMARK    5  A    between atoms: C_9  and  C_10
REMARK    6  A    between atoms: C_10  and  C_11
REMARK    7  A    between atoms: C_10  and  C_12
REMARK    8  A    between atoms: C_10  and  N_13
REMARK                            x       y       z     vdW  Elec       q    Type
REMARK                         _______ _______ _______ _____ _____    ______ ____
ROOT
ATOM      1  S   UNL     1       3.880   3.631  18.219  0.00  0.00    +0.000 S 
ATOM      2  O   UNL     1       3.232   2.503  18.853  0.00  0.00    +0.000 OA
ATOM      3  O   UNL     1       3.939   3.747  16.777  0.00  0.00    +0.000 OA
ENDROOT
BRANCH   1   7
ATOM      4  C   UNL     1       2.323   8.651  17.762  0.00  0.00    +0.000 C 
ATOM      5  C   UNL     1       2.455   7.403  18.585  0.00  0.00    +0.000 A 
ATOM      6  C   UNL     1       3.090   6.259  18.079  0.00  0.00    +0.000 A 
ATOM      7  C   UNL     1       3.161   5.101  18.864  0.00  0.00    +0.000 A 
ATOM      8  C   UNL     1       2.608   5.078  20.139  0.00  0.00    +0.000 A 
ATOM      9  F   UNL     1       2.670   3.981  20.905  0.00  0.00    +0.000 F 
ATOM     10  C   UNL     1       1.977   6.206  20.650  0.00  0.00    +0.000 A 
ATOM     11  C   UNL     1       1.904   7.356  19.869  0.00  0.00    +0.000 A 
ATOM     12  F   UNL     1       1.281   8.435  20.365  0.00  0.00    +0.000 F 
ENDBRANCH   1   7
BRANCH   1  13
ATOM     13  N   UNL     1       5.462   3.673  18.801  0.00  0.00    +0.000 NA
ATOM     14  H   UNL     1       6.041   3.026  18.265  0.00  0.00    +0.000 HD
BRANCH  13  15
ATOM     15  C   UNL     1       6.033   5.004  19.103  0.00  0.00    +0.000 C 
BRANCH  15  16
ATOM     16  C   UNL     1       7.161   5.387  18.099  0.00  0.00    +0.000 C 
ATOM     17  C   UNL     1       6.577   5.919  16.781  0.00  0.00    +0.000 C 
ATOM     18  C   UNL     1       8.039   6.475  18.733  0.00  0.00    +0.000 C 
BRANCH  16  19
ATOM     19  N   UNL     1       8.009   4.225  17.778  0.00  0.00    +0.000 NA
ATOM     20  H   UNL     1       7.720   3.437  18.360  0.00  0.00    +0.000 HD
ATOM     21  H   UNL     1       8.973   4.416  18.048  0.00  0.00    +0.000 HD
ENDBRANCH  16  19
ENDBRANCH  15  16
ENDBRANCH  13  15
ENDBRANCH   1  13
TORSDOF 5
ENDMDL
MODEL 5
REMARK VINA RESULT:      -6.9      3.012      6.198
REMARK  Name = 
REMARK  8 active torsions:
REMARK  status: ('A' for Active; 'I' for Inactive)
REMARK    1  A    between atoms: C_1  and  C_2
REMARK    2  A    between atoms: C_4  and  S_5
REMARK    3  A    between atoms: S_5  and  N_8
REMARK    4  A    between atoms: N_8  and  C_9
REMARK    5  A    between atoms: C_9  and  C_10
REMARK    6  A    between atoms: C_10  and  C_11
REMARK    7  A    between atoms: C_10  and  C_12
REMARK    8  A    between atoms: C_10  and  N_13
REMARK                            x       y       z     vdW  Elec       q    Type
REMARK                         _______ _______ _______ _____ _____    ______ ____
ROOT
ATOM      1  S   UNL     1       4.673   4.206  19.019  0.00  0.00    +0.000 S 
ATOM      2  O   UNL     1       5.187   3.049  19.720  0.00  0.00    +0.000 OA
ATOM      3  O   UNL     1       4.604   5.501  19.661  0.00  0.00    +0.000 OA
ENDROOT
BRANCH   1   7
ATOM      4  C   UNL     1       5.085   3.994  13.764  0.00  0.00    +0.000 C 
ATOM      5  C   UNL     1       5.700   4.273  15.103  0.00  0.00    +0.000 A 
ATOM      6  C   UNL     1       4.985   4.070  16.292  0.00  0.00    +0.000 A 
ATOM      7  C   UNL     1       5.581   4.378  17.522  0.00  0.00    +0.000 A 
ATOM      8  C   UNL     1       6.875   4.884  17.572  0.00  0.00    +0.000 A 
ATOM      9  F   UNL     1       7.462   5.179  18.739  0.00  0.00    +0.000 F 
ATOM     10  C   UNL     1       7.593   5.089  16.399  0.00  0.00    +0.000 A 
ATOM     11  C   UNL     1       7.000   4.786  15.178  0.00  0.00    +0.000 A 
ATOM     12  F   UNL     1       7.695   5.000  14.051  0.00  0.00    +0.000 F 
ENDBRANCH   1   7
BRANCH   1  13
ATOM     13  N   UNL     1       3.119   3.809  18.499  0.00  0.00    +0.000 NA
ATOM     14  H   UNL     1       3.078   3.852  17.480  0.00  0.00    +0.000 HD
BRANCH  13  15
ATOM     15  C   UNL     1       2.464   2.656  19.156  0.00  0.00    +0.000 C 
BRANCH  15  16
ATOM     16  C   UNL     1       1.348   3.114  20.141  0.00  0.00    +0.000 C 
ATOM     17  C   UNL     1       1.605   2.584  21.561  0.00  0.00    +0.000 C 
ATOM     18  C   UNL     1       1.320   4.649  20.178  0.00  0.00    +0.000 C 
BRANCH  16  19
ATOM     19  N   UNL     1       0.024   2.629  19.713  0.00  0.00    +0.000 NA
ATOM     20  H   UNL     1      -0.620   2.693  20.504  0.00  0.00    +0.000 HD
ATOM     21  H   UNL     1       0.075   1.635  19.492  0.00  0.00    +0.000 HD
ENDBRANCH  16  19
ENDBRANCH  15  16
ENDBRANCH  13  15
ENDBRANCH   1  13
TORSDOF 5
ENDMDL
MODEL 6
REMARK VINA RESULT:      -6.9      1.737      1.849
REMARK  Name = 
REMARK  8 active torsions:
REMARK  status: ('A' for Active; 'I' for Inactive)
REMARK    1  A    between atoms: C_1  and  C_2
REMARK    2  A    between atoms: C_4  and  S_5
REMARK    3  A    between atoms: S_5  and  N_8
REMARK    4  A    between atoms: N_8  and  C_9
REMARK    5  A    between atoms: C_9  and  C_10
REMARK    6  A    between atoms: C_10  and  C_11
REMARK    7  A    between atoms: C_10  and  C_12
REMARK    8  A    between atoms: C_10  and  N_13
REMARK                            x       y       z     vdW  Elec       q    Type
REMARK                         _______ _______ _______ _____ _____    ______ ____
ROOT
ATOM      1  S   UNL     1       6.300   5.413  18.826  0.00  0.00    +0.000 S 
ATOM      2  O   UNL     1       6.371   6.631  18.048  0.00  0.00    +0.000 OA
ATOM      3  O   UNL     1       7.091   5.244  20.027  0.00  0.00    +0.000 OA
ENDROOT
BRANCH   1   7
ATOM      4  C   UNL     1       2.487   2.760  21.327  0.00  0.00    +0.000 C 
ATOM      5  C   UNL     1       2.909   3.875  20.417  0.00  0.00    +0.000 A 
ATOM      6  C   UNL     1       4.252   4.051  20.052  0.00  0.00    +0.000 A 
ATOM      7  C   UNL     1       4.612   5.127  19.230  0.00  0.00    +0.000 A 
ATOM      8  C   UNL     1       3.649   6.021  18.775  0.00  0.00    +0.000 A 
ATOM      9  F   UNL     1       3.975   7.052  17.985  0.00  0.00    +0.000 F 
ATOM     10  C   UNL     1       2.315   5.855  19.131  0.00  0.00    +0.000 A 
ATOM     11  C   UNL     1       1.958   4.788  19.949  0.00  0.00    +0.000 A 
ATOM     12  F   UNL     1       0.672   4.644  20.299  0.00  0.00    +0.000 F 
ENDBRANCH   1   7
BRANCH   1  13
ATOM     13  N   UNL     1       6.680   4.146  17.780  0.00  0.00    +0.000 NA
ATOM     14  H   UNL     1       5.966   3.419  17.850  0.00  0.00    +0.000 HD
BRANCH  13  15
ATOM     15  C   UNL     1       7.146   4.510  16.424  0.00  0.00    +0.000 C 
BRANCH  15  16
ATOM     16  C   UNL     1       5.962   4.616  15.418  0.00  0.00    +0.000 C 
ATOM     17  C   UNL     1       6.343   4.038  14.046  0.00  0.00    +0.000 C 
ATOM     18  C   UNL     1       4.767   3.831  15.977  0.00  0.00    +0.000 C 
BRANCH  16  19
ATOM     19  N   UNL     1       5.553   6.018  15.218  0.00  0.00    +0.000 NA
ATOM     20  H   UNL     1       5.152   6.111  14.283  0.00  0.00    +0.000 HD
ATOM     21  H   UNL     1       6.374   6.621  15.217  0.00  0.00    +0.000 HD
ENDBRANCH  16  19
ENDBRANCH  15  16
ENDBRANCH  13  15
ENDBRANCH   1  13
TORSDOF 5
ENDMDL
MODEL 7
REMARK VINA RESULT:      -6.9      2.630      3.410
REMARK  Name = 
REMARK  8 active torsions:
REMARK  status: ('A' for Active; 'I' for Inactive)
REMARK    1  A    between atoms: C_1  and  C_2
REMARK    2  A    between atoms: C_4  and  S_5
REMARK    3  A    between atoms: S_5  and  N_8
REMARK    4  A    between atoms: N_8  and  C_9
REMARK    5  A    between atoms: C_9  and  C_10
REMARK    6  A    between atoms: C_10  and  C_11
REMARK    7  A    between atoms: C_10  and  C_12
REMARK    8  A    between atoms: C_10  and  N_13
REMARK                            x       y       z     vdW  Elec       q    Type
REMARK                         _______ _______ _______ _____ _____    ______ ____
ROOT
ATOM      1  S   UNL     1       5.901   5.461  15.584  0.00  0.00    +0.000 S 
ATOM      2  O   UNL     1       5.433   6.798  15.285  0.00  0.00    +0.000 OA
ATOM      3  O   UNL     1       7.307   5.189  15.791  0.00  0.00    +0.000 OA
ENDROOT
BRANCH   1   7
ATOM      4  C   UNL     1       2.466   2.194  17.898  0.00  0.00    +0.000 C 
ATOM      5  C   UNL     1       3.434   3.337  17.990  0.00  0.00    +0.000 A 
ATOM      6  C   UNL     1       4.087   3.834  16.853  0.00  0.00    +0.000 A 
ATOM      7  C   UNL     1       5.012   4.878  16.985  0.00  0.00    +0.000 A 
ATOM      8  C   UNL     1       5.287   5.423  18.234  0.00  0.00    +0.000 A 
ATOM      9  F   UNL     1       6.164   6.424  18.377  0.00  0.00    +0.000 F 
ATOM     10  C   UNL     1       4.645   4.938  19.367  0.00  0.00    +0.000 A 
ATOM     11  C   UNL     1       3.728   3.900  19.237  0.00  0.00    +0.000 A 
ATOM     12  F   UNL     1       3.124   3.429  20.337  0.00  0.00    +0.000 F 
ENDBRANCH   1   7
BRANCH   1  13
ATOM     13  N   UNL     1       5.366   4.468  14.330  0.00  0.00    +0.000 NA
ATOM     14  H   UNL     1       4.820   5.019  13.667  0.00  0.00    +0.000 HD
BRANCH  13  15
ATOM     15  C   UNL     1       6.341   3.505  13.773  0.00  0.00    +0.000 C 
BRANCH  15  16
ATOM     16  C   UNL     1       6.215   3.391  12.225  0.00  0.00    +0.000 C 
ATOM     17  C   UNL     1       4.761   3.591  11.767  0.00  0.00    +0.000 C 
ATOM     18  C   UNL     1       7.096   4.467  11.575  0.00  0.00    +0.000 C 
BRANCH  16  19
ATOM     19  N   UNL     1       6.658   2.068  11.747  0.00  0.00    +0.000 NA
ATOM     20  H   UNL     1       6.266   1.351  12.360  0.00  0.00    +0.000 HD
ATOM     21  H   UNL     1       7.668   1.984  11.851  0.00  0.00    +0.000 HD
ENDBRANCH  16  19
ENDBRANCH  15  16
ENDBRANCH  13  15
ENDBRANCH   1  13
TORSDOF 5
ENDMDL
MODEL 8
REMARK VINA RESULT:      -6.8      2.921      6.220
REMARK  Name = 
REMARK  8 active torsions:
REMARK  status: ('A' for Active; 'I' for Inactive)
REMARK    1  A    between atoms: C_1  and  C_2
REMARK    2  A    between atoms: C_4  and  S_5
REMARK    3  A    between atoms: S_5  and  N_8
REMARK    4  A    between atoms: N_8  and  C_9
REMARK    5  A    between atoms: C_9  and  C_10
REMARK    6  A    between atoms: C_10  and  C_11
REMARK    7  A    between atoms: C_10  and  C_12
REMARK    8  A    between atoms: C_10  and  N_13
REMARK                            x       y       z     vdW  Elec       q    Type
REMARK                         _______ _______ _______ _____ _____    ______ ____
ROOT
ATOM      1  S   UNL     1       4.984   4.502  17.653  0.00  0.00    +0.000 S 
ATOM      2  O   UNL     1       5.929   4.061  18.657  0.00  0.00    +0.000 OA
ATOM      3  O   UNL     1       4.238   5.731  17.816  0.00  0.00    +0.000 OA
ENDROOT
BRANCH   1   7
ATOM      4  C   UNL     1       5.434   3.305  12.535  0.00  0.00    +0.000 C 
ATOM      5  C   UNL     1       5.966   3.991  13.758  0.00  0.00    +0.000 A 
ATOM      6  C   UNL     1       5.319   3.879  14.997  0.00  0.00    +0.000 A 
ATOM      7  C   UNL     1       5.826   4.564  16.110  0.00  0.00    +0.000 A 
ATOM      8  C   UNL     1       6.963   5.355  15.993  0.00  0.00    +0.000 A 
ATOM      9  F   UNL     1       7.463   6.014  17.046  0.00  0.00    +0.000 F 
ATOM     10  C   UNL     1       7.612   5.473  14.769  0.00  0.00    +0.000 A 
ATOM     11  C   UNL     1       7.108   4.794  13.664  0.00  0.00    +0.000 A 
ATOM     12  F   UNL     1       7.732   4.925  12.485  0.00  0.00    +0.000 F 
ENDBRANCH   1   7
BRANCH   1  13
ATOM     13  N   UNL     1       3.872   3.250  17.450  0.00  0.00    +0.000 NA
ATOM     14  H   UNL     1       4.271   2.534  16.843  0.00  0.00    +0.000 HD
BRANCH  13  15
ATOM     15  C   UNL     1       3.149   2.792  18.657  0.00  0.00    +0.000 C 
BRANCH  15  16
ATOM     16  C   UNL     1       1.717   3.399  18.733  0.00  0.00    +0.000 C 
ATOM     17  C   UNL     1       0.650   2.299  18.857  0.00  0.00    +0.000 C 
ATOM     18  C   UNL     1       1.633   4.317  19.961  0.00  0.00    +0.000 C 
BRANCH  16  19
ATOM     19  N   UNL     1       1.406   4.192  17.530  0.00  0.00    +0.000 NA
ATOM     20  H   UNL     1       1.189   3.552  16.763  0.00  0.00    +0.000 HD
ATOM     21  H   UNL     1       2.236   4.700  17.227  0.00  0.00    +0.000 HD
ENDBRANCH  16  19
ENDBRANCH  15  16
ENDBRANCH  13  15
ENDBRANCH   1  13
TORSDOF 5
ENDMDL
MODEL 9
REMARK VINA RESULT:      -6.8      2.918      6.269
REMARK  Name = 
REMARK  8 active torsions:
REMARK  status: ('A' for Active; 'I' for Inactive)
REMARK    1  A    between atoms: C_1  and  C_2
REMARK    2  A    between atoms: C_4  and  S_5
REMARK    3  A    between atoms: S_5  and  N_8
REMARK    4  A    between atoms: N_8  and  C_9
REMARK    5  A    between atoms: C_9  and  C_10
REMARK    6  A    between atoms: C_10  and  C_11
REMARK    7  A    between atoms: C_10  and  C_12
REMARK    8  A    between atoms: C_10  and  N_13
REMARK                            x       y       z     vdW  Elec       q    Type
REMARK                         _______ _______ _______ _____ _____    ______ ____
ROOT
ATOM      1  S   UNL     1       4.877   4.607  17.989  0.00  0.00    +0.000 S 
ATOM      2  O   UNL     1       5.669   3.826  18.915  0.00  0.00    +0.000 OA
ATOM      3  O   UNL     1       4.460   5.955  18.312  0.00  0.00    +0.000 OA
ENDROOT
BRANCH   1   7
ATOM      4  C   UNL     1       5.240   3.522  12.839  0.00  0.00    +0.000 C 
ATOM      5  C   UNL     1       5.823   4.127  14.082  0.00  0.00    +0.000 A 
ATOM      6  C   UNL     1       5.166   4.033  15.317  0.00  0.00    +0.000 A 
ATOM      7  C   UNL     1       5.724   4.643  16.448  0.00  0.00    +0.000 A 
ATOM      8  C   UNL     1       6.923   5.340  16.354  0.00  0.00    +0.000 A 
ATOM      9  F   UNL     1       7.473   5.926  17.426  0.00  0.00    +0.000 F 
ATOM     10  C   UNL     1       7.583   5.439  15.134  0.00  0.00    +0.000 A 
ATOM     11  C   UNL     1       7.027   4.835  14.011  0.00  0.00    +0.000 A 
ATOM     12  F   UNL     1       7.663   4.948  12.836  0.00  0.00    +0.000 F 
ENDBRANCH   1   7
BRANCH   1  13
ATOM     13  N   UNL     1       3.489   3.707  17.659  0.00  0.00    +0.000 NA
ATOM     14  H   UNL     1       3.690   2.713  17.779  0.00  0.00    +0.000 HD
BRANCH  13  15
ATOM     15  C   UNL     1       2.213   4.213  18.211  0.00  0.00    +0.000 C 
BRANCH  15  16
ATOM     16  C   UNL     1       1.722   3.347  19.410  0.00  0.00    +0.000 C 
ATOM     17  C   UNL     1       1.084   4.219  20.503  0.00  0.00    +0.000 C 
ATOM     18  C   UNL     1       0.679   2.342  18.900  0.00  0.00    +0.000 C 
BRANCH  16  19
ATOM     19  N   UNL     1       2.835   2.601  20.023  0.00  0.00    +0.000 NA
ATOM     20  H   UNL     1       3.713   2.929  19.616  0.00  0.00    +0.000 HD
ATOM     21  H   UNL     1       2.775   1.617  19.765  0.00  0.00    +0.000 HD
ENDBRANCH  16  19
ENDBRANCH  15  16
ENDBRANCH  13  15
ENDBRANCH   1  13
TORSDOF 5
ENDMDL
