MODEL 1
REMARK VINA RESULT:      -7.2      0.000      0.000
REMARK  Name = 
REMARK  10 active torsions:
REMARK  status: ('A' for Active; 'I' for Inactive)
REMARK    1  A    between atoms: C_2  and  C_3
REMARK    2  A    between atoms: N_5  and  C_6
REMARK    3  A    between atoms: C_10  and  N_11
REMARK    4  A    between atoms: C_14  and  C_15
REMARK    5  A    between atoms: N_23  and  C_24
REMARK    6  A    between atoms: C_27  and  O_28
REMARK    7  A    between atoms: O_28  and  C_29
REMARK    8  A    between atoms: C_29  and  C_30
REMARK    9  A    between atoms: C_30  and  O_31
REMARK   10  A    between atoms: O_31  and  C_32
REMARK                            x       y       z     vdW  Elec       q    Type
REMARK                         _______ _______ _______ _____ _____    ______ ____
ROOT
ATOM      1  N   UNL     1       0.336  12.346  21.160  0.00  0.00    +0.000 N 
ATOM      2  C   UNL     1      -0.501  13.195  21.883  0.00  0.00    +0.000 A 
ATOM      3  O   UNL     1      -0.560  14.416  21.788  0.00  0.00    +0.000 OA
ATOM      4  C   UNL     1      -1.462  12.504  22.835  0.00  0.00    +0.000 A 
ATOM      5  N   UNL     1      -1.552  11.221  22.984  0.00  0.00    +0.000 NA
ATOM      6  C   UNL     1      -0.649  10.437  22.251  0.00  0.00    +0.000 A 
ATOM      7  C   UNL     1      -0.631   9.071  22.397  0.00  0.00    +0.000 A 
ATOM      8  N   UNL     1       0.239   8.253  21.777  0.00  0.00    +0.000 NA
ATOM      9  C   UNL     1       1.168   8.819  20.991  0.00  0.00    +0.000 A 
ATOM     10  N   UNL     1       2.142   8.023  20.388  0.00  0.00    +0.000 N 
ATOM     11  N   UNL     1       1.226  10.136  20.771  0.00  0.00    +0.000 NA
ATOM     12  C   UNL     1       0.306  10.933  21.373  0.00  0.00    +0.000 A 
ATOM     13  H   UNL     1       2.817   8.594  19.896  0.00  0.00    +0.000 HD
ENDROOT
BRANCH   1  18
ATOM     14  C   UNL     1       3.400  14.138  19.956  0.00  0.00    +0.000 A 
ATOM     15  C   UNL     1       3.172  14.099  18.580  0.00  0.00    +0.000 A 
ATOM     16  C   UNL     1       2.065  13.430  18.058  0.00  0.00    +0.000 A 
ATOM     17  C   UNL     1       1.157  12.807  18.910  0.00  0.00    +0.000 A 
ATOM     18  C   UNL     1       1.343  12.864  20.295  0.00  0.00    +0.000 A 
ATOM     19  C   UNL     1       2.496  13.490  20.807  0.00  0.00    +0.000 A 
BRANCH  14  22
ATOM     20  C   UNL     1       4.594  16.181  20.698  0.00  0.00    +0.000 C 
ATOM     21  O   UNL     1       3.747  17.017  20.406  0.00  0.00    +0.000 OA
ATOM     22  N   UNL     1       4.496  14.814  20.540  0.00  0.00    +0.000 N 
ATOM     23  H   UNL     1       5.203  14.233  20.970  0.00  0.00    +0.000 HD
BRANCH  20  25
ATOM     24  C   UNL     1       6.572  15.686  22.043  0.00  0.00    +0.000 C 
ATOM     25  C   UNL     1       5.871  16.593  21.350  0.00  0.00    +0.000 C 
ENDBRANCH  20  25
ENDBRANCH  14  22
ENDBRANCH   1  18
BRANCH  10  26
ATOM     26  C   UNL     1       1.982   6.722  19.882  0.00  0.00    +0.000 A 
ATOM     27  C   UNL     1       2.188   6.435  18.532  0.00  0.00    +0.000 A 
ATOM     28  C   UNL     1       1.991   5.156  18.024  0.00  0.00    +0.000 A 
ATOM     29  C   UNL     1       1.570   4.116  18.855  0.00  0.00    +0.000 A 
ATOM     30  C   UNL     1       1.360   4.386  20.208  0.00  0.00    +0.000 A 
ATOM     31  C   UNL     1       1.575   5.677  20.720  0.00  0.00    +0.000 A 
BRANCH  29  32
ATOM     32  O   UNL     1       1.340   2.826  18.440  0.00  0.00    +0.000 OA
BRANCH  32  33
ATOM     33  C   UNL     1       2.232   1.860  19.004  0.00  0.00    +0.000 C 
BRANCH  33  34
ATOM     34  C   UNL     1       3.532   1.753  18.220  0.00  0.00    +0.000 C 
BRANCH  34  35
ATOM     35  O   UNL     1       4.544   2.405  18.993  0.00  0.00    +0.000 OA
ATOM     36  C   UNL     1       4.362   2.216  20.387  0.00  0.00    +0.000 C 
ENDBRANCH  34  35
ENDBRANCH  33  34
ENDBRANCH  32  33
ENDBRANCH  29  32
ENDBRANCH  10  26
BRANCH   4  37
ATOM     37  C   UNL     1      -2.365  13.390  23.609  0.00  0.00    +0.000 C 
ATOM     38  C   UNL     1      -3.713  13.815  23.069  0.00  0.00    +0.000 C 
ATOM     39  C   UNL     1      -3.641  12.829  24.196  0.00  0.00    +0.000 C 
ENDBRANCH   4  37
TORSDOF 9
ENDMDL
MODEL 2
REMARK VINA RESULT:      -7.2      3.527     10.395
REMARK  Name = 
REMARK  10 active torsions:
REMARK  status: ('A' for Active; 'I' for Inactive)
REMARK    1  A    between atoms: C_2  and  C_3
REMARK    2  A    between atoms: N_5  and  C_6
REMARK    3  A    between atoms: C_10  and  N_11
REMARK    4  A    between atoms: C_14  and  C_15
REMARK    5  A    between atoms: N_23  and  C_24
REMARK    6  A    between atoms: C_27  and  O_28
REMARK    7  A    between atoms: O_28  and  C_29
REMARK    8  A    between atoms: C_29  and  C_30
REMARK    9  A    between atoms: C_30  and  O_31
REMARK   10  A    between atoms: O_31  and  C_32
REMARK                            x       y       z     vdW  Elec       q    Type
REMARK                         _______ _______ _______ _____ _____    ______ ____
ROOT
ATOM      1  N   UNL     1       3.842   5.642  18.758  0.00  0.00    +0.000 N 
ATOM      2  C   UNL     1       3.742   4.421  19.424  0.00  0.00    +0.000 A 
ATOM      3  O   UNL     1       4.453   3.436  19.253  0.00  0.00    +0.000 OA
ATOM      4  C   UNL     1       2.672   4.354  20.500  0.00  0.00    +0.000 A 
ATOM      5  N   UNL     1       1.899   5.339  20.829  0.00  0.00    +0.000 NA
ATOM      6  C   UNL     1       2.035   6.521  20.086  0.00  0.00    +0.000 A 
ATOM      7  C   UNL     1       1.210   7.594  20.324  0.00  0.00    +0.000 A 
ATOM      8  N   UNL     1       1.236   8.740  19.620  0.00  0.00    +0.000 NA
ATOM      9  C   UNL     1       2.102   8.821  18.599  0.00  0.00    +0.000 A 
ATOM     10  N   UNL     1       2.113   9.956  17.788  0.00  0.00    +0.000 N 
ATOM     11  N   UNL     1       2.957   7.839  18.295  0.00  0.00    +0.000 NA
ATOM     12  C   UNL     1       2.942   6.712  19.052  0.00  0.00    +0.000 A 
ATOM     13  H   UNL     1       2.757   9.840  17.017  0.00  0.00    +0.000 HD
ENDROOT
BRANCH   1  18
ATOM     14  C   UNL     1       5.574   5.143  15.470  0.00  0.00    +0.000 A 
ATOM     15  C   UNL     1       6.672   5.984  15.651  0.00  0.00    +0.000 A 
ATOM     16  C   UNL     1       6.799   6.756  16.807  0.00  0.00    +0.000 A 
ATOM     17  C   UNL     1       5.836   6.680  17.809  0.00  0.00    +0.000 A 
ATOM     18  C   UNL     1       4.744   5.816  17.668  0.00  0.00    +0.000 A 
ATOM     19  C   UNL     1       4.596   5.088  16.472  0.00  0.00    +0.000 A 
BRANCH  14  22
ATOM     20  C   UNL     1       6.319   4.193  13.305  0.00  0.00    +0.000 C 
ATOM     21  O   UNL     1       7.427   4.710  13.237  0.00  0.00    +0.000 OA
ATOM     22  N   UNL     1       5.403   4.328  14.328  0.00  0.00    +0.000 N 
ATOM     23  H   UNL     1       4.596   3.719  14.328  0.00  0.00    +0.000 HD
BRANCH  20  25
ATOM     24  C   UNL     1       4.563   3.271  11.879  0.00  0.00    +0.000 C 
ATOM     25  C   UNL     1       5.853   3.259  12.238  0.00  0.00    +0.000 C 
ENDBRANCH  20  25
ENDBRANCH  14  22
ENDBRANCH   1  18
BRANCH  10  26
ATOM     26  C   UNL     1       1.897  11.286  18.187  0.00  0.00    +0.000 A 
ATOM     27  C   UNL     1       2.831  12.288  17.917  0.00  0.00    +0.000 A 
ATOM     28  C   UNL     1       2.635  13.596  18.346  0.00  0.00    +0.000 A 
ATOM     29  C   UNL     1       1.494  13.946  19.073  0.00  0.00    +0.000 A 
ATOM     30  C   UNL     1       0.551  12.955  19.350  0.00  0.00    +0.000 A 
ATOM     31  C   UNL     1       0.746  11.638  18.901  0.00  0.00    +0.000 A 
BRANCH  29  32
ATOM     32  O   UNL     1       1.223  15.207  19.546  0.00  0.00    +0.000 OA
BRANCH  32  33
ATOM     33  C   UNL     1       0.566  16.059  18.602  0.00  0.00    +0.000 C 
BRANCH  33  34
ATOM     34  C   UNL     1       1.117  17.477  18.628  0.00  0.00    +0.000 C 
BRANCH  34  35
ATOM     35  O   UNL     1       2.524  17.386  18.384  0.00  0.00    +0.000 OA
ATOM     36  C   UNL     1       2.816  17.068  17.033  0.00  0.00    +0.000 C 
ENDBRANCH  34  35
ENDBRANCH  33  34
ENDBRANCH  32  33
ENDBRANCH  29  32
ENDBRANCH  10  26
BRANCH   4  37
ATOM     37  C   UNL     1       2.555   3.065  21.224  0.00  0.00    +0.000 C 
ATOM     38  C   UNL     1       1.263   2.645  21.891  0.00  0.00    +0.000 C 
ATOM     39  C   UNL     1       1.712   1.953  20.640  0.00  0.00    +0.000 C 
ENDBRANCH   4  37
TORSDOF 9
ENDMDL
MODEL 3
REMARK VINA RESULT:      -7.1      3.663     10.509
REMARK  Name = 
REMARK  10 active torsions:
REMARK  status: ('A' for Active; 'I' for Inactive)
REMARK    1  A    between atoms: C_2  and  C_3
REMARK    2  A    between atoms: N_5  and  C_6
REMARK    3  A    between atoms: C_10  and  N_11
REMARK    4  A    between atoms: C_14  and  C_15
REMARK    5  A    between atoms: N_23  and  C_24
REMARK    6  A    between atoms: C_27  and  O_28
REMARK    7  A    between atoms: O_28  and  C_29
REMARK    8  A    between atoms: C_29  and  C_30
REMARK    9  A    between atoms: C_30  and  O_31
REMARK   10  A    between atoms: O_31  and  C_32
REMARK                            x       y       z     vdW  Elec       q    Type
REMARK                         _______ _______ _______ _____ _____    ______ ____
ROOT
ATOM      1  N   UNL     1       3.849   5.576  18.845  0.00  0.00    +0.000 N 
ATOM      2  C   UNL     1       3.760   4.360  19.521  0.00  0.00    +0.000 A 
ATOM      3  O   UNL     1       4.485   3.383  19.364  0.00  0.00    +0.000 OA
ATOM      4  C   UNL     1       2.685   4.289  20.591  0.00  0.00    +0.000 A 
ATOM      5  N   UNL     1       1.897   5.267  20.906  0.00  0.00    +0.000 NA
ATOM      6  C   UNL     1       2.022   6.443  20.154  0.00  0.00    +0.000 A 
ATOM      7  C   UNL     1       1.183   7.508  20.377  0.00  0.00    +0.000 A 
ATOM      8  N   UNL     1       1.198   8.648  19.663  0.00  0.00    +0.000 NA
ATOM      9  C   UNL     1       2.070   8.731  18.647  0.00  0.00    +0.000 A 
ATOM     10  N   UNL     1       2.071   9.859  17.826  0.00  0.00    +0.000 N 
ATOM     11  N   UNL     1       2.939   7.758  18.357  0.00  0.00    +0.000 NA
ATOM     12  C   UNL     1       2.933   6.637  19.124  0.00  0.00    +0.000 A 
ATOM     13  H   UNL     1       2.721   9.744  17.060  0.00  0.00    +0.000 HD
ENDROOT
BRANCH   1  18
ATOM     14  C   UNL     1       5.590   5.087  15.561  0.00  0.00    +0.000 A 
ATOM     15  C   UNL     1       6.691   5.922  15.750  0.00  0.00    +0.000 A 
ATOM     16  C   UNL     1       6.818   6.687  16.911  0.00  0.00    +0.000 A 
ATOM     17  C   UNL     1       5.850   6.610  17.909  0.00  0.00    +0.000 A 
ATOM     18  C   UNL     1       4.756   5.752  17.760  0.00  0.00    +0.000 A 
ATOM     19  C   UNL     1       4.608   5.031  16.559  0.00  0.00    +0.000 A 
BRANCH  14  22
ATOM     20  C   UNL     1       6.306   4.200  13.359  0.00  0.00    +0.000 C 
ATOM     21  O   UNL     1       7.386   4.770  13.263  0.00  0.00    +0.000 OA
ATOM     22  N   UNL     1       5.420   4.280  14.413  0.00  0.00    +0.000 N 
ATOM     23  H   UNL     1       4.642   3.633  14.431  0.00  0.00    +0.000 HD
BRANCH  20  25
ATOM     24  C   UNL     1       4.610   3.384  11.802  0.00  0.00    +0.000 C 
ATOM     25  C   UNL     1       5.850   3.259  12.295  0.00  0.00    +0.000 C 
ENDBRANCH  20  25
ENDBRANCH  14  22
ENDBRANCH   1  18
BRANCH  10  26
ATOM     26  C   UNL     1       1.836  11.190  18.211  0.00  0.00    +0.000 A 
ATOM     27  C   UNL     1       0.674  11.556  18.894  0.00  0.00    +0.000 A 
ATOM     28  C   UNL     1       0.423  12.878  19.241  0.00  0.00    +0.000 A 
ATOM     29  C   UNL     1       1.328  13.888  18.905  0.00  0.00    +0.000 A 
ATOM     30  C   UNL     1       2.495  13.538  18.222  0.00  0.00    +0.000 A 
ATOM     31  C   UNL     1       2.751  12.198  17.888  0.00  0.00    +0.000 A 
BRANCH  29  32
ATOM     32  O   UNL     1       1.159  15.221  19.196  0.00  0.00    +0.000 OA
BRANCH  32  33
ATOM     33  C   UNL     1       0.009  15.812  18.585  0.00  0.00    +0.000 C 
BRANCH  33  34
ATOM     34  C   UNL     1      -0.735  16.738  19.537  0.00  0.00    +0.000 C 
BRANCH  34  35
ATOM     35  O   UNL     1      -1.281  17.800  18.749  0.00  0.00    +0.000 OA
ATOM     36  C   UNL     1      -0.627  17.933  17.498  0.00  0.00    +0.000 C 
ENDBRANCH  34  35
ENDBRANCH  33  34
ENDBRANCH  32  33
ENDBRANCH  29  32
ENDBRANCH  10  26
BRANCH   4  37
ATOM     37  C   UNL     1       2.579   3.005  21.326  0.00  0.00    +0.000 C 
ATOM     38  C   UNL     1       1.290   2.577  21.994  0.00  0.00    +0.000 C 
ATOM     39  C   UNL     1       1.750   1.879  20.749  0.00  0.00    +0.000 C 
ENDBRANCH   4  37
TORSDOF 9
ENDMDL
MODEL 4
REMARK VINA RESULT:      -7.0      3.478     10.239
REMARK  Name = 
REMARK  10 active torsions:
REMARK  status: ('A' for Active; 'I' for Inactive)
REMARK    1  A    between atoms: C_2  and  C_3
REMARK    2  A    between atoms: N_5  and  C_6
REMARK    3  A    between atoms: C_10  and  N_11
REMARK    4  A    between atoms: C_14  and  C_15
REMARK    5  A    between atoms: N_23  and  C_24
REMARK    6  A    between atoms: C_27  and  O_28
REMARK    7  A    between atoms: O_28  and  C_29
REMARK    8  A    between atoms: C_29  and  C_30
REMARK    9  A    between atoms: C_30  and  O_31
REMARK   10  A    between atoms: O_31  and  C_32
REMARK                            x       y       z     vdW  Elec       q    Type
REMARK                         _______ _______ _______ _____ _____    ______ ____
ROOT
ATOM      1  N   UNL     1       3.896   5.610  18.769  0.00  0.00    +0.000 N 
ATOM      2  C   UNL     1       3.804   4.398  19.451  0.00  0.00    +0.000 A 
ATOM      3  O   UNL     1       4.523   3.416  19.295  0.00  0.00    +0.000 OA
ATOM      4  C   UNL     1       2.732   4.336  20.526  0.00  0.00    +0.000 A 
ATOM      5  N   UNL     1       1.951   5.319  20.840  0.00  0.00    +0.000 NA
ATOM      6  C   UNL     1       2.078   6.492  20.081  0.00  0.00    +0.000 A 
ATOM      7  C   UNL     1       1.244   7.561  20.303  0.00  0.00    +0.000 A 
ATOM      8  N   UNL     1       1.262   8.699  19.583  0.00  0.00    +0.000 NA
ATOM      9  C   UNL     1       2.130   8.772  18.563  0.00  0.00    +0.000 A 
ATOM     10  N   UNL     1       2.134   9.897  17.737  0.00  0.00    +0.000 N 
ATOM     11  N   UNL     1       2.994   7.794  18.274  0.00  0.00    +0.000 NA
ATOM     12  C   UNL     1       2.986   6.677  19.047  0.00  0.00    +0.000 A 
ATOM     13  H   UNL     1       2.780   9.775  16.969  0.00  0.00    +0.000 HD
ENDROOT
BRANCH   1  18
ATOM     14  C   UNL     1       5.621   5.098  15.480  0.00  0.00    +0.000 A 
ATOM     15  C   UNL     1       6.727   5.929  15.662  0.00  0.00    +0.000 A 
ATOM     16  C   UNL     1       6.863   6.698  16.818  0.00  0.00    +0.000 A 
ATOM     17  C   UNL     1       5.899   6.630  17.820  0.00  0.00    +0.000 A 
ATOM     18  C   UNL     1       4.799   5.777  17.680  0.00  0.00    +0.000 A 
ATOM     19  C   UNL     1       4.643   5.052  16.482  0.00  0.00    +0.000 A 
BRANCH  14  22
ATOM     20  C   UNL     1       6.333   4.184  13.288  0.00  0.00    +0.000 C 
ATOM     21  O   UNL     1       7.424   4.733  13.194  0.00  0.00    +0.000 OA
ATOM     22  N   UNL     1       5.442   4.287  14.337  0.00  0.00    +0.000 N 
ATOM     23  H   UNL     1       4.653   3.655  14.354  0.00  0.00    +0.000 HD
BRANCH  20  25
ATOM     24  C   UNL     1       4.608   3.347  11.775  0.00  0.00    +0.000 C 
ATOM     25  C   UNL     1       5.865   3.245  12.227  0.00  0.00    +0.000 C 
ENDBRANCH  20  25
ENDBRANCH  14  22
ENDBRANCH   1  18
BRANCH  10  26
ATOM     26  C   UNL     1       1.906  11.230  18.117  0.00  0.00    +0.000 A 
ATOM     27  C   UNL     1       2.851  12.228  17.875  0.00  0.00    +0.000 A 
ATOM     28  C   UNL     1       2.642  13.540  18.286  0.00  0.00    +0.000 A 
ATOM     29  C   UNL     1       1.476  13.897  18.967  0.00  0.00    +0.000 A 
ATOM     30  C   UNL     1       0.521  12.910  19.217  0.00  0.00    +0.000 A 
ATOM     31  C   UNL     1       0.730  11.589  18.786  0.00  0.00    +0.000 A 
BRANCH  29  32
ATOM     32  O   UNL     1       1.190  15.163  19.420  0.00  0.00    +0.000 OA
BRANCH  32  33
ATOM     33  C   UNL     1       0.305  15.198  20.543  0.00  0.00    +0.000 C 
BRANCH  33  34
ATOM     34  C   UNL     1       1.031  15.542  21.836  0.00  0.00    +0.000 C 
BRANCH  34  35
ATOM     35  O   UNL     1       0.328  14.891  22.899  0.00  0.00    +0.000 OA
ATOM     36  C   UNL     1      -1.025  15.310  22.984  0.00  0.00    +0.000 C 
ENDBRANCH  34  35
ENDBRANCH  33  34
ENDBRANCH  32  33
ENDBRANCH  29  32
ENDBRANCH  10  26
BRANCH   4  37
ATOM     37  C   UNL     1       2.624   3.056  21.267  0.00  0.00    +0.000 C 
ATOM     38  C   UNL     1       1.327   2.623  21.916  0.00  0.00    +0.000 C 
ATOM     39  C   UNL     1       1.812   1.921  20.684  0.00  0.00    +0.000 C 
ENDBRANCH   4  37
TORSDOF 9
ENDMDL
MODEL 5
REMARK VINA RESULT:      -6.9      2.832      6.303
REMARK  Name = 
REMARK  10 active torsions:
REMARK  status: ('A' for Active; 'I' for Inactive)
REMARK    1  A    between atoms: C_2  and  C_3
REMARK    2  A    between atoms: N_5  and  C_6
REMARK    3  A    between atoms: C_10  and  N_11
REMARK    4  A    between atoms: C_14  and  C_15
REMARK    5  A    between atoms: N_23  and  C_24
REMARK    6  A    between atoms: C_27  and  O_28
REMARK    7  A    between atoms: O_28  and  C_29
REMARK    8  A    between atoms: C_29  and  C_30
REMARK    9  A    between atoms: C_30  and  O_31
REMARK   10  A    between atoms: O_31  and  C_32
REMARK                            x       y       z     vdW  Elec       q    Type
REMARK                         _______ _______ _______ _____ _____    ______ ____
ROOT
ATOM      1  N   UNL     1      -0.341  13.930  20.159  0.00  0.00    +0.000 N 
ATOM      2  C   UNL     1      -0.195  15.307  19.999  0.00  0.00    +0.000 A 
ATOM      3  O   UNL     1      -0.867  16.179  20.540  0.00  0.00    +0.000 OA
ATOM      4  C   UNL     1       0.953  15.740  19.104  0.00  0.00    +0.000 A 
ATOM      5  N   UNL     1       1.779  14.928  18.526  0.00  0.00    +0.000 NA
ATOM      6  C   UNL     1       1.542  13.557  18.703  0.00  0.00    +0.000 A 
ATOM      7  C   UNL     1       2.330  12.625  18.073  0.00  0.00    +0.000 A 
ATOM      8  N   UNL     1       2.136  11.295  18.143  0.00  0.00    +0.000 NA
ATOM      9  C   UNL     1       1.081  10.860  18.850  0.00  0.00    +0.000 A 
ATOM     10  N   UNL     1       0.788   9.496  18.888  0.00  0.00    +0.000 N 
ATOM     11  N   UNL     1       0.263  11.684  19.512  0.00  0.00    +0.000 NA
ATOM     12  C   UNL     1       0.511  13.019  19.462  0.00  0.00    +0.000 A 
ATOM     13  H   UNL     1      -0.075   9.329  19.388  0.00  0.00    +0.000 HD
ENDROOT
BRANCH   1  18
ATOM     14  C   UNL     1      -3.777  12.729  21.058  0.00  0.00    +0.000 A 
ATOM     15  C   UNL     1      -3.616  12.560  22.433  0.00  0.00    +0.000 A 
ATOM     16  C   UNL     1      -2.377  12.770  23.040  0.00  0.00    +0.000 A 
ATOM     17  C   UNL     1      -1.284  13.171  22.277  0.00  0.00    +0.000 A 
ATOM     18  C   UNL     1      -1.427  13.384  20.902  0.00  0.00    +0.000 A 
ATOM     19  C   UNL     1      -2.667  13.112  20.292  0.00  0.00    +0.000 A 
BRANCH  14  22
ATOM     20  C   UNL     1      -6.189  12.156  21.001  0.00  0.00    +0.000 C 
ATOM     21  O   UNL     1      -6.367  11.950  22.195  0.00  0.00    +0.000 OA
ATOM     22  N   UNL     1      -5.012  12.546  20.395  0.00  0.00    +0.000 N 
ATOM     23  H   UNL     1      -5.048  12.834  19.426  0.00  0.00    +0.000 HD
BRANCH  20  25
ATOM     24  C   UNL     1      -7.068  12.094  18.723  0.00  0.00    +0.000 C 
ATOM     25  C   UNL     1      -7.323  12.052  20.037  0.00  0.00    +0.000 C 
ENDBRANCH  20  25
ENDBRANCH  14  22
ENDBRANCH   1  18
BRANCH  10  26
ATOM     26  C   UNL     1       1.705   8.432  18.912  0.00  0.00    +0.000 A 
ATOM     27  C   UNL     1       2.562   8.184  17.838  0.00  0.00    +0.000 A 
ATOM     28  C   UNL     1       3.442   7.108  17.846  0.00  0.00    +0.000 A 
ATOM     29  C   UNL     1       3.487   6.231  18.932  0.00  0.00    +0.000 A 
ATOM     30  C   UNL     1       2.637   6.465  20.014  0.00  0.00    +0.000 A 
ATOM     31  C   UNL     1       1.760   7.563  20.009  0.00  0.00    +0.000 A 
BRANCH  29  32
ATOM     32  O   UNL     1       4.314   5.137  19.022  0.00  0.00    +0.000 OA
BRANCH  32  33
ATOM     33  C   UNL     1       3.649   3.883  18.847  0.00  0.00    +0.000 C 
BRANCH  33  34
ATOM     34  C   UNL     1       3.559   3.479  17.383  0.00  0.00    +0.000 C 
BRANCH  34  35
ATOM     35  O   UNL     1       2.249   2.942  17.174  0.00  0.00    +0.000 OA
ATOM     36  C   UNL     1       1.622   2.566  18.390  0.00  0.00    +0.000 C 
ENDBRANCH  34  35
ENDBRANCH  33  34
ENDBRANCH  32  33
ENDBRANCH  29  32
ENDBRANCH  10  26
BRANCH   4  37
ATOM     37  C   UNL     1       1.128  17.202  18.928  0.00  0.00    +0.000 C 
ATOM     38  C   UNL     1       1.482  17.802  17.584  0.00  0.00    +0.000 C 
ATOM     39  C   UNL     1       0.103  17.989  18.141  0.00  0.00    +0.000 C 
ENDBRANCH   4  37
TORSDOF 9
ENDMDL
MODEL 6
REMARK VINA RESULT:      -6.9      0.747      1.105
REMARK  Name = 
REMARK  10 active torsions:
REMARK  status: ('A' for Active; 'I' for Inactive)
REMARK    1  A    between atoms: C_2  and  C_3
REMARK    2  A    between atoms: N_5  and  C_6
REMARK    3  A    between atoms: C_10  and  N_11
REMARK    4  A    between atoms: C_14  and  C_15
REMARK    5  A    between atoms: N_23  and  C_24
REMARK    6  A    between atoms: C_27  and  O_28
REMARK    7  A    between atoms: O_28  and  C_29
REMARK    8  A    between atoms: C_29  and  C_30
REMARK    9  A    between atoms: C_30  and  O_31
REMARK   10  A    between atoms: O_31  and  C_32
REMARK                            x       y       z     vdW  Elec       q    Type
REMARK                         _______ _______ _______ _____ _____    ______ ____
ROOT
ATOM      1  N   UNL     1       0.366  12.417  21.237  0.00  0.00    +0.000 N 
ATOM      2  C   UNL     1      -0.466  13.274  21.955  0.00  0.00    +0.000 A 
ATOM      3  O   UNL     1      -0.504  14.497  21.868  0.00  0.00    +0.000 OA
ATOM      4  C   UNL     1      -1.451  12.593  22.889  0.00  0.00    +0.000 A 
ATOM      5  N   UNL     1      -1.564  11.310  23.027  0.00  0.00    +0.000 NA
ATOM      6  C   UNL     1      -0.664  10.517  22.301  0.00  0.00    +0.000 A 
ATOM      7  C   UNL     1      -0.671   9.150  22.438  0.00  0.00    +0.000 A 
ATOM      8  N   UNL     1       0.194   8.323  21.823  0.00  0.00    +0.000 NA
ATOM      9  C   UNL     1       1.143   8.878  21.054  0.00  0.00    +0.000 A 
ATOM     10  N   UNL     1       2.113   8.071  20.459  0.00  0.00    +0.000 N 
ATOM     11  N   UNL     1       1.226  10.196  20.844  0.00  0.00    +0.000 NA
ATOM     12  C   UNL     1       0.310  11.003  21.440  0.00  0.00    +0.000 A 
ATOM     13  H   UNL     1       2.804   8.634  19.980  0.00  0.00    +0.000 HD
ENDROOT
BRANCH   1  18
ATOM     14  C   UNL     1       3.469  14.179  20.087  0.00  0.00    +0.000 A 
ATOM     15  C   UNL     1       3.265  14.140  18.707  0.00  0.00    +0.000 A 
ATOM     16  C   UNL     1       2.161  13.482  18.166  0.00  0.00    +0.000 A 
ATOM     17  C   UNL     1       1.232  12.868  19.002  0.00  0.00    +0.000 A 
ATOM     18  C   UNL     1       1.394  12.925  20.390  0.00  0.00    +0.000 A 
ATOM     19  C   UNL     1       2.543  13.540  20.922  0.00  0.00    +0.000 A 
BRANCH  14  22
ATOM     20  C   UNL     1       4.844  14.845  22.040  0.00  0.00    +0.000 C 
ATOM     21  O   UNL     1       4.236  14.246  22.918  0.00  0.00    +0.000 OA
ATOM     22  N   UNL     1       4.561  14.845  20.690  0.00  0.00    +0.000 N 
ATOM     23  H   UNL     1       5.239  15.253  20.061  0.00  0.00    +0.000 HD
BRANCH  20  25
ATOM     24  C   UNL     1       6.733  16.246  21.382  0.00  0.00    +0.000 C 
ATOM     25  C   UNL     1       6.065  15.637  22.370  0.00  0.00    +0.000 C 
ENDBRANCH  20  25
ENDBRANCH  14  22
ENDBRANCH   1  18
BRANCH  10  26
ATOM     26  C   UNL     1       1.939   6.777  19.942  0.00  0.00    +0.000 A 
ATOM     27  C   UNL     1       1.502   5.723  20.746  0.00  0.00    +0.000 A 
ATOM     28  C   UNL     1       1.366   4.434  20.243  0.00  0.00    +0.000 A 
ATOM     29  C   UNL     1       1.676   4.152  18.910  0.00  0.00    +0.000 A 
ATOM     30  C   UNL     1       2.115   5.195  18.093  0.00  0.00    +0.000 A 
ATOM     31  C   UNL     1       2.235   6.499  18.602  0.00  0.00    +0.000 A 
BRANCH  29  32
ATOM     32  O   UNL     1       1.584   2.909  18.331  0.00  0.00    +0.000 OA
BRANCH  32  33
ATOM     33  C   UNL     1       2.301   1.884  19.025  0.00  0.00    +0.000 C 
BRANCH  33  34
ATOM     34  C   UNL     1       3.605   1.523  18.328  0.00  0.00    +0.000 C 
BRANCH  34  35
ATOM     35  O   UNL     1       4.623   1.487  19.333  0.00  0.00    +0.000 OA
ATOM     36  C   UNL     1       4.278   2.253  20.476  0.00  0.00    +0.000 C 
ENDBRANCH  34  35
ENDBRANCH  33  34
ENDBRANCH  32  33
ENDBRANCH  29  32
ENDBRANCH  10  26
BRANCH   4  37
ATOM     37  C   UNL     1      -2.350  13.488  23.656  0.00  0.00    +0.000 C 
ATOM     38  C   UNL     1      -3.683  13.940  23.100  0.00  0.00    +0.000 C 
ATOM     39  C   UNL     1      -3.644  12.945  24.221  0.00  0.00    +0.000 C 
ENDBRANCH   4  37
TORSDOF 9
ENDMDL
MODEL 7
REMARK VINA RESULT:      -6.8      2.582      6.067
REMARK  Name = 
REMARK  10 active torsions:
REMARK  status: ('A' for Active; 'I' for Inactive)
REMARK    1  A    between atoms: C_2  and  C_3
REMARK    2  A    between atoms: N_5  and  C_6
REMARK    3  A    between atoms: C_10  and  N_11
REMARK    4  A    between atoms: C_14  and  C_15
REMARK    5  A    between atoms: N_23  and  C_24
REMARK    6  A    between atoms: C_27  and  O_28
REMARK    7  A    between atoms: O_28  and  C_29
REMARK    8  A    between atoms: C_29  and  C_30
REMARK    9  A    between atoms: C_30  and  O_31
REMARK   10  A    between atoms: O_31  and  C_32
REMARK                            x       y       z     vdW  Elec       q    Type
REMARK                         _______ _______ _______ _____ _____    ______ ____
ROOT
ATOM      1  N   UNL     1      -0.095  13.744  20.213  0.00  0.00    +0.000 N 
ATOM      2  C   UNL     1       0.048  15.116  20.009  0.00  0.00    +0.000 A 
ATOM      3  O   UNL     1      -0.576  16.008  20.574  0.00  0.00    +0.000 OA
ATOM      4  C   UNL     1       1.132  15.516  19.023  0.00  0.00    +0.000 A 
ATOM      5  N   UNL     1       1.909  14.682  18.408  0.00  0.00    +0.000 NA
ATOM      6  C   UNL     1       1.675  13.319  18.636  0.00  0.00    +0.000 A 
ATOM      7  C   UNL     1       2.409  12.364  17.975  0.00  0.00    +0.000 A 
ATOM      8  N   UNL     1       2.210  11.038  18.093  0.00  0.00    +0.000 NA
ATOM      9  C   UNL     1       1.206  10.631  18.883  0.00  0.00    +0.000 A 
ATOM     10  N   UNL     1       0.907   9.271  18.977  0.00  0.00    +0.000 N 
ATOM     11  N   UNL     1       0.444  11.478  19.581  0.00  0.00    +0.000 NA
ATOM     12  C   UNL     1       0.698  12.809  19.480  0.00  0.00    +0.000 A 
ATOM     13  H   UNL     1       0.081   9.124  19.542  0.00  0.00    +0.000 HD
ENDROOT
BRANCH   1  18
ATOM     14  C   UNL     1      -3.485  12.693  21.423  0.00  0.00    +0.000 A 
ATOM     15  C   UNL     1      -3.194  12.459  22.767  0.00  0.00    +0.000 A 
ATOM     16  C   UNL     1      -1.889  12.576  23.247  0.00  0.00    +0.000 A 
ATOM     17  C   UNL     1      -0.858  12.950  22.390  0.00  0.00    +0.000 A 
ATOM     18  C   UNL     1      -1.130  13.227  21.046  0.00  0.00    +0.000 A 
ATOM     19  C   UNL     1      -2.439  13.047  20.560  0.00  0.00    +0.000 A 
BRANCH  14  22
ATOM     20  C   UNL     1      -5.767  13.570  21.010  0.00  0.00    +0.000 C 
ATOM     21  O   UNL     1      -5.657  14.661  21.556  0.00  0.00    +0.000 OA
ATOM     22  N   UNL     1      -4.790  12.604  20.886  0.00  0.00    +0.000 N 
ATOM     23  H   UNL     1      -4.970  11.820  20.274  0.00  0.00    +0.000 HD
BRANCH  20  25
ATOM     24  C   UNL     1      -7.254  13.585  19.072  0.00  0.00    +0.000 C 
ATOM     25  C   UNL     1      -7.041  13.187  20.334  0.00  0.00    +0.000 C 
ENDBRANCH  20  25
ENDBRANCH  14  22
ENDBRANCH   1  18
BRANCH  10  26
ATOM     26  C   UNL     1       1.816   8.199  18.962  0.00  0.00    +0.000 A 
ATOM     27  C   UNL     1       2.619   7.940  17.850  0.00  0.00    +0.000 A 
ATOM     28  C   UNL     1       3.489   6.857  17.821  0.00  0.00    +0.000 A 
ATOM     29  C   UNL     1       3.579   5.984  18.907  0.00  0.00    +0.000 A 
ATOM     30  C   UNL     1       2.782   6.229  20.027  0.00  0.00    +0.000 A 
ATOM     31  C   UNL     1       1.916   7.334  20.059  0.00  0.00    +0.000 A 
BRANCH  29  32
ATOM     32  O   UNL     1       4.401   4.883  18.962  0.00  0.00    +0.000 OA
BRANCH  32  33
ATOM     33  C   UNL     1       3.749   3.649  18.651  0.00  0.00    +0.000 C 
BRANCH  33  34
ATOM     34  C   UNL     1       3.790   2.669  19.815  0.00  0.00    +0.000 C 
BRANCH  34  35
ATOM     35  O   UNL     1       2.438   2.448  20.228  0.00  0.00    +0.000 OA
ATOM     36  C   UNL     1       2.210   2.860  21.566  0.00  0.00    +0.000 C 
ENDBRANCH  34  35
ENDBRANCH  33  34
ENDBRANCH  32  33
ENDBRANCH  29  32
ENDBRANCH  10  26
BRANCH   4  37
ATOM     37  C   UNL     1       1.305  16.972  18.797  0.00  0.00    +0.000 C 
ATOM     38  C   UNL     1       1.862  17.512  17.499  0.00  0.00    +0.000 C 
ATOM     39  C   UNL     1       0.407  17.688  17.813  0.00  0.00    +0.000 C 
ENDBRANCH   4  37
TORSDOF 9
ENDMDL
MODEL 8
REMARK VINA RESULT:      -6.8      3.402     10.298
REMARK  Name = 
REMARK  10 active torsions:
REMARK  status: ('A' for Active; 'I' for Inactive)
REMARK    1  A    between atoms: C_2  and  C_3
REMARK    2  A    between atoms: N_5  and  C_6
REMARK    3  A    between atoms: C_10  and  N_11
REMARK    4  A    between atoms: C_14  and  C_15
REMARK    5  A    between atoms: N_23  and  C_24
REMARK    6  A    between atoms: C_27  and  O_28
REMARK    7  A    between atoms: O_28  and  C_29
REMARK    8  A    between atoms: C_29  and  C_30
REMARK    9  A    between atoms: C_30  and  O_31
REMARK   10  A    between atoms: O_31  and  C_32
REMARK                            x       y       z     vdW  Elec       q    Type
REMARK                         _______ _______ _______ _____ _____    ______ ____
ROOT
ATOM      1  N   UNL     1       3.824   5.662  18.877  0.00  0.00    +0.000 N 
ATOM      2  C   UNL     1       3.741   4.464  19.586  0.00  0.00    +0.000 A 
ATOM      3  O   UNL     1       4.461   3.480  19.444  0.00  0.00    +0.000 OA
ATOM      4  C   UNL     1       2.681   4.424  20.673  0.00  0.00    +0.000 A 
ATOM      5  N   UNL     1       1.901   5.412  20.973  0.00  0.00    +0.000 NA
ATOM      6  C   UNL     1       2.019   6.569  20.189  0.00  0.00    +0.000 A 
ATOM      7  C   UNL     1       1.186   7.641  20.396  0.00  0.00    +0.000 A 
ATOM      8  N   UNL     1       1.194   8.763  19.652  0.00  0.00    +0.000 NA
ATOM      9  C   UNL     1       2.052   8.816  18.622  0.00  0.00    +0.000 A 
ATOM     10  N   UNL     1       2.045   9.923  17.772  0.00  0.00    +0.000 N 
ATOM     11  N   UNL     1       2.914   7.833  18.345  0.00  0.00    +0.000 NA
ATOM     12  C   UNL     1       2.916   6.732  19.141  0.00  0.00    +0.000 A 
ATOM     13  H   UNL     1       2.684   9.785  17.000  0.00  0.00    +0.000 HD
ENDROOT
BRANCH   1  18
ATOM     14  C   UNL     1       5.444   5.158  15.534  0.00  0.00    +0.000 A 
ATOM     15  C   UNL     1       6.611   5.899  15.722  0.00  0.00    +0.000 A 
ATOM     16  C   UNL     1       6.824   6.610  16.904  0.00  0.00    +0.000 A 
ATOM     17  C   UNL     1       5.877   6.572  17.924  0.00  0.00    +0.000 A 
ATOM     18  C   UNL     1       4.716   5.806  17.775  0.00  0.00    +0.000 A 
ATOM     19  C   UNL     1       4.485   5.142  16.555  0.00  0.00    +0.000 A 
BRANCH  14  22
ATOM     20  C   UNL     1       6.096   4.167  13.357  0.00  0.00    +0.000 C 
ATOM     21  O   UNL     1       7.269   4.518  13.327  0.00  0.00    +0.000 OA
ATOM     22  N   UNL     1       5.185   4.408  14.364  0.00  0.00    +0.000 N 
ATOM     23  H   UNL     1       4.298   3.923  14.330  0.00  0.00    +0.000 HD
BRANCH  20  25
ATOM     24  C   UNL     1       6.269   2.359  11.723  0.00  0.00    +0.000 C 
ATOM     25  C   UNL     1       5.526   3.339  12.253  0.00  0.00    +0.000 C 
ENDBRANCH  20  25
ENDBRANCH  14  22
ENDBRANCH   1  18
BRANCH  10  26
ATOM     26  C   UNL     1       1.819  11.263  18.126  0.00  0.00    +0.000 A 
ATOM     27  C   UNL     1       0.618  11.670  18.710  0.00  0.00    +0.000 A 
ATOM     28  C   UNL     1       0.380  13.003  19.024  0.00  0.00    +0.000 A 
ATOM     29  C   UNL     1       1.338  13.983  18.754  0.00  0.00    +0.000 A 
ATOM     30  C   UNL     1       2.545  13.592  18.170  0.00  0.00    +0.000 A 
ATOM     31  C   UNL     1       2.787  12.241  17.868  0.00  0.00    +0.000 A 
BRANCH  29  32
ATOM     32  O   UNL     1       1.185  15.323  19.019  0.00  0.00    +0.000 OA
BRANCH  32  33
ATOM     33  C   UNL     1       2.379  16.093  18.853  0.00  0.00    +0.000 C 
BRANCH  33  34
ATOM     34  C   UNL     1       2.938  16.579  20.182  0.00  0.00    +0.000 C 
BRANCH  34  35
ATOM     35  O   UNL     1       4.292  16.124  20.261  0.00  0.00    +0.000 OA
ATOM     36  C   UNL     1       5.033  16.436  19.092  0.00  0.00    +0.000 C 
ENDBRANCH  34  35
ENDBRANCH  33  34
ENDBRANCH  32  33
ENDBRANCH  29  32
ENDBRANCH  10  26
BRANCH   4  37
ATOM     37  C   UNL     1       2.582   3.160  21.442  0.00  0.00    +0.000 C 
ATOM     38  C   UNL     1       1.260   2.665  21.987  0.00  0.00    +0.000 C 
ATOM     39  C   UNL     1       1.896   1.961  20.826  0.00  0.00    +0.000 C 
ENDBRANCH   4  37
TORSDOF 9
ENDMDL
MODEL 9
REMARK VINA RESULT:      -6.7      2.719      6.198
REMARK  Name = 
REMARK  10 active torsions:
REMARK  status: ('A' for Active; 'I' for Inactive)
REMARK    1  A    between atoms: C_2  and  C_3
REMARK    2  A    between atoms: N_5  and  C_6
REMARK    3  A    between atoms: C_10  and  N_11
REMARK    4  A    between atoms: C_14  and  C_15
REMARK    5  A    between atoms: N_23  and  C_24
REMARK    6  A    between atoms: C_27  and  O_28
REMARK    7  A    between atoms: O_28  and  C_29
REMARK    8  A    between atoms: C_29  and  C_30
REMARK    9  A    between atoms: C_30  and  O_31
REMARK   10  A    between atoms: O_31  and  C_32
REMARK                            x       y       z     vdW  Elec       q    Type
REMARK                         _______ _______ _______ _____ _____    ______ ____
ROOT
ATOM      1  N   UNL     1       0.110  13.416  20.147  0.00  0.00    +0.000 N 
ATOM      2  C   UNL     1       0.226  14.790  19.938  0.00  0.00    +0.000 A 
ATOM      3  O   UNL     1      -0.394  15.672  20.523  0.00  0.00    +0.000 OA
ATOM      4  C   UNL     1       1.272  15.206  18.919  0.00  0.00    +0.000 A 
ATOM      5  N   UNL     1       2.042  14.384  18.280  0.00  0.00    +0.000 NA
ATOM      6  C   UNL     1       1.836  13.017  18.515  0.00  0.00    +0.000 A 
ATOM      7  C   UNL     1       2.564  12.074  17.831  0.00  0.00    +0.000 A 
ATOM      8  N   UNL     1       2.389  10.745  17.954  0.00  0.00    +0.000 NA
ATOM      9  C   UNL     1       1.416  10.323  18.776  0.00  0.00    +0.000 A 
ATOM     10  N   UNL     1       1.141   8.958  18.879  0.00  0.00    +0.000 N 
ATOM     11  N   UNL     1       0.663  11.158  19.498  0.00  0.00    +0.000 NA
ATOM     12  C   UNL     1       0.893  12.493  19.389  0.00  0.00    +0.000 A 
ATOM     13  H   UNL     1       0.335   8.799  19.469  0.00  0.00    +0.000 HD
ENDROOT
BRANCH   1  18
ATOM     14  C   UNL     1      -3.242  12.555  21.590  0.00  0.00    +0.000 A 
ATOM     15  C   UNL     1      -2.845  12.069  22.836  0.00  0.00    +0.000 A 
ATOM     16  C   UNL     1      -1.493  11.961  23.164  0.00  0.00    +0.000 A 
ATOM     17  C   UNL     1      -0.518  12.358  22.253  0.00  0.00    +0.000 A 
ATOM     18  C   UNL     1      -0.890  12.884  21.012  0.00  0.00    +0.000 A 
ATOM     19  C   UNL     1      -2.255  12.932  20.669  0.00  0.00    +0.000 A 
BRANCH  14  22
ATOM     20  C   UNL     1      -5.267  13.902  21.107  0.00  0.00    +0.000 C 
ATOM     21  O   UNL     1      -4.801  15.021  21.278  0.00  0.00    +0.000 OA
ATOM     22  N   UNL     1      -4.596  12.701  21.211  0.00  0.00    +0.000 N 
ATOM     23  H   UNL     1      -5.063  11.864  20.887  0.00  0.00    +0.000 HD
BRANCH  20  25
ATOM     24  C   UNL     1      -7.435  12.790  21.277  0.00  0.00    +0.000 C 
ATOM     25  C   UNL     1      -6.688  13.730  20.684  0.00  0.00    +0.000 C 
ENDBRANCH  20  25
ENDBRANCH  14  22
ENDBRANCH   1  18
BRANCH  10  26
ATOM     26  C   UNL     1       2.065   7.901  18.835  0.00  0.00    +0.000 A 
ATOM     27  C   UNL     1       2.172   6.983  19.882  0.00  0.00    +0.000 A 
ATOM     28  C   UNL     1       3.112   5.960  19.855  0.00  0.00    +0.000 A 
ATOM     29  C   UNL     1       3.991   5.825  18.778  0.00  0.00    +0.000 A 
ATOM     30  C   UNL     1       3.896   6.735  17.723  0.00  0.00    +0.000 A 
ATOM     31  C   UNL     1       2.934   7.758  17.747  0.00  0.00    +0.000 A 
BRANCH  29  32
ATOM     32  O   UNL     1       4.957   4.854  18.671  0.00  0.00    +0.000 OA
BRANCH  32  33
ATOM     33  C   UNL     1       5.680   4.878  17.437  0.00  0.00    +0.000 C 
BRANCH  33  34
ATOM     34  C   UNL     1       7.180   4.734  17.647  0.00  0.00    +0.000 C 
BRANCH  34  35
ATOM     35  O   UNL     1       7.590   5.807  18.499  0.00  0.00    +0.000 OA
ATOM     36  C   UNL     1       7.638   7.049  17.815  0.00  0.00    +0.000 C 
ENDBRANCH  34  35
ENDBRANCH  33  34
ENDBRANCH  32  33
ENDBRANCH  29  32
ENDBRANCH  10  26
BRANCH   4  37
ATOM     37  C   UNL     1       1.416  16.664  18.689  0.00  0.00    +0.000 C 
ATOM     38  C   UNL     1       2.527  17.464  19.333  0.00  0.00    +0.000 C 
ATOM     39  C   UNL     1       2.572  17.181  17.861  0.00  0.00    +0.000 C 
ENDBRANCH   4  37
TORSDOF 9
ENDMDL
