MODEL 1
REMARK VINA RESULT:      -8.6      0.000      0.000
REMARK  Name = 
REMARK  9 active torsions:
REMARK  status: ('A' for Active; 'I' for Inactive)
REMARK    1  A    between atoms: C_1  and  O_2
REMARK    2  A    between atoms: O_2  and  C_3
REMARK    3  A    between atoms: C_5  and  N_6
REMARK    4  A    between atoms: C_10  and  C_11
REMARK    5  A    between atoms: C_11  and  O_13
REMARK    6  A    between atoms: O_13  and  C_14
REMARK    7  A    between atoms: C_14  and  C_15
REMARK    8  A    between atoms: C_27  and  C_28
REMARK    9  A    between atoms: C_27  and  C_29
REMARK                            x       y       z     vdW  Elec       q    Type
REMARK                         _______ _______ _______ _____ _____    ______ ____
ROOT
ATOM      1  C   UNL     1       2.385   7.336  19.526  0.00  0.00    +0.000 C 
ENDROOT
BRANCH   1   2
ATOM      2  C   UNL     1       1.477   8.099  20.492  0.00  0.00    +0.000 C 
ATOM      3  O   UNL     1       1.235   7.542  21.570  0.00  0.00    +0.000 OA
ATOM      4  N   UNL     1       1.058   9.410  20.163  0.00  0.00    +0.000 N 
ATOM      5  C   UNL     1       0.297  10.196  21.154  0.00  0.00    +0.000 A 
ATOM      6  C   UNL     1      -0.345   9.650  22.277  0.00  0.00    +0.000 A 
ATOM      7  C   UNL     1      -1.060  10.449  23.184  0.00  0.00    +0.000 A 
ATOM      8  C   UNL     1      -1.161  11.817  22.992  0.00  0.00    +0.000 A 
ATOM      9  C   UNL     1      -0.527  12.396  21.901  0.00  0.00    +0.000 A 
ATOM     10  C   UNL     1       0.195  11.595  21.004  0.00  0.00    +0.000 A 
ATOM     11  N   UNL     1       0.860  12.254  19.975  0.00  0.00    +0.000 N 
ATOM     12  C   UNL     1       1.487  11.595  18.963  0.00  0.00    +0.000 C 
ATOM     13  O   UNL     1       2.149  12.249  18.155  0.00  0.00    +0.000 OA
ATOM     14  C   UNL     1       1.122  10.096  18.790  0.00  0.00    +0.000 C 
ATOM     15  C   UNL     1      -0.285  10.022  18.143  0.00  0.00    +0.000 C 
ATOM     16  C   UNL     1       2.106   9.573  17.723  0.00  0.00    +0.000 C 
ATOM     17  H   UNL     1       0.963  13.259  19.986  0.00  0.00    +0.000 HD
ENDBRANCH   1   2
BRANCH   1  18
ATOM     18  O   UNL     1       2.002   5.973  19.308  0.00  0.00    +0.000 OA
BRANCH  18  19
ATOM     19  C   UNL     1       2.896   5.070  19.772  0.00  0.00    +0.000 C 
ATOM     20  O   UNL     1       2.822   4.468  20.833  0.00  0.00    +0.000 OA
BRANCH  19  27
ATOM     21  C   UNL     1       3.977   4.192  17.641  0.00  0.00    +0.000 A 
ATOM     22  C   UNL     1       5.144   4.079  16.864  0.00  0.00    +0.000 A 
ATOM     23  C   UNL     1       6.371   4.596  17.308  0.00  0.00    +0.000 A 
ATOM     24  C   UNL     1       6.401   5.319  18.510  0.00  0.00    +0.000 A 
ATOM     25 CL   UNL     1       7.872   6.021  19.084  0.00  0.00    +0.000 Cl
ATOM     26  C   UNL     1       5.252   5.458  19.286  0.00  0.00    +0.000 A 
ATOM     27  C   UNL     1       4.039   4.910  18.849  0.00  0.00    +0.000 A 
BRANCH  23  28
ATOM     28  N   UNL     1       7.477   4.562  16.438  0.00  0.00    +0.000 N 
ATOM     29  H   UNL     1       7.315   4.086  15.558  0.00  0.00    +0.000 HD
ATOM     30  H   UNL     1       8.333   4.256  16.902  0.00  0.00    +0.000 HD
ENDBRANCH  23  28
BRANCH  21  32
ATOM     31  C   UNL     1       2.564   2.266  17.561  0.00  0.00    +0.000 C 
ATOM     32  O   UNL     1       2.776   3.642  17.277  0.00  0.00    +0.000 OA
ENDBRANCH  21  32
ENDBRANCH  19  27
ENDBRANCH  18  19
ENDBRANCH   1  18
TORSDOF 6
ENDMDL
MODEL 2
REMARK VINA RESULT:      -8.5      3.026      8.310
REMARK  Name = 
REMARK  9 active torsions:
REMARK  status: ('A' for Active; 'I' for Inactive)
REMARK    1  A    between atoms: C_1  and  O_2
REMARK    2  A    between atoms: O_2  and  C_3
REMARK    3  A    between atoms: C_5  and  N_6
REMARK    4  A    between atoms: C_10  and  C_11
REMARK    5  A    between atoms: C_11  and  O_13
REMARK    6  A    between atoms: O_13  and  C_14
REMARK    7  A    between atoms: C_14  and  C_15
REMARK    8  A    between atoms: C_27  and  C_28
REMARK    9  A    between atoms: C_27  and  C_29
REMARK                            x       y       z     vdW  Elec       q    Type
REMARK                         _______ _______ _______ _____ _____    ______ ____
ROOT
ATOM      1  C   UNL     1       1.597   7.308  20.353  0.00  0.00    +0.000 C 
ENDROOT
BRANCH   1   2
ATOM      2  C   UNL     1       2.517   7.106  19.148  0.00  0.00    +0.000 C 
ATOM      3  O   UNL     1       2.880   8.131  18.560  0.00  0.00    +0.000 OA
ATOM      4  N   UNL     1       2.981   5.805  18.838  0.00  0.00    +0.000 N 
ATOM      5  C   UNL     1       3.976   5.630  17.762  0.00  0.00    +0.000 A 
ATOM      6  C   UNL     1       4.264   6.594  16.783  0.00  0.00    +0.000 A 
ATOM      7  C   UNL     1       5.219   6.367  15.778  0.00  0.00    +0.000 A 
ATOM      8  C   UNL     1       5.909   5.167  15.719  0.00  0.00    +0.000 A 
ATOM      9  C   UNL     1       5.662   4.195  16.678  0.00  0.00    +0.000 A 
ATOM     10  C   UNL     1       4.715   4.431  17.685  0.00  0.00    +0.000 A 
ATOM     11  N   UNL     1       4.572   3.440  18.651  0.00  0.00    +0.000 N 
ATOM     12  C   UNL     1       3.603   3.477  19.606  0.00  0.00    +0.000 C 
ATOM     13  O   UNL     1       3.616   2.621  20.492  0.00  0.00    +0.000 OA
ATOM     14  C   UNL     1       2.434   4.468  19.360  0.00  0.00    +0.000 C 
ATOM     15  C   UNL     1       1.517   3.858  18.268  0.00  0.00    +0.000 C 
ATOM     16  C   UNL     1       1.612   4.438  20.666  0.00  0.00    +0.000 C 
ATOM     17  H   UNL     1       5.239   2.683  18.720  0.00  0.00    +0.000 HD
ENDBRANCH   1   2
BRANCH   1  18
ATOM     18  O   UNL     1       1.712   8.594  20.974  0.00  0.00    +0.000 OA
BRANCH  18  19
ATOM     19  C   UNL     1       0.525   9.165  21.280  0.00  0.00    +0.000 C 
ATOM     20  O   UNL     1      -0.157   8.920  22.263  0.00  0.00    +0.000 OA
BRANCH  19  27
ATOM     21  C   UNL     1       0.532  11.462  20.180  0.00  0.00    +0.000 A 
ATOM     22  C   UNL     1       0.025  12.290  19.163  0.00  0.00    +0.000 A 
ATOM     23  C   UNL     1      -0.952  11.832  18.266  0.00  0.00    +0.000 A 
ATOM     24  C   UNL     1      -1.357  10.491  18.339  0.00  0.00    +0.000 A 
ATOM     25 CL   UNL     1      -2.522   9.857  17.232  0.00  0.00    +0.000 Cl
ATOM     26  C   UNL     1      -0.855   9.649  19.329  0.00  0.00    +0.000 A 
ATOM     27  C   UNL     1       0.098  10.125  20.240  0.00  0.00    +0.000 A 
BRANCH  23  28
ATOM     28  N   UNL     1      -1.333  12.662  17.195  0.00  0.00    +0.000 N 
ATOM     29  H   UNL     1      -2.290  12.993  17.230  0.00  0.00    +0.000 HD
ATOM     30  H   UNL     1      -1.083  12.270  16.286  0.00  0.00    +0.000 HD
ENDBRANCH  23  28
BRANCH  21  32
ATOM     31  C   UNL     1       2.123  13.108  20.868  0.00  0.00    +0.000 C 
ATOM     32  O   UNL     1       1.436  11.890  21.118  0.00  0.00    +0.000 OA
ENDBRANCH  21  32
ENDBRANCH  19  27
ENDBRANCH  18  19
ENDBRANCH   1  18
TORSDOF 6
ENDMDL
MODEL 3
REMARK VINA RESULT:      -8.2      3.150      8.770
REMARK  Name = 
REMARK  9 active torsions:
REMARK  status: ('A' for Active; 'I' for Inactive)
REMARK    1  A    between atoms: C_1  and  O_2
REMARK    2  A    between atoms: O_2  and  C_3
REMARK    3  A    between atoms: C_5  and  N_6
REMARK    4  A    between atoms: C_10  and  C_11
REMARK    5  A    between atoms: C_11  and  O_13
REMARK    6  A    between atoms: O_13  and  C_14
REMARK    7  A    between atoms: C_14  and  C_15
REMARK    8  A    between atoms: C_27  and  C_28
REMARK    9  A    between atoms: C_27  and  C_29
REMARK                            x       y       z     vdW  Elec       q    Type
REMARK                         _______ _______ _______ _____ _____    ______ ____
ROOT
ATOM      1  C   UNL     1       2.176   7.706  19.310  0.00  0.00    +0.000 C 
ENDROOT
BRANCH   1   2
ATOM      2  C   UNL     1       3.091   7.202  18.193  0.00  0.00    +0.000 C 
ATOM      3  O   UNL     1       3.605   8.069  17.475  0.00  0.00    +0.000 OA
ATOM      4  N   UNL     1       3.383   5.820  18.104  0.00  0.00    +0.000 N 
ATOM      5  C   UNL     1       4.372   5.353  17.113  0.00  0.00    +0.000 A 
ATOM      6  C   UNL     1       4.813   6.109  16.014  0.00  0.00    +0.000 A 
ATOM      7  C   UNL     1       5.754   5.608  15.099  0.00  0.00    +0.000 A 
ATOM      8  C   UNL     1       6.277   4.333  15.252  0.00  0.00    +0.000 A 
ATOM      9  C   UNL     1       5.876   3.562  16.334  0.00  0.00    +0.000 A 
ATOM     10  C   UNL     1       4.944   4.071  17.250  0.00  0.00    +0.000 A 
ATOM     11  N   UNL     1       4.644   3.269  18.346  0.00  0.00    +0.000 N 
ATOM     12  C   UNL     1       3.665   3.579  19.239  0.00  0.00    +0.000 C 
ATOM     13  O   UNL     1       3.540   2.875  20.243  0.00  0.00    +0.000 OA
ATOM     14  C   UNL     1       2.647   4.662  18.794  0.00  0.00    +0.000 C 
ATOM     15  C   UNL     1       1.684   4.015  17.765  0.00  0.00    +0.000 C 
ATOM     16  C   UNL     1       1.796   4.942  20.050  0.00  0.00    +0.000 C 
ATOM     17  H   UNL     1       5.201   2.452  18.558  0.00  0.00    +0.000 HD
ENDBRANCH   1   2
BRANCH   1  18
ATOM     18  O   UNL     1       1.591   8.990  19.061  0.00  0.00    +0.000 OA
BRANCH  18  19
ATOM     19  C   UNL     1       0.847   9.464  20.086  0.00  0.00    +0.000 C 
ATOM     20  O   UNL     1       1.058   9.272  21.274  0.00  0.00    +0.000 OA
BRANCH  19  27
ATOM     21  C   UNL     1      -0.916  11.286  20.322  0.00  0.00    +0.000 A 
ATOM     22  C   UNL     1      -2.046  11.920  19.775  0.00  0.00    +0.000 A 
ATOM     23  C   UNL     1      -2.625  11.474  18.577  0.00  0.00    +0.000 A 
ATOM     24  C   UNL     1      -2.001  10.432  17.874  0.00  0.00    +0.000 A 
ATOM     25 CL   UNL     1      -2.641   9.871  16.370  0.00  0.00    +0.000 Cl
ATOM     26  C   UNL     1      -0.871   9.802  18.391  0.00  0.00    +0.000 A 
ATOM     27  C   UNL     1      -0.319  10.234  19.604  0.00  0.00    +0.000 A 
BRANCH  23  28
ATOM     28  N   UNL     1      -3.678  12.219  18.013  0.00  0.00    +0.000 N 
ATOM     29  H   UNL     1      -4.050  11.846  17.147  0.00  0.00    +0.000 HD
ATOM     30  H   UNL     1      -3.467  13.216  17.956  0.00  0.00    +0.000 HD
ENDBRANCH  23  28
BRANCH  21  32
ATOM     31  C   UNL     1      -1.192  11.612  22.674  0.00  0.00    +0.000 C 
ATOM     32  O   UNL     1      -0.360  11.645  21.522  0.00  0.00    +0.000 OA
ENDBRANCH  21  32
ENDBRANCH  19  27
ENDBRANCH  18  19
ENDBRANCH   1  18
TORSDOF 6
ENDMDL
MODEL 4
REMARK VINA RESULT:      -8.1      3.063      8.504
REMARK  Name = 
REMARK  9 active torsions:
REMARK  status: ('A' for Active; 'I' for Inactive)
REMARK    1  A    between atoms: C_1  and  O_2
REMARK    2  A    between atoms: O_2  and  C_3
REMARK    3  A    between atoms: C_5  and  N_6
REMARK    4  A    between atoms: C_10  and  C_11
REMARK    5  A    between atoms: C_11  and  O_13
REMARK    6  A    between atoms: O_13  and  C_14
REMARK    7  A    between atoms: C_14  and  C_15
REMARK    8  A    between atoms: C_27  and  C_28
REMARK    9  A    between atoms: C_27  and  C_29
REMARK                            x       y       z     vdW  Elec       q    Type
REMARK                         _______ _______ _______ _____ _____    ______ ____
ROOT
ATOM      1  C   UNL     1       2.178   7.706  19.311  0.00  0.00    +0.000 C 
ENDROOT
BRANCH   1   2
ATOM      2  C   UNL     1       3.091   7.186  18.201  0.00  0.00    +0.000 C 
ATOM      3  O   UNL     1       3.618   8.042  17.480  0.00  0.00    +0.000 OA
ATOM      4  N   UNL     1       3.367   5.800  18.120  0.00  0.00    +0.000 N 
ATOM      5  C   UNL     1       4.355   5.316  17.136  0.00  0.00    +0.000 A 
ATOM      6  C   UNL     1       4.809   6.060  16.035  0.00  0.00    +0.000 A 
ATOM      7  C   UNL     1       5.748   5.543  15.127  0.00  0.00    +0.000 A 
ATOM      8  C   UNL     1       6.255   4.264  15.289  0.00  0.00    +0.000 A 
ATOM      9  C   UNL     1       5.841   3.503  16.373  0.00  0.00    +0.000 A 
ATOM     10  C   UNL     1       4.911   4.028  17.282  0.00  0.00    +0.000 A 
ATOM     11  N   UNL     1       4.597   3.235  18.381  0.00  0.00    +0.000 N 
ATOM     12  C   UNL     1       3.618   3.561  19.268  0.00  0.00    +0.000 C 
ATOM     13  O   UNL     1       3.480   2.865  20.276  0.00  0.00    +0.000 OA
ATOM     14  C   UNL     1       2.614   4.654  18.813  0.00  0.00    +0.000 C 
ATOM     15  C   UNL     1       1.649   4.013  17.783  0.00  0.00    +0.000 C 
ATOM     16  C   UNL     1       1.762   4.950  20.064  0.00  0.00    +0.000 C 
ATOM     17  H   UNL     1       5.143   2.413  18.600  0.00  0.00    +0.000 HD
ENDBRANCH   1   2
BRANCH   1  18
ATOM     18  O   UNL     1       1.447   8.891  18.970  0.00  0.00    +0.000 OA
BRANCH  18  19
ATOM     19  C   UNL     1       0.797   9.456  20.012  0.00  0.00    +0.000 C 
ATOM     20  O   UNL     1       0.566   8.924  21.087  0.00  0.00    +0.000 OA
BRANCH  19  27
ATOM     21  C   UNL     1      -0.826  11.107  18.951  0.00  0.00    +0.000 A 
ATOM     22  C   UNL     1      -1.140  12.450  18.678  0.00  0.00    +0.000 A 
ATOM     23  C   UNL     1      -0.283  13.493  19.060  0.00  0.00    +0.000 A 
ATOM     24  C   UNL     1       0.862  13.184  19.808  0.00  0.00    +0.000 A 
ATOM     25 CL   UNL     1       1.931  14.430  20.348  0.00  0.00    +0.000 Cl
ATOM     26  C   UNL     1       1.183  11.861  20.104  0.00  0.00    +0.000 A 
ATOM     27  C   UNL     1       0.337  10.823  19.691  0.00  0.00    +0.000 A 
BRANCH  23  28
ATOM     28  N   UNL     1      -0.704  14.823  18.870  0.00  0.00    +0.000 N 
ATOM     29  H   UNL     1      -1.576  15.065  19.328  0.00  0.00    +0.000 HD
ATOM     30  H   UNL     1      -0.680  15.107  17.890  0.00  0.00    +0.000 HD
ENDBRANCH  23  28
BRANCH  21  32
ATOM     31  C   UNL     1      -1.878   9.944  17.147  0.00  0.00    +0.000 C 
ATOM     32  O   UNL     1      -1.600  10.054  18.536  0.00  0.00    +0.000 OA
ENDBRANCH  21  32
ENDBRANCH  19  27
ENDBRANCH  18  19
ENDBRANCH   1  18
TORSDOF 6
ENDMDL
MODEL 5
REMARK VINA RESULT:      -8.1      3.118      8.512
REMARK  Name = 
REMARK  9 active torsions:
REMARK  status: ('A' for Active; 'I' for Inactive)
REMARK    1  A    between atoms: C_1  and  O_2
REMARK    2  A    between atoms: O_2  and  C_3
REMARK    3  A    between atoms: C_5  and  N_6
REMARK    4  A    between atoms: C_10  and  C_11
REMARK    5  A    between atoms: C_11  and  O_13
REMARK    6  A    between atoms: O_13  and  C_14
REMARK    7  A    between atoms: C_14  and  C_15
REMARK    8  A    between atoms: C_27  and  C_28
REMARK    9  A    between atoms: C_27  and  C_29
REMARK                            x       y       z     vdW  Elec       q    Type
REMARK                         _______ _______ _______ _____ _____    ______ ____
ROOT
ATOM      1  C   UNL     1       1.746   7.538  20.018  0.00  0.00    +0.000 C 
ENDROOT
BRANCH   1   2
ATOM      2  C   UNL     1       2.664   7.243  18.831  0.00  0.00    +0.000 C 
ATOM      3  O   UNL     1       3.077   8.225  18.202  0.00  0.00    +0.000 OA
ATOM      4  N   UNL     1       3.072   5.910  18.582  0.00  0.00    +0.000 N 
ATOM      5  C   UNL     1       4.066   5.645  17.524  0.00  0.00    +0.000 A 
ATOM      6  C   UNL     1       4.404   6.551  16.506  0.00  0.00    +0.000 A 
ATOM      7  C   UNL     1       5.354   6.239  15.520  0.00  0.00    +0.000 A 
ATOM      8  C   UNL     1       5.990   5.007  15.519  0.00  0.00    +0.000 A 
ATOM      9  C   UNL     1       5.693   4.091  16.518  0.00  0.00    +0.000 A 
ATOM     10  C   UNL     1       4.750   4.412  17.505  0.00  0.00    +0.000 A 
ATOM     11  N   UNL     1       4.556   3.471  18.512  0.00  0.00    +0.000 N 
ATOM     12  C   UNL     1       3.583   3.593  19.455  0.00  0.00    +0.000 C 
ATOM     13  O   UNL     1       3.552   2.777  20.378  0.00  0.00    +0.000 OA
ATOM     14  C   UNL     1       2.462   4.623  19.156  0.00  0.00    +0.000 C 
ATOM     15  C   UNL     1       1.526   4.008  18.083  0.00  0.00    +0.000 C 
ATOM     16  C   UNL     1       1.630   4.687  20.454  0.00  0.00    +0.000 C 
ATOM     17  H   UNL     1       5.188   2.690  18.619  0.00  0.00    +0.000 HD
ENDBRANCH   1   2
BRANCH   1  18
ATOM     18  O   UNL     1       1.387   8.919  20.158  0.00  0.00    +0.000 OA
BRANCH  18  19
ATOM     19  C   UNL     1       0.223   9.120  20.815  0.00  0.00    +0.000 C 
ATOM     20  O   UNL     1      -0.348   8.309  21.528  0.00  0.00    +0.000 OA
BRANCH  19  27
ATOM     21  C   UNL     1      -0.755  10.891  19.268  0.00  0.00    +0.000 A 
ATOM     22  C   UNL     1      -1.233  12.206  19.125  0.00  0.00    +0.000 A 
ATOM     23  C   UNL     1      -1.224  13.108  20.199  0.00  0.00    +0.000 A 
ATOM     24  C   UNL     1      -0.812  12.650  21.460  0.00  0.00    +0.000 A 
ATOM     25 CL   UNL     1      -0.824  13.701  22.831  0.00  0.00    +0.000 Cl
ATOM     26  C   UNL     1      -0.351  11.346  21.627  0.00  0.00    +0.000 A 
ATOM     27  C   UNL     1      -0.334  10.462  20.540  0.00  0.00    +0.000 A 
BRANCH  23  28
ATOM     28  N   UNL     1      -1.826  14.369  20.032  0.00  0.00    +0.000 N 
ATOM     29  H   UNL     1      -2.563  14.403  19.337  0.00  0.00    +0.000 HD
ATOM     30  H   UNL     1      -1.143  15.119  19.922  0.00  0.00    +0.000 HD
ENDBRANCH  23  28
BRANCH  21  32
ATOM     31  C   UNL     1      -1.741  10.001  17.281  0.00  0.00    +0.000 C 
ATOM     32  O   UNL     1      -0.683   9.999  18.230  0.00  0.00    +0.000 OA
ENDBRANCH  21  32
ENDBRANCH  19  27
ENDBRANCH  18  19
ENDBRANCH   1  18
TORSDOF 6
ENDMDL
MODEL 6
REMARK VINA RESULT:      -8.0      2.579      8.312
REMARK  Name = 
REMARK  9 active torsions:
REMARK  status: ('A' for Active; 'I' for Inactive)
REMARK    1  A    between atoms: C_1  and  O_2
REMARK    2  A    between atoms: O_2  and  C_3
REMARK    3  A    between atoms: C_5  and  N_6
REMARK    4  A    between atoms: C_10  and  C_11
REMARK    5  A    between atoms: C_11  and  O_13
REMARK    6  A    between atoms: O_13  and  C_14
REMARK    7  A    between atoms: C_14  and  C_15
REMARK    8  A    between atoms: C_27  and  C_28
REMARK    9  A    between atoms: C_27  and  C_29
REMARK                            x       y       z     vdW  Elec       q    Type
REMARK                         _______ _______ _______ _____ _____    ______ ____
ROOT
ATOM      1  C   UNL     1       1.506   6.880  20.703  0.00  0.00    +0.000 C 
ENDROOT
BRANCH   1   2
ATOM      2  C   UNL     1       2.409   6.814  19.471  0.00  0.00    +0.000 C 
ATOM      3  O   UNL     1       2.686   7.895  18.938  0.00  0.00    +0.000 OA
ATOM      4  N   UNL     1       2.957   5.570  19.076  0.00  0.00    +0.000 N 
ATOM      5  C   UNL     1       3.937   5.529  17.973  0.00  0.00    +0.000 A 
ATOM      6  C   UNL     1       4.134   6.567  17.047  0.00  0.00    +0.000 A 
ATOM      7  C   UNL     1       5.079   6.468  16.013  0.00  0.00    +0.000 A 
ATOM      8  C   UNL     1       5.851   5.326  15.869  0.00  0.00    +0.000 A 
ATOM      9  C   UNL     1       5.695   4.285  16.774  0.00  0.00    +0.000 A 
ATOM     10  C   UNL     1       4.757   4.393  17.811  0.00  0.00    +0.000 A 
ATOM     11  N   UNL     1       4.707   3.340  18.719  0.00  0.00    +0.000 N 
ATOM     12  C   UNL     1       3.760   3.253  19.692  0.00  0.00    +0.000 C 
ATOM     13  O   UNL     1       3.854   2.349  20.525  0.00  0.00    +0.000 OA
ATOM     14  C   UNL     1       2.518   4.169  19.527  0.00  0.00    +0.000 C 
ATOM     15  C   UNL     1       1.622   3.560  18.418  0.00  0.00    +0.000 C 
ATOM     16  C   UNL     1       1.731   4.005  20.844  0.00  0.00    +0.000 C 
ATOM     17  H   UNL     1       5.427   2.631  18.730  0.00  0.00    +0.000 HD
ENDBRANCH   1   2
BRANCH   1  18
ATOM     18  O   UNL     1       1.505   8.149  21.368  0.00  0.00    +0.000 OA
BRANCH  18  19
ATOM     19  C   UNL     1       0.286   8.729  21.444  0.00  0.00    +0.000 C 
ATOM     20  O   UNL     1      -0.766   8.159  21.689  0.00  0.00    +0.000 OA
BRANCH  19  27
ATOM     21  C   UNL     1      -0.347  11.159  21.870  0.00  0.00    +0.000 A 
ATOM     22  C   UNL     1      -0.234  12.501  21.466  0.00  0.00    +0.000 A 
ATOM     23  C   UNL     1       0.492  12.861  20.321  0.00  0.00    +0.000 A 
ATOM     24  C   UNL     1       1.190  11.863  19.625  0.00  0.00    +0.000 A 
ATOM     25 CL   UNL     1       2.141  12.252  18.235  0.00  0.00    +0.000 Cl
ATOM     26  C   UNL     1       1.105  10.529  20.019  0.00  0.00    +0.000 A 
ATOM     27  C   UNL     1       0.351  10.175  21.145  0.00  0.00    +0.000 A 
BRANCH  23  28
ATOM     28  N   UNL     1       0.674  14.226  20.033  0.00  0.00    +0.000 N 
ATOM     29  H   UNL     1       0.744  14.451  19.046  0.00  0.00    +0.000 HD
ATOM     30  H   UNL     1       1.418  14.650  20.588  0.00  0.00    +0.000 HD
ENDBRANCH  23  28
BRANCH  21  32
ATOM     31  C   UNL     1      -2.169  11.600  23.353  0.00  0.00    +0.000 C 
ATOM     32  O   UNL     1      -1.103  10.757  22.940  0.00  0.00    +0.000 OA
ENDBRANCH  21  32
ENDBRANCH  19  27
ENDBRANCH  18  19
ENDBRANCH   1  18
TORSDOF 6
ENDMDL
MODEL 7
REMARK VINA RESULT:      -8.0      1.326      1.525
REMARK  Name = 
REMARK  9 active torsions:
REMARK  status: ('A' for Active; 'I' for Inactive)
REMARK    1  A    between atoms: C_1  and  O_2
REMARK    2  A    between atoms: O_2  and  C_3
REMARK    3  A    between atoms: C_5  and  N_6
REMARK    4  A    between atoms: C_10  and  C_11
REMARK    5  A    between atoms: C_11  and  O_13
REMARK    6  A    between atoms: O_13  and  C_14
REMARK    7  A    between atoms: C_14  and  C_15
REMARK    8  A    between atoms: C_27  and  C_28
REMARK    9  A    between atoms: C_27  and  C_29
REMARK                            x       y       z     vdW  Elec       q    Type
REMARK                         _______ _______ _______ _____ _____    ______ ____
ROOT
ATOM      1  C   UNL     1       2.224   7.342  19.604  0.00  0.00    +0.000 C 
ENDROOT
BRANCH   1   2
ATOM      2  C   UNL     1       1.345   8.162  20.549  0.00  0.00    +0.000 C 
ATOM      3  O   UNL     1       1.079   7.640  21.638  0.00  0.00    +0.000 OA
ATOM      4  N   UNL     1       0.980   9.481  20.189  0.00  0.00    +0.000 N 
ATOM      5  C   UNL     1       0.250  10.320  21.160  0.00  0.00    +0.000 A 
ATOM      6  C   UNL     1      -0.416   9.825  22.293  0.00  0.00    +0.000 A 
ATOM      7  C   UNL     1      -1.101  10.673  23.179  0.00  0.00    +0.000 A 
ATOM      8  C   UNL     1      -1.146  12.040  22.955  0.00  0.00    +0.000 A 
ATOM      9  C   UNL     1      -0.487  12.567  21.854  0.00  0.00    +0.000 A 
ATOM     10  C   UNL     1       0.204  11.717  20.978  0.00  0.00    +0.000 A 
ATOM     11  N   UNL     1       0.898  12.326  19.936  0.00  0.00    +0.000 N 
ATOM     12  C   UNL     1       1.499  11.619  18.941  0.00  0.00    +0.000 C 
ATOM     13  O   UNL     1       2.189  12.227  18.121  0.00  0.00    +0.000 OA
ATOM     14  C   UNL     1       1.075  10.133  18.801  0.00  0.00    +0.000 C 
ATOM     15  C   UNL     1      -0.333  10.100  18.151  0.00  0.00    +0.000 C 
ATOM     16  C   UNL     1       2.039   9.546  17.749  0.00  0.00    +0.000 C 
ATOM     17  H   UNL     1       1.041  13.326  19.924  0.00  0.00    +0.000 HD
ENDBRANCH   1   2
BRANCH   1  18
ATOM     18  O   UNL     1       2.597   6.055  20.112  0.00  0.00    +0.000 OA
BRANCH  18  19
ATOM     19  C   UNL     1       2.557   5.066  19.190  0.00  0.00    +0.000 C 
ATOM     20  O   UNL     1       1.618   4.311  18.989  0.00  0.00    +0.000 OA
BRANCH  19  27
ATOM     21  C   UNL     1       4.922   4.178  18.872  0.00  0.00    +0.000 A 
ATOM     22  C   UNL     1       6.097   4.186  18.100  0.00  0.00    +0.000 A 
ATOM     23  C   UNL     1       6.224   5.010  16.971  0.00  0.00    +0.000 A 
ATOM     24  C   UNL     1       5.116   5.769  16.563  0.00  0.00    +0.000 A 
ATOM     25 CL   UNL     1       5.196   6.766  15.155  0.00  0.00    +0.000 Cl
ATOM     26  C   UNL     1       3.937   5.761  17.306  0.00  0.00    +0.000 A 
ATOM     27  C   UNL     1       3.831   4.959  18.449  0.00  0.00    +0.000 A 
BRANCH  23  28
ATOM     28  N   UNL     1       7.372   4.888  16.167  0.00  0.00    +0.000 N 
ATOM     29  H   UNL     1       7.199   4.909  15.168  0.00  0.00    +0.000 HD
ATOM     30  H   UNL     1       7.969   4.109  16.448  0.00  0.00    +0.000 HD
ENDBRANCH  23  28
BRANCH  21  32
ATOM     31  C   UNL     1       4.470   2.060  19.885  0.00  0.00    +0.000 C 
ATOM     32  O   UNL     1       4.781   3.441  20.019  0.00  0.00    +0.000 OA
ENDBRANCH  21  32
ENDBRANCH  19  27
ENDBRANCH  18  19
ENDBRANCH   1  18
TORSDOF 6
ENDMDL
MODEL 8
REMARK VINA RESULT:      -8.0      1.686      2.335
REMARK  Name = 
REMARK  9 active torsions:
REMARK  status: ('A' for Active; 'I' for Inactive)
REMARK    1  A    between atoms: C_1  and  O_2
REMARK    2  A    between atoms: O_2  and  C_3
REMARK    3  A    between atoms: C_5  and  N_6
REMARK    4  A    between atoms: C_10  and  C_11
REMARK    5  A    between atoms: C_11  and  O_13
REMARK    6  A    between atoms: O_13  and  C_14
REMARK    7  A    between atoms: C_14  and  C_15
REMARK    8  A    between atoms: C_27  and  C_28
REMARK    9  A    between atoms: C_27  and  C_29
REMARK                            x       y       z     vdW  Elec       q    Type
REMARK                         _______ _______ _______ _____ _____    ______ ____
ROOT
ATOM      1  C   UNL     1       2.629   6.710  19.136  0.00  0.00    +0.000 C 
ENDROOT
BRANCH   1   2
ATOM      2  C   UNL     1       1.748   7.437  20.152  0.00  0.00    +0.000 C 
ATOM      3  O   UNL     1       1.516   6.832  21.206  0.00  0.00    +0.000 OA
ATOM      4  N   UNL     1       1.343   8.769  19.894  0.00  0.00    +0.000 N 
ATOM      5  C   UNL     1       0.610   9.516  20.935  0.00  0.00    +0.000 A 
ATOM      6  C   UNL     1      -0.021   8.924  22.041  0.00  0.00    +0.000 A 
ATOM      7  C   UNL     1      -0.711   9.688  22.998  0.00  0.00    +0.000 A 
ATOM      8  C   UNL     1      -0.794  11.066  22.873  0.00  0.00    +0.000 A 
ATOM      9  C   UNL     1      -0.169  11.688  21.802  0.00  0.00    +0.000 A 
ATOM     10  C   UNL     1       0.525  10.921  20.855  0.00  0.00    +0.000 A 
ATOM     11  N   UNL     1       1.184  11.621  19.848  0.00  0.00    +0.000 N 
ATOM     12  C   UNL     1       1.784  11.003  18.795  0.00  0.00    +0.000 C 
ATOM     13  O   UNL     1       2.443  11.686  18.009  0.00  0.00    +0.000 OA
ATOM     14  C   UNL     1       1.395   9.520  18.555  0.00  0.00    +0.000 C 
ATOM     15  C   UNL     1      -0.024   9.496  17.929  0.00  0.00    +0.000 C 
ATOM     16  C   UNL     1       2.353   9.036  17.447  0.00  0.00    +0.000 C 
ATOM     17  H   UNL     1       1.301  12.623  19.905  0.00  0.00    +0.000 HD
ENDBRANCH   1   2
BRANCH   1  18
ATOM     18  O   UNL     1       3.669   5.914  19.717  0.00  0.00    +0.000 OA
BRANCH  18  19
ATOM     19  C   UNL     1       3.864   4.727  19.100  0.00  0.00    +0.000 C 
ATOM     20  O   UNL     1       3.283   3.683  19.354  0.00  0.00    +0.000 OA
BRANCH  19  27
ATOM     21  C   UNL     1       6.258   5.162  18.351  0.00  0.00    +0.000 A 
ATOM     22  C   UNL     1       7.168   5.247  17.282  0.00  0.00    +0.000 A 
ATOM     23  C   UNL     1       6.755   5.067  15.953  0.00  0.00    +0.000 A 
ATOM     24  C   UNL     1       5.422   4.707  15.706  0.00  0.00    +0.000 A 
ATOM     25 CL   UNL     1       4.864   4.426  14.095  0.00  0.00    +0.000 Cl
ATOM     26  C   UNL     1       4.508   4.601  16.753  0.00  0.00    +0.000 A 
ATOM     27  C   UNL     1       4.924   4.813  18.074  0.00  0.00    +0.000 A 
BRANCH  23  28
ATOM     28  N   UNL     1       7.727   5.042  14.937  0.00  0.00    +0.000 N 
ATOM     29  H   UNL     1       7.709   5.837  14.307  0.00  0.00    +0.000 HD
ATOM     30  H   UNL     1       7.758   4.148  14.444  0.00  0.00    +0.000 HD
ENDBRANCH  23  28
BRANCH  21  32
ATOM     31  C   UNL     1       7.980   5.617  19.945  0.00  0.00    +0.000 C 
ATOM     32  O   UNL     1       6.606   5.397  19.655  0.00  0.00    +0.000 OA
ENDBRANCH  21  32
ENDBRANCH  19  27
ENDBRANCH  18  19
ENDBRANCH   1  18
TORSDOF 6
ENDMDL
MODEL 9
REMARK VINA RESULT:      -7.9      1.264      1.683
REMARK  Name = 
REMARK  9 active torsions:
REMARK  status: ('A' for Active; 'I' for Inactive)
REMARK    1  A    between atoms: C_1  and  O_2
REMARK    2  A    between atoms: O_2  and  C_3
REMARK    3  A    between atoms: C_5  and  N_6
REMARK    4  A    between atoms: C_10  and  C_11
REMARK    5  A    between atoms: C_11  and  O_13
REMARK    6  A    between atoms: O_13  and  C_14
REMARK    7  A    between atoms: C_14  and  C_15
REMARK    8  A    between atoms: C_27  and  C_28
REMARK    9  A    between atoms: C_27  and  C_29
REMARK                            x       y       z     vdW  Elec       q    Type
REMARK                         _______ _______ _______ _____ _____    ______ ____
ROOT
ATOM      1  C   UNL     1       2.579   7.011  18.942  0.00  0.00    +0.000 C 
ENDROOT
BRANCH   1   2
ATOM      2  C   UNL     1       1.692   7.622  20.028  0.00  0.00    +0.000 C 
ATOM      3  O   UNL     1       1.496   6.923  21.030  0.00  0.00    +0.000 OA
ATOM      4  N   UNL     1       1.241   8.956  19.889  0.00  0.00    +0.000 N 
ATOM      5  C   UNL     1       0.502   9.589  20.999  0.00  0.00    +0.000 A 
ATOM      6  C   UNL     1      -0.093   8.886  22.059  0.00  0.00    +0.000 A 
ATOM      7  C   UNL     1      -0.790   9.544  23.086  0.00  0.00    +0.000 A 
ATOM      8  C   UNL     1      -0.919  10.924  23.079  0.00  0.00    +0.000 A 
ATOM      9  C   UNL     1      -0.331  11.654  22.056  0.00  0.00    +0.000 A 
ATOM     10  C   UNL     1       0.372  10.993  21.039  0.00  0.00    +0.000 A 
ATOM     11  N   UNL     1       0.993  11.795  20.086  0.00  0.00    +0.000 N 
ATOM     12  C   UNL     1       1.595  11.288  18.977  0.00  0.00    +0.000 C 
ATOM     13  O   UNL     1       2.219  12.056  18.242  0.00  0.00    +0.000 OA
ATOM     14  C   UNL     1       1.249   9.818  18.618  0.00  0.00    +0.000 C 
ATOM     15  C   UNL     1      -0.178   9.801  18.011  0.00  0.00    +0.000 C 
ATOM     16  C   UNL     1       2.204   9.460  17.460  0.00  0.00    +0.000 C 
ATOM     17  H   UNL     1       1.079  12.792  20.226  0.00  0.00    +0.000 HD
ENDBRANCH   1   2
BRANCH   1  18
ATOM     18  O   UNL     1       1.864   6.298  17.927  0.00  0.00    +0.000 OA
BRANCH  18  19
ATOM     19  C   UNL     1       2.182   4.986  17.848  0.00  0.00    +0.000 C 
ATOM     20  O   UNL     1       1.390   4.059  17.773  0.00  0.00    +0.000 OA
BRANCH  19  27
ATOM     21  C   UNL     1       4.332   4.368  19.065  0.00  0.00    +0.000 A 
ATOM     22  C   UNL     1       5.732   4.238  19.006  0.00  0.00    +0.000 A 
ATOM     23  C   UNL     1       6.449   4.577  17.849  0.00  0.00    +0.000 A 
ATOM     24  C   UNL     1       5.737   4.967  16.705  0.00  0.00    +0.000 A 
ATOM     25 CL   UNL     1       6.563   5.351  15.236  0.00  0.00    +0.000 Cl
ATOM     26  C   UNL     1       4.349   5.086  16.737  0.00  0.00    +0.000 A 
ATOM     27  C   UNL     1       3.644   4.775  17.907  0.00  0.00    +0.000 A 
BRANCH  23  28
ATOM     28  N   UNL     1       7.831   4.312  17.805  0.00  0.00    +0.000 N 
ATOM     29  H   UNL     1       8.186   4.042  16.894  0.00  0.00    +0.000 HD
ATOM     30  H   UNL     1       8.135   3.684  18.550  0.00  0.00    +0.000 HD
ENDBRANCH  23  28
BRANCH  21  32
ATOM     31  C   UNL     1       3.314   2.757  20.507  0.00  0.00    +0.000 C 
ATOM     32  O   UNL     1       3.600   4.114  20.195  0.00  0.00    +0.000 OA
ENDBRANCH  21  32
ENDBRANCH  19  27
ENDBRANCH  18  19
ENDBRANCH   1  18
TORSDOF 6
ENDMDL
