MODEL 1
REMARK VINA RESULT:      -7.1      0.000      0.000
REMARK  Name = 
REMARK  10 active torsions:
REMARK  status: ('A' for Active; 'I' for Inactive)
REMARK    1  A    between atoms: C_1  and  C_2
REMARK    2  A    between atoms: C_5  and  C_6
REMARK    3  A    between atoms: C_6  and  O_7
REMARK    4  A    between atoms: C_6  and  C_13
REMARK    5  A    between atoms: O_7  and  C_8
REMARK    6  A    between atoms: C_8  and  C_9
REMARK    7  A    between atoms: C_9  and  N_10
REMARK    8  A    between atoms: N_10  and  C_11
REMARK    9  A    between atoms: N_10  and  C_12
REMARK   10  A    between atoms: C_16  and  C_17
REMARK                            x       y       z     vdW  Elec       q    Type
REMARK                         _______ _______ _______ _____ _____    ______ ____
ROOT
ATOM      1  C   UNL     1       5.399   3.929  16.423  0.00  0.00    +0.000 C 
ENDROOT
BRANCH   1   6
ATOM      2  C   UNL     1       8.482   8.421  18.514  0.00  0.00    +0.000 C 
ATOM      3  C   UNL     1       7.652   7.271  18.027  0.00  0.00    +0.000 A 
ATOM      4  C   UNL     1       7.875   5.975  18.501  0.00  0.00    +0.000 A 
ATOM      5  C   UNL     1       7.139   4.903  17.997  0.00  0.00    +0.000 A 
ATOM      6  C   UNL     1       6.168   5.108  17.006  0.00  0.00    +0.000 A 
ATOM      7  C   UNL     1       5.925   6.412  16.552  0.00  0.00    +0.000 A 
ATOM      8  C   UNL     1       6.663   7.484  17.058  0.00  0.00    +0.000 A 
ENDBRANCH   1   6
BRANCH   1   9
ATOM      9  C   UNL     1       4.080   3.708  17.169  0.00  0.00    +0.000 A 
ATOM     10  C   UNL     1       3.232   4.765  17.523  0.00  0.00    +0.000 A 
ATOM     11  C   UNL     1       2.075   4.531  18.276  0.00  0.00    +0.000 A 
ATOM     12  C   UNL     1       1.743   3.242  18.696  0.00  0.00    +0.000 A 
ATOM     13  C   UNL     1       0.529   2.987  19.540  0.00  0.00    +0.000 C 
ATOM     14  C   UNL     1       2.558   2.174  18.308  0.00  0.00    +0.000 A 
ATOM     15  C   UNL     1       3.709   2.404  17.551  0.00  0.00    +0.000 A 
ENDBRANCH   1   9
BRANCH   1  16
ATOM     16  O   UNL     1       5.187   4.129  15.009  0.00  0.00    +0.000 OA
BRANCH  16  17
ATOM     17  C   UNL     1       6.338   3.752  14.241  0.00  0.00    +0.000 C 
BRANCH  17  18
ATOM     18  C   UNL     1       6.058   3.889  12.734  0.00  0.00    +0.000 C 
BRANCH  18  19
ATOM     19  N   UNL     1       5.192   2.816  12.201  0.00  0.00    +0.000 NA
ATOM     20  C   UNL     1       4.132   3.335  11.337  0.00  0.00    +0.000 C 
ATOM     21  C   UNL     1       5.989   1.825  11.476  0.00  0.00    +0.000 C 
ENDBRANCH  18  19
ENDBRANCH  17  18
ENDBRANCH  16  17
ENDBRANCH   1  16
TORSDOF 6
ENDMDL
MODEL 2
REMARK VINA RESULT:      -7.1      1.000      1.297
REMARK  Name = 
REMARK  10 active torsions:
REMARK  status: ('A' for Active; 'I' for Inactive)
REMARK    1  A    between atoms: C_1  and  C_2
REMARK    2  A    between atoms: C_5  and  C_6
REMARK    3  A    between atoms: C_6  and  O_7
REMARK    4  A    between atoms: C_6  and  C_13
REMARK    5  A    between atoms: O_7  and  C_8
REMARK    6  A    between atoms: C_8  and  C_9
REMARK    7  A    between atoms: C_9  and  N_10
REMARK    8  A    between atoms: N_10  and  C_11
REMARK    9  A    between atoms: N_10  and  C_12
REMARK   10  A    between atoms: C_16  and  C_17
REMARK                            x       y       z     vdW  Elec       q    Type
REMARK                         _______ _______ _______ _____ _____    ______ ____
ROOT
ATOM      1  C   UNL     1       5.474   4.105  17.162  0.00  0.00    +0.000 C 
ENDROOT
BRANCH   1   6
ATOM      2  C   UNL     1       8.478   9.004  18.175  0.00  0.00    +0.000 C 
ATOM      3  C   UNL     1       7.674   7.756  17.968  0.00  0.00    +0.000 A 
ATOM      4  C   UNL     1       8.028   6.562  18.603  0.00  0.00    +0.000 A 
ATOM      5  C   UNL     1       7.311   5.392  18.356  0.00  0.00    +0.000 A 
ATOM      6  C   UNL     1       6.227   5.395  17.466  0.00  0.00    +0.000 A 
ATOM      7  C   UNL     1       5.854   6.599  16.853  0.00  0.00    +0.000 A 
ATOM      8  C   UNL     1       6.574   7.769  17.102  0.00  0.00    +0.000 A 
ENDBRANCH   1   6
BRANCH   1   9
ATOM      9  C   UNL     1       4.310   3.903  18.136  0.00  0.00    +0.000 A 
ATOM     10  C   UNL     1       4.451   3.196  19.337  0.00  0.00    +0.000 A 
ATOM     11  C   UNL     1       3.345   2.963  20.163  0.00  0.00    +0.000 A 
ATOM     12  C   UNL     1       2.077   3.425  19.807  0.00  0.00    +0.000 A 
ATOM     13  C   UNL     1       0.878   3.144  20.663  0.00  0.00    +0.000 C 
ATOM     14  C   UNL     1       1.934   4.173  18.634  0.00  0.00    +0.000 A 
ATOM     15  C   UNL     1       3.038   4.412  17.812  0.00  0.00    +0.000 A 
ENDBRANCH   1   9
BRANCH   1  16
ATOM     16  O   UNL     1       5.029   4.107  15.789  0.00  0.00    +0.000 OA
BRANCH  16  17
ATOM     17  C   UNL     1       6.070   3.695  14.892  0.00  0.00    +0.000 C 
BRANCH  17  18
ATOM     18  C   UNL     1       5.789   4.190  13.463  0.00  0.00    +0.000 C 
BRANCH  18  19
ATOM     19  N   UNL     1       5.730   3.098  12.468  0.00  0.00    +0.000 NA
ATOM     20  C   UNL     1       4.577   3.220  11.576  0.00  0.00    +0.000 C 
ATOM     21  C   UNL     1       6.966   3.051  11.685  0.00  0.00    +0.000 C 
ENDBRANCH  18  19
ENDBRANCH  17  18
ENDBRANCH  16  17
ENDBRANCH   1  16
TORSDOF 6
ENDMDL
MODEL 3
REMARK VINA RESULT:      -6.9      3.526      5.244
REMARK  Name = 
REMARK  10 active torsions:
REMARK  status: ('A' for Active; 'I' for Inactive)
REMARK    1  A    between atoms: C_1  and  C_2
REMARK    2  A    between atoms: C_5  and  C_6
REMARK    3  A    between atoms: C_6  and  O_7
REMARK    4  A    between atoms: C_6  and  C_13
REMARK    5  A    between atoms: O_7  and  C_8
REMARK    6  A    between atoms: C_8  and  C_9
REMARK    7  A    between atoms: C_9  and  N_10
REMARK    8  A    between atoms: N_10  and  C_11
REMARK    9  A    between atoms: N_10  and  C_12
REMARK   10  A    between atoms: C_16  and  C_17
REMARK                            x       y       z     vdW  Elec       q    Type
REMARK                         _______ _______ _______ _____ _____    ______ ____
ROOT
ATOM      1  C   UNL     1       3.245   7.121  18.584  0.00  0.00    +0.000 C 
ENDROOT
BRANCH   1   6
ATOM      2  C   UNL     1      -1.050  10.936  19.610  0.00  0.00    +0.000 C 
ATOM      3  C   UNL     1       0.095  10.003  19.350  0.00  0.00    +0.000 A 
ATOM      4  C   UNL     1       0.616   9.851  18.062  0.00  0.00    +0.000 A 
ATOM      5  C   UNL     1       1.640   8.936  17.819  0.00  0.00    +0.000 A 
ATOM      6  C   UNL     1       2.159   8.153  18.861  0.00  0.00    +0.000 A 
ATOM      7  C   UNL     1       1.656   8.328  20.158  0.00  0.00    +0.000 A 
ATOM      8  C   UNL     1       0.631   9.245  20.398  0.00  0.00    +0.000 A 
ENDBRANCH   1   6
BRANCH   1   9
ATOM      9  C   UNL     1       2.708   5.697  18.754  0.00  0.00    +0.000 A 
ATOM     10  C   UNL     1       1.933   5.066  17.773  0.00  0.00    +0.000 A 
ATOM     11  C   UNL     1       1.392   3.794  17.998  0.00  0.00    +0.000 A 
ATOM     12  C   UNL     1       1.607   3.129  19.206  0.00  0.00    +0.000 A 
ATOM     13  C   UNL     1       0.997   1.785  19.474  0.00  0.00    +0.000 C 
ATOM     14  C   UNL     1       2.419   3.730  20.173  0.00  0.00    +0.000 A 
ATOM     15  C   UNL     1       2.966   4.996  19.948  0.00  0.00    +0.000 A 
ENDBRANCH   1   9
BRANCH   1  16
ATOM     16  O   UNL     1       3.801   7.330  17.269  0.00  0.00    +0.000 OA
BRANCH  16  17
ATOM     17  C   UNL     1       5.143   6.833  17.173  0.00  0.00    +0.000 C 
BRANCH  17  18
ATOM     18  C   UNL     1       5.290   5.883  15.972  0.00  0.00    +0.000 C 
BRANCH  18  19
ATOM     19  N   UNL     1       6.690   5.489  15.706  0.00  0.00    +0.000 NA
ATOM     20  C   UNL     1       7.230   4.618  16.750  0.00  0.00    +0.000 C 
ATOM     21  C   UNL     1       6.800   4.836  14.401  0.00  0.00    +0.000 C 
ENDBRANCH  18  19
ENDBRANCH  17  18
ENDBRANCH  16  17
ENDBRANCH   1  16
TORSDOF 6
ENDMDL
MODEL 4
REMARK VINA RESULT:      -6.9      3.519      5.136
REMARK  Name = 
REMARK  10 active torsions:
REMARK  status: ('A' for Active; 'I' for Inactive)
REMARK    1  A    between atoms: C_1  and  C_2
REMARK    2  A    between atoms: C_5  and  C_6
REMARK    3  A    between atoms: C_6  and  O_7
REMARK    4  A    between atoms: C_6  and  C_13
REMARK    5  A    between atoms: O_7  and  C_8
REMARK    6  A    between atoms: C_8  and  C_9
REMARK    7  A    between atoms: C_9  and  N_10
REMARK    8  A    between atoms: N_10  and  C_11
REMARK    9  A    between atoms: N_10  and  C_12
REMARK   10  A    between atoms: C_16  and  C_17
REMARK                            x       y       z     vdW  Elec       q    Type
REMARK                         _______ _______ _______ _____ _____    ______ ____
ROOT
ATOM      1  C   UNL     1       3.269   7.084  18.646  0.00  0.00    +0.000 C 
ENDROOT
BRANCH   1   6
ATOM      2  C   UNL     1      -0.858  11.080  19.670  0.00  0.00    +0.000 C 
ATOM      3  C   UNL     1       0.157  10.010  19.404  0.00  0.00    +0.000 A 
ATOM      4  C   UNL     1       0.647   9.214  20.443  0.00  0.00    +0.000 A 
ATOM      5  C   UNL     1       1.636   8.262  20.197  0.00  0.00    +0.000 A 
ATOM      6  C   UNL     1       2.155   8.092  18.905  0.00  0.00    +0.000 A 
ATOM      7  C   UNL     1       1.641   8.870  17.858  0.00  0.00    +0.000 A 
ATOM      8  C   UNL     1       0.651   9.822  18.108  0.00  0.00    +0.000 A 
ENDBRANCH   1   6
BRANCH   1   9
ATOM      9  C   UNL     1       2.755   5.648  18.782  0.00  0.00    +0.000 A 
ATOM     10  C   UNL     1       1.944   5.046  17.812  0.00  0.00    +0.000 A 
ATOM     11  C   UNL     1       1.427   3.760  18.009  0.00  0.00    +0.000 A 
ATOM     12  C   UNL     1       1.704   3.050  19.178  0.00  0.00    +0.000 A 
ATOM     13  C   UNL     1       1.121   1.689  19.418  0.00  0.00    +0.000 C 
ATOM     14  C   UNL     1       2.551   3.622  20.132  0.00  0.00    +0.000 A 
ATOM     15  C   UNL     1       3.073   4.903  19.934  0.00  0.00    +0.000 A 
ENDBRANCH   1   9
BRANCH   1  16
ATOM     16  O   UNL     1       3.858   7.322  17.351  0.00  0.00    +0.000 OA
BRANCH  16  17
ATOM     17  C   UNL     1       5.167   6.744  17.248  0.00  0.00    +0.000 C 
BRANCH  17  18
ATOM     18  C   UNL     1       5.318   5.965  15.930  0.00  0.00    +0.000 C 
BRANCH  18  19
ATOM     19  N   UNL     1       6.700   5.499  15.682  0.00  0.00    +0.000 NA
ATOM     20  C   UNL     1       7.197   4.638  16.755  0.00  0.00    +0.000 C 
ATOM     21  C   UNL     1       6.782   4.799  14.399  0.00  0.00    +0.000 C 
ENDBRANCH  18  19
ENDBRANCH  17  18
ENDBRANCH  16  17
ENDBRANCH   1  16
TORSDOF 6
ENDMDL
MODEL 5
REMARK VINA RESULT:      -6.9      2.954      5.985
REMARK  Name = 
REMARK  10 active torsions:
REMARK  status: ('A' for Active; 'I' for Inactive)
REMARK    1  A    between atoms: C_1  and  C_2
REMARK    2  A    between atoms: C_5  and  C_6
REMARK    3  A    between atoms: C_6  and  O_7
REMARK    4  A    between atoms: C_6  and  C_13
REMARK    5  A    between atoms: O_7  and  C_8
REMARK    6  A    between atoms: C_8  and  C_9
REMARK    7  A    between atoms: C_9  and  N_10
REMARK    8  A    between atoms: N_10  and  C_11
REMARK    9  A    between atoms: N_10  and  C_12
REMARK   10  A    between atoms: C_16  and  C_17
REMARK                            x       y       z     vdW  Elec       q    Type
REMARK                         _______ _______ _______ _____ _____    ______ ____
ROOT
ATOM      1  C   UNL     1       4.055   4.434  18.305  0.00  0.00    +0.000 C 
ENDROOT
BRANCH   1   6
ATOM      2  C   UNL     1       1.394   9.529  19.314  0.00  0.00    +0.000 C 
ATOM      3  C   UNL     1       2.022   8.196  19.037  0.00  0.00    +0.000 A 
ATOM      4  C   UNL     1       1.977   7.171  19.987  0.00  0.00    +0.000 A 
ATOM      5  C   UNL     1       2.616   5.956  19.744  0.00  0.00    +0.000 A 
ATOM      6  C   UNL     1       3.317   5.745  18.547  0.00  0.00    +0.000 A 
ATOM      7  C   UNL     1       3.337   6.763  17.583  0.00  0.00    +0.000 A 
ATOM      8  C   UNL     1       2.695   7.979  17.829  0.00  0.00    +0.000 A 
ENDBRANCH   1   6
BRANCH   1   9
ATOM      9  C   UNL     1       5.045   4.565  17.145  0.00  0.00    +0.000 A 
ATOM     10  C   UNL     1       6.289   5.190  17.287  0.00  0.00    +0.000 A 
ATOM     11  C   UNL     1       7.134   5.363  16.184  0.00  0.00    +0.000 A 
ATOM     12  C   UNL     1       6.752   4.921  14.916  0.00  0.00    +0.000 A 
ATOM     13  C   UNL     1       7.630   5.139  13.719  0.00  0.00    +0.000 C 
ATOM     14  C   UNL     1       5.533   4.253  14.771  0.00  0.00    +0.000 A 
ATOM     15  C   UNL     1       4.692   4.073  15.873  0.00  0.00    +0.000 A 
ENDBRANCH   1   9
BRANCH   1  16
ATOM     16  O   UNL     1       4.706   4.003  19.519  0.00  0.00    +0.000 OA
BRANCH  16  17
ATOM     17  C   UNL     1       4.304   2.679  19.896  0.00  0.00    +0.000 C 
BRANCH  17  18
ATOM     18  C   UNL     1       3.180   2.167  18.980  0.00  0.00    +0.000 C 
BRANCH  18  19
ATOM     19  N   UNL     1       1.884   2.012  19.675  0.00  0.00    +0.000 NA
ATOM     20  C   UNL     1       1.902   2.589  21.019  0.00  0.00    +0.000 C 
ATOM     21  C   UNL     1       0.805   2.611  18.888  0.00  0.00    +0.000 C 
ENDBRANCH  18  19
ENDBRANCH  17  18
ENDBRANCH  16  17
ENDBRANCH   1  16
TORSDOF 6
ENDMDL
MODEL 6
REMARK VINA RESULT:      -6.9      0.969      4.988
REMARK  Name = 
REMARK  10 active torsions:
REMARK  status: ('A' for Active; 'I' for Inactive)
REMARK    1  A    between atoms: C_1  and  C_2
REMARK    2  A    between atoms: C_5  and  C_6
REMARK    3  A    between atoms: C_6  and  O_7
REMARK    4  A    between atoms: C_6  and  C_13
REMARK    5  A    between atoms: O_7  and  C_8
REMARK    6  A    between atoms: C_8  and  C_9
REMARK    7  A    between atoms: C_9  and  N_10
REMARK    8  A    between atoms: N_10  and  C_11
REMARK    9  A    between atoms: N_10  and  C_12
REMARK   10  A    between atoms: C_16  and  C_17
REMARK                            x       y       z     vdW  Elec       q    Type
REMARK                         _______ _______ _______ _____ _____    ______ ____
ROOT
ATOM      1  C   UNL     1       4.811   4.581  16.667  0.00  0.00    +0.000 C 
ENDROOT
BRANCH   1   6
ATOM      2  C   UNL     1       1.174   2.982  20.941  0.00  0.00    +0.000 C 
ATOM      3  C   UNL     1       2.073   3.360  19.803  0.00  0.00    +0.000 A 
ATOM      4  C   UNL     1       3.091   2.500  19.378  0.00  0.00    +0.000 A 
ATOM      5  C   UNL     1       3.961   2.886  18.359  0.00  0.00    +0.000 A 
ATOM      6  C   UNL     1       3.831   4.142  17.748  0.00  0.00    +0.000 A 
ATOM      7  C   UNL     1       2.791   4.991  18.154  0.00  0.00    +0.000 A 
ATOM      8  C   UNL     1       1.922   4.602  19.175  0.00  0.00    +0.000 A 
ENDBRANCH   1   6
BRANCH   1   9
ATOM      9  C   UNL     1       5.758   5.665  17.189  0.00  0.00    +0.000 A 
ATOM     10  C   UNL     1       5.704   6.989  16.739  0.00  0.00    +0.000 A 
ATOM     11  C   UNL     1       6.639   7.933  17.180  0.00  0.00    +0.000 A 
ATOM     12  C   UNL     1       7.649   7.575  18.073  0.00  0.00    +0.000 A 
ATOM     13  C   UNL     1       8.682   8.568  18.519  0.00  0.00    +0.000 C 
ATOM     14  C   UNL     1       7.684   6.267  18.566  0.00  0.00    +0.000 A 
ATOM     15  C   UNL     1       6.748   5.326  18.133  0.00  0.00    +0.000 A 
ENDBRANCH   1   9
BRANCH   1  16
ATOM     16  O   UNL     1       5.533   3.437  16.162  0.00  0.00    +0.000 OA
BRANCH  16  17
ATOM     17  C   UNL     1       6.342   3.777  15.027  0.00  0.00    +0.000 C 
BRANCH  17  18
ATOM     18  C   UNL     1       5.462   4.099  13.807  0.00  0.00    +0.000 C 
BRANCH  18  19
ATOM     19  N   UNL     1       5.816   3.310  12.608  0.00  0.00    +0.000 NA
ATOM     20  C   UNL     1       4.714   3.234  11.648  0.00  0.00    +0.000 C 
ATOM     21  C   UNL     1       7.005   3.866  11.960  0.00  0.00    +0.000 C 
ENDBRANCH  18  19
ENDBRANCH  17  18
ENDBRANCH  16  17
ENDBRANCH   1  16
TORSDOF 6
ENDMDL
MODEL 7
REMARK VINA RESULT:      -6.9      1.130      5.061
REMARK  Name = 
REMARK  10 active torsions:
REMARK  status: ('A' for Active; 'I' for Inactive)
REMARK    1  A    between atoms: C_1  and  C_2
REMARK    2  A    between atoms: C_5  and  C_6
REMARK    3  A    between atoms: C_6  and  O_7
REMARK    4  A    between atoms: C_6  and  C_13
REMARK    5  A    between atoms: O_7  and  C_8
REMARK    6  A    between atoms: C_8  and  C_9
REMARK    7  A    between atoms: C_9  and  N_10
REMARK    8  A    between atoms: N_10  and  C_11
REMARK    9  A    between atoms: N_10  and  C_12
REMARK   10  A    between atoms: C_16  and  C_17
REMARK                            x       y       z     vdW  Elec       q    Type
REMARK                         _______ _______ _______ _____ _____    ______ ____
ROOT
ATOM      1  C   UNL     1       4.769   4.541  16.870  0.00  0.00    +0.000 C 
ENDROOT
BRANCH   1   6
ATOM      2  C   UNL     1       1.741   2.904  21.582  0.00  0.00    +0.000 C 
ATOM      3  C   UNL     1       2.467   3.313  20.336  0.00  0.00    +0.000 A 
ATOM      4  C   UNL     1       3.059   2.357  19.505  0.00  0.00    +0.000 A 
ATOM      5  C   UNL     1       3.784   2.751  18.382  0.00  0.00    +0.000 A 
ATOM      6  C   UNL     1       3.936   4.111  18.071  0.00  0.00    +0.000 A 
ATOM      7  C   UNL     1       3.317   5.068  18.889  0.00  0.00    +0.000 A 
ATOM      8  C   UNL     1       2.591   4.670  20.013  0.00  0.00    +0.000 A 
ENDBRANCH   1   6
BRANCH   1   9
ATOM      9  C   UNL     1       5.850   5.545  17.280  0.00  0.00    +0.000 A 
ATOM     10  C   UNL     1       6.855   5.231  18.203  0.00  0.00    +0.000 A 
ATOM     11  C   UNL     1       7.777   6.201  18.614  0.00  0.00    +0.000 A 
ATOM     12  C   UNL     1       7.713   7.504  18.117  0.00  0.00    +0.000 A 
ATOM     13  C   UNL     1       8.669   8.562  18.583  0.00  0.00    +0.000 C 
ATOM     14  C   UNL     1       6.743   7.816  17.160  0.00  0.00    +0.000 A 
ATOM     15  C   UNL     1       5.826   6.847  16.743  0.00  0.00    +0.000 A 
ENDBRANCH   1   9
BRANCH   1  16
ATOM     16  O   UNL     1       5.333   3.381  16.221  0.00  0.00    +0.000 OA
BRANCH  16  17
ATOM     17  C   UNL     1       6.260   3.748  15.189  0.00  0.00    +0.000 C 
BRANCH  17  18
ATOM     18  C   UNL     1       5.515   4.182  13.915  0.00  0.00    +0.000 C 
BRANCH  18  19
ATOM     19  N   UNL     1       5.877   3.381  12.726  0.00  0.00    +0.000 NA
ATOM     20  C   UNL     1       4.762   3.243  11.789  0.00  0.00    +0.000 C 
ATOM     21  C   UNL     1       7.033   3.967  12.046  0.00  0.00    +0.000 C 
ENDBRANCH  18  19
ENDBRANCH  17  18
ENDBRANCH  16  17
ENDBRANCH   1  16
TORSDOF 6
ENDMDL
MODEL 8
REMARK VINA RESULT:      -6.9      3.583      5.337
REMARK  Name = 
REMARK  10 active torsions:
REMARK  status: ('A' for Active; 'I' for Inactive)
REMARK    1  A    between atoms: C_1  and  C_2
REMARK    2  A    between atoms: C_5  and  C_6
REMARK    3  A    between atoms: C_6  and  O_7
REMARK    4  A    between atoms: C_6  and  C_13
REMARK    5  A    between atoms: O_7  and  C_8
REMARK    6  A    between atoms: C_8  and  C_9
REMARK    7  A    between atoms: C_9  and  N_10
REMARK    8  A    between atoms: N_10  and  C_11
REMARK    9  A    between atoms: N_10  and  C_12
REMARK   10  A    between atoms: C_16  and  C_17
REMARK                            x       y       z     vdW  Elec       q    Type
REMARK                         _______ _______ _______ _____ _____    ______ ____
ROOT
ATOM      1  C   UNL     1       3.160   7.137  18.678  0.00  0.00    +0.000 C 
ENDROOT
BRANCH   1   6
ATOM      2  C   UNL     1      -1.074  11.053  19.569  0.00  0.00    +0.000 C 
ATOM      3  C   UNL     1       0.056  10.094  19.344  0.00  0.00    +0.000 A 
ATOM      4  C   UNL     1       0.599   9.914  18.068  0.00  0.00    +0.000 A 
ATOM      5  C   UNL     1       1.609   8.976  17.858  0.00  0.00    +0.000 A 
ATOM      6  C   UNL     1       2.090   8.196  18.920  0.00  0.00    +0.000 A 
ATOM      7  C   UNL     1       1.564   8.398  20.204  0.00  0.00    +0.000 A 
ATOM      8  C   UNL     1       0.554   9.338  20.412  0.00  0.00    +0.000 A 
ENDBRANCH   1   6
BRANCH   1   9
ATOM      9  C   UNL     1       2.598   5.729  18.888  0.00  0.00    +0.000 A 
ATOM     10  C   UNL     1       2.805   5.006  20.070  0.00  0.00    +0.000 A 
ATOM     11  C   UNL     1       2.345   3.690  20.194  0.00  0.00    +0.000 A 
ATOM     12  C   UNL     1       1.674   3.065  19.141  0.00  0.00    +0.000 A 
ATOM     13  C   UNL     1       1.215   1.641  19.247  0.00  0.00    +0.000 C 
ATOM     14  C   UNL     1       1.420   3.793  17.975  0.00  0.00    +0.000 A 
ATOM     15  C   UNL     1       1.872   5.109  17.852  0.00  0.00    +0.000 A 
ENDBRANCH   1   9
BRANCH   1  16
ATOM     16  O   UNL     1       3.723   7.298  17.359  0.00  0.00    +0.000 OA
BRANCH  16  17
ATOM     17  C   UNL     1       5.061   6.788  17.287  0.00  0.00    +0.000 C 
BRANCH  17  18
ATOM     18  C   UNL     1       5.363   6.242  15.881  0.00  0.00    +0.000 C 
BRANCH  18  19
ATOM     19  N   UNL     1       6.718   5.664  15.757  0.00  0.00    +0.000 NA
ATOM     20  C   UNL     1       7.130   4.946  16.963  0.00  0.00    +0.000 C 
ATOM     21  C   UNL     1       6.793   4.776  14.596  0.00  0.00    +0.000 C 
ENDBRANCH  18  19
ENDBRANCH  17  18
ENDBRANCH  16  17
ENDBRANCH   1  16
TORSDOF 6
ENDMDL
MODEL 9
REMARK VINA RESULT:      -6.9      3.606      5.234
REMARK  Name = 
REMARK  10 active torsions:
REMARK  status: ('A' for Active; 'I' for Inactive)
REMARK    1  A    between atoms: C_1  and  C_2
REMARK    2  A    between atoms: C_5  and  C_6
REMARK    3  A    between atoms: C_6  and  O_7
REMARK    4  A    between atoms: C_6  and  C_13
REMARK    5  A    between atoms: O_7  and  C_8
REMARK    6  A    between atoms: C_8  and  C_9
REMARK    7  A    between atoms: C_9  and  N_10
REMARK    8  A    between atoms: N_10  and  C_11
REMARK    9  A    between atoms: N_10  and  C_12
REMARK   10  A    between atoms: C_16  and  C_17
REMARK                            x       y       z     vdW  Elec       q    Type
REMARK                         _______ _______ _______ _____ _____    ______ ____
ROOT
ATOM      1  C   UNL     1       3.192   7.178  18.674  0.00  0.00    +0.000 C 
ENDROOT
BRANCH   1   6
ATOM      2  C   UNL     1      -0.882  11.256  19.582  0.00  0.00    +0.000 C 
ATOM      3  C   UNL     1       0.118  10.165  19.346  0.00  0.00    +0.000 A 
ATOM      4  C   UNL     1       0.586   9.381  20.405  0.00  0.00    +0.000 A 
ATOM      5  C   UNL     1       1.562   8.410  20.185  0.00  0.00    +0.000 A 
ATOM      6  C   UNL     1       2.091   8.207  18.902  0.00  0.00    +0.000 A 
ATOM      7  C   UNL     1       1.600   8.974  17.836  0.00  0.00    +0.000 A 
ATOM      8  C   UNL     1       0.622   9.946  18.058  0.00  0.00    +0.000 A 
ENDBRANCH   1   6
BRANCH   1   9
ATOM      9  C   UNL     1       2.666   5.755  18.880  0.00  0.00    +0.000 A 
ATOM     10  C   UNL     1       2.915   5.025  20.049  0.00  0.00    +0.000 A 
ATOM     11  C   UNL     1       2.487   3.697  20.167  0.00  0.00    +0.000 A 
ATOM     12  C   UNL     1       1.807   3.069  19.123  0.00  0.00    +0.000 A 
ATOM     13  C   UNL     1       1.382   1.634  19.223  0.00  0.00    +0.000 C 
ATOM     14  C   UNL     1       1.511   3.803  17.970  0.00  0.00    +0.000 A 
ATOM     15  C   UNL     1       1.932   5.131  17.853  0.00  0.00    +0.000 A 
ENDBRANCH   1   9
BRANCH   1  16
ATOM     16  O   UNL     1       3.765   7.352  17.361  0.00  0.00    +0.000 OA
BRANCH  16  17
ATOM     17  C   UNL     1       5.090   6.808  17.283  0.00  0.00    +0.000 C 
BRANCH  17  18
ATOM     18  C   UNL     1       5.283   6.027  15.972  0.00  0.00    +0.000 C 
BRANCH  18  19
ATOM     19  N   UNL     1       6.676   5.579  15.759  0.00  0.00    +0.000 NA
ATOM     20  C   UNL     1       7.163   4.739  16.853  0.00  0.00    +0.000 C 
ATOM     21  C   UNL     1       6.797   4.864  14.487  0.00  0.00    +0.000 C 
ENDBRANCH  18  19
ENDBRANCH  17  18
ENDBRANCH  16  17
ENDBRANCH   1  16
TORSDOF 6
ENDMDL
