MODEL 1
REMARK VINA RESULT:      -7.8      0.000      0.000
REMARK  Name = 
REMARK  8 active torsions:
REMARK  status: ('A' for Active; 'I' for Inactive)
REMARK    1  A    between atoms: C_1  and  O_2
REMARK    2  A    between atoms: O_2  and  C_3
REMARK    3  A    between atoms: C_6  and  S_7
REMARK    4  A    between atoms: S_7  and  N_10
REMARK    5  A    between atoms: C_12  and  N_13
REMARK    6  A    between atoms: N_17  and  C_18
REMARK    7  A    between atoms: C_22  and  C_23
REMARK    8  A    between atoms: N_25  and  O_26
REMARK                            x       y       z     vdW  Elec       q    Type
REMARK                         _______ _______ _______ _____ _____    ______ ____
ROOT
ATOM      1  N   UNL     1       2.900   4.934  18.400  0.00  0.00    +0.000 NA
ATOM      2  C   UNL     1       2.782   6.421  18.288  0.00  0.00    +0.000 C 
ATOM      3  C   UNL     1       2.313   6.861  19.672  0.00  0.00    +0.000 C 
ATOM      4  C   UNL     1       1.260   5.801  19.992  0.00  0.00    +0.000 C 
ATOM      5  C   UNL     1       1.740   4.516  19.280  0.00  0.00    +0.000 C 
ENDROOT
BRANCH   3   6
ATOM      6  N   UNL     1       1.873   8.236  19.839  0.00  0.00    +0.000 N 
ATOM      7  C   UNL     1       1.364   8.768  20.996  0.00  0.00    +0.000 C 
ATOM      8  O   UNL     1       1.482   8.306  22.123  0.00  0.00    +0.000 OA
ATOM      9  C   UNL     1       0.549  10.005  20.665  0.00  0.00    +0.000 C 
ATOM     10  N   UNL     1       0.764  10.083  19.245  0.00  0.00    +0.000 N 
ATOM     11  C   UNL     1       0.048  11.007  18.398  0.00  0.00    +0.000 C 
ATOM     12  C   UNL     1       1.446   8.979  18.769  0.00  0.00    +0.000 C 
ATOM     13  O   UNL     1       1.584   8.694  17.590  0.00  0.00    +0.000 OA
ENDBRANCH   3   6
BRANCH   5  14
ATOM     14  C   UNL     1       1.840   3.336  20.233  0.00  0.00    +0.000 C 
ATOM     15  O   UNL     1       1.340   2.235  19.970  0.00  0.00    +0.000 OA
ATOM     16  N   UNL     1       2.436   3.556  21.455  0.00  0.00    +0.000 N 
ATOM     17  H   UNL     1       3.188   4.243  21.565  0.00  0.00    +0.000 HD
BRANCH  16  18
ATOM     18  O   UNL     1       2.521   2.415  22.295  0.00  0.00    +0.000 OA
ATOM     19  H   UNL     1       1.912   2.652  23.031  0.00  0.00    +0.000 HD
ENDBRANCH  16  18
ENDBRANCH   5  14
BRANCH   1  20
ATOM     20  S   UNL     1       4.428   4.315  18.840  0.00  0.00    +0.000 S 
ATOM     21  O   UNL     1       4.299   2.890  19.006  0.00  0.00    +0.000 OA
ATOM     22  O   UNL     1       4.885   5.149  19.929  0.00  0.00    +0.000 OA
BRANCH  20  26
ATOM     23  C   UNL     1       7.013   5.097  15.158  0.00  0.00    +0.000 A 
ATOM     24  C   UNL     1       7.222   5.830  16.332  0.00  0.00    +0.000 A 
ATOM     25  C   UNL     1       6.453   5.581  17.473  0.00  0.00    +0.000 A 
ATOM     26  C   UNL     1       5.459   4.601  17.427  0.00  0.00    +0.000 A 
ATOM     27  C   UNL     1       5.250   3.855  16.266  0.00  0.00    +0.000 A 
ATOM     28  C   UNL     1       6.029   4.106  15.130  0.00  0.00    +0.000 A 
BRANCH  23  30
ATOM     29  C   UNL     1       7.471   4.924  12.835  0.00  0.00    +0.000 C 
ATOM     30  O   UNL     1       7.805   5.467  14.106  0.00  0.00    +0.000 OA
ENDBRANCH  23  30
ENDBRANCH  20  26
ENDBRANCH   1  20
TORSDOF 6
ENDMDL
MODEL 2
REMARK VINA RESULT:      -7.6      2.236      6.341
REMARK  Name = 
REMARK  8 active torsions:
REMARK  status: ('A' for Active; 'I' for Inactive)
REMARK    1  A    between atoms: C_1  and  O_2
REMARK    2  A    between atoms: O_2  and  C_3
REMARK    3  A    between atoms: C_6  and  S_7
REMARK    4  A    between atoms: S_7  and  N_10
REMARK    5  A    between atoms: C_12  and  N_13
REMARK    6  A    between atoms: N_17  and  C_18
REMARK    7  A    between atoms: C_22  and  C_23
REMARK    8  A    between atoms: N_25  and  O_26
REMARK                            x       y       z     vdW  Elec       q    Type
REMARK                         _______ _______ _______ _____ _____    ______ ____
ROOT
ATOM      1  N   UNL     1       3.530   5.353  19.874  0.00  0.00    +0.000 NA
ATOM      2  C   UNL     1       4.553   5.664  18.829  0.00  0.00    +0.000 C 
ATOM      3  C   UNL     1       4.726   4.347  18.077  0.00  0.00    +0.000 C 
ATOM      4  C   UNL     1       4.751   3.339  19.224  0.00  0.00    +0.000 C 
ATOM      5  C   UNL     1       3.845   3.941  20.321  0.00  0.00    +0.000 C 
ENDROOT
BRANCH   3   6
ATOM      6  N   UNL     1       5.830   4.237  17.136  0.00  0.00    +0.000 N 
ATOM      7  C   UNL     1       7.125   4.604  17.393  0.00  0.00    +0.000 C 
ATOM      8  O   UNL     1       7.629   4.776  18.495  0.00  0.00    +0.000 OA
ATOM      9  C   UNL     1       7.849   4.846  16.080  0.00  0.00    +0.000 C 
ATOM     10  N   UNL     1       6.813   4.490  15.147  0.00  0.00    +0.000 N 
ATOM     11  C   UNL     1       6.935   4.714  13.726  0.00  0.00    +0.000 C 
ATOM     12  C   UNL     1       5.612   4.245  15.783  0.00  0.00    +0.000 C 
ATOM     13  O   UNL     1       4.533   4.122  15.224  0.00  0.00    +0.000 OA
ENDBRANCH   3   6
BRANCH   5  14
ATOM     14  C   UNL     1       2.757   2.975  20.761  0.00  0.00    +0.000 C 
ATOM     15  O   UNL     1       2.252   2.156  19.982  0.00  0.00    +0.000 OA
ATOM     16  N   UNL     1       2.282   3.097  22.047  0.00  0.00    +0.000 N 
ATOM     17  H   UNL     1       2.886   3.418  22.811  0.00  0.00    +0.000 HD
BRANCH  16  18
ATOM     18  O   UNL     1       1.284   2.156  22.411  0.00  0.00    +0.000 OA
ATOM     19  H   UNL     1       1.577   1.877  23.308  0.00  0.00    +0.000 HD
ENDBRANCH  16  18
ENDBRANCH   5  14
BRANCH   1  20
ATOM     20  S   UNL     1       1.899   5.658  19.469  0.00  0.00    +0.000 S 
ATOM     21  O   UNL     1       1.086   5.298  20.602  0.00  0.00    +0.000 OA
ATOM     22  O   UNL     1       1.696   5.031  18.183  0.00  0.00    +0.000 OA
BRANCH  20  26
ATOM     23  C   UNL     1       1.566  10.178  18.912  0.00  0.00    +0.000 A 
ATOM     24  C   UNL     1       1.285   9.600  20.155  0.00  0.00    +0.000 A 
ATOM     25  C   UNL     1       1.407   8.221  20.343  0.00  0.00    +0.000 A 
ATOM     26  C   UNL     1       1.801   7.416  19.272  0.00  0.00    +0.000 A 
ATOM     27  C   UNL     1       2.097   7.983  18.030  0.00  0.00    +0.000 A 
ATOM     28  C   UNL     1       1.978   9.366  17.853  0.00  0.00    +0.000 A 
BRANCH  23  30
ATOM     29  C   UNL     1       2.395  12.298  18.237  0.00  0.00    +0.000 C 
ATOM     30  O   UNL     1       1.368  11.530  18.853  0.00  0.00    +0.000 OA
ENDBRANCH  23  30
ENDBRANCH  20  26
ENDBRANCH   1  20
TORSDOF 6
ENDMDL
MODEL 3
REMARK VINA RESULT:      -7.5      0.545      1.551
REMARK  Name = 
REMARK  8 active torsions:
REMARK  status: ('A' for Active; 'I' for Inactive)
REMARK    1  A    between atoms: C_1  and  O_2
REMARK    2  A    between atoms: O_2  and  C_3
REMARK    3  A    between atoms: C_6  and  S_7
REMARK    4  A    between atoms: S_7  and  N_10
REMARK    5  A    between atoms: C_12  and  N_13
REMARK    6  A    between atoms: N_17  and  C_18
REMARK    7  A    between atoms: C_22  and  C_23
REMARK    8  A    between atoms: N_25  and  O_26
REMARK                            x       y       z     vdW  Elec       q    Type
REMARK                         _______ _______ _______ _____ _____    ______ ____
ROOT
ATOM      1  N   UNL     1       2.941   4.763  18.235  0.00  0.00    +0.000 NA
ATOM      2  C   UNL     1       2.696   6.216  17.984  0.00  0.00    +0.000 C 
ATOM      3  C   UNL     1       2.140   6.732  19.309  0.00  0.00    +0.000 C 
ATOM      4  C   UNL     1       1.174   5.613  19.694  0.00  0.00    +0.000 C 
ATOM      5  C   UNL     1       1.791   4.320  19.116  0.00  0.00    +0.000 C 
ENDROOT
BRANCH   3   6
ATOM      6  N   UNL     1       1.573   8.071  19.338  0.00  0.00    +0.000 N 
ATOM      7  C   UNL     1       1.775   9.034  18.385  0.00  0.00    +0.000 C 
ATOM      8  O   UNL     1       2.176   8.856  17.242  0.00  0.00    +0.000 OA
ATOM      9  C   UNL     1       1.494  10.401  18.983  0.00  0.00    +0.000 C 
ATOM     10  N   UNL     1       1.060  10.021  20.300  0.00  0.00    +0.000 N 
ATOM     11  C   UNL     1       0.832  10.981  21.353  0.00  0.00    +0.000 C 
ATOM     12  C   UNL     1       1.219   8.666  20.521  0.00  0.00    +0.000 C 
ATOM     13  O   UNL     1       1.121   8.115  21.606  0.00  0.00    +0.000 OA
ENDBRANCH   3   6
BRANCH   5  14
ATOM     14  C   UNL     1       1.960   3.242  20.175  0.00  0.00    +0.000 C 
ATOM     15  O   UNL     1       1.602   2.072  19.985  0.00  0.00    +0.000 OA
ATOM     16  N   UNL     1       2.450   3.630  21.402  0.00  0.00    +0.000 N 
ATOM     17  H   UNL     1       3.114   4.406  21.490  0.00  0.00    +0.000 HD
BRANCH  16  18
ATOM     18  O   UNL     1       2.608   2.580  22.344  0.00  0.00    +0.000 OA
ATOM     19  H   UNL     1       1.676   2.324  22.529  0.00  0.00    +0.000 HD
ENDBRANCH  16  18
ENDBRANCH   5  14
BRANCH   1  20
ATOM     20  S   UNL     1       4.501   4.327  18.773  0.00  0.00    +0.000 S 
ATOM     21  O   UNL     1       4.500   2.911  19.039  0.00  0.00    +0.000 OA
ATOM     22  O   UNL     1       4.831   5.276  19.812  0.00  0.00    +0.000 OA
BRANCH  20  26
ATOM     23  C   UNL     1       7.154   5.102  15.138  0.00  0.00    +0.000 A 
ATOM     24  C   UNL     1       7.304   5.875  16.296  0.00  0.00    +0.000 A 
ATOM     25  C   UNL     1       6.514   5.630  17.422  0.00  0.00    +0.000 A 
ATOM     26  C   UNL     1       5.559   4.612  17.380  0.00  0.00    +0.000 A 
ATOM     27  C   UNL     1       5.409   3.826  16.235  0.00  0.00    +0.000 A 
ATOM     28  C   UNL     1       6.209   4.074  15.114  0.00  0.00    +0.000 A 
BRANCH  23  30
ATOM     29  C   UNL     1       7.594   4.997  12.808  0.00  0.00    +0.000 C 
ATOM     30  O   UNL     1       7.961   5.472  14.097  0.00  0.00    +0.000 OA
ENDBRANCH  23  30
ENDBRANCH  20  26
ENDBRANCH   1  20
TORSDOF 6
ENDMDL
MODEL 4
REMARK VINA RESULT:      -7.3      1.351      1.737
REMARK  Name = 
REMARK  8 active torsions:
REMARK  status: ('A' for Active; 'I' for Inactive)
REMARK    1  A    between atoms: C_1  and  O_2
REMARK    2  A    between atoms: O_2  and  C_3
REMARK    3  A    between atoms: C_6  and  S_7
REMARK    4  A    between atoms: S_7  and  N_10
REMARK    5  A    between atoms: C_12  and  N_13
REMARK    6  A    between atoms: N_17  and  C_18
REMARK    7  A    between atoms: C_22  and  C_23
REMARK    8  A    between atoms: N_25  and  O_26
REMARK                            x       y       z     vdW  Elec       q    Type
REMARK                         _______ _______ _______ _____ _____    ______ ____
ROOT
ATOM      1  N   UNL     1       2.481   4.426  18.245  0.00  0.00    +0.000 NA
ATOM      2  C   UNL     1       2.532   5.917  18.147  0.00  0.00    +0.000 C 
ATOM      3  C   UNL     1       2.253   6.390  19.571  0.00  0.00    +0.000 C 
ATOM      4  C   UNL     1       1.117   5.459  19.989  0.00  0.00    +0.000 C 
ATOM      5  C   UNL     1       1.370   4.136  19.232  0.00  0.00    +0.000 C 
ENDROOT
BRANCH   3   6
ATOM      6  N   UNL     1       1.998   7.806  19.783  0.00  0.00    +0.000 N 
ATOM      7  C   UNL     1       1.381   8.341  20.884  0.00  0.00    +0.000 C 
ATOM      8  O   UNL     1       1.233   7.799  21.971  0.00  0.00    +0.000 OA
ATOM      9  C   UNL     1       0.827   9.711  20.534  0.00  0.00    +0.000 C 
ATOM     10  N   UNL     1       1.293   9.838  19.179  0.00  0.00    +0.000 N 
ATOM     11  C   UNL     1       0.879  10.915  18.311  0.00  0.00    +0.000 C 
ATOM     12  C   UNL     1       1.878   8.671  18.727  0.00  0.00    +0.000 C 
ATOM     13  O   UNL     1       2.174   8.439  17.565  0.00  0.00    +0.000 OA
ENDBRANCH   3   6
BRANCH   5  14
ATOM     14  C   UNL     1       1.419   2.940  20.168  0.00  0.00    +0.000 C 
ATOM     15  O   UNL     1       1.268   1.780  19.762  0.00  0.00    +0.000 OA
ATOM     16  N   UNL     1       1.552   3.194  21.515  0.00  0.00    +0.000 N 
ATOM     17  H   UNL     1       2.072   4.009  21.855  0.00  0.00    +0.000 HD
BRANCH  16  18
ATOM     18  O   UNL     1       1.615   2.040  22.340  0.00  0.00    +0.000 OA
ATOM     19  H   UNL     1       0.738   2.056  22.788  0.00  0.00    +0.000 HD
ENDBRANCH  16  18
ENDBRANCH   5  14
BRANCH   1  20
ATOM     20  S   UNL     1       3.960   3.624  18.533  0.00  0.00    +0.000 S 
ATOM     21  O   UNL     1       4.018   2.473  17.668  0.00  0.00    +0.000 OA
ATOM     22  O   UNL     1       4.047   3.477  19.969  0.00  0.00    +0.000 OA
BRANCH  20  26
ATOM     23  C   UNL     1       7.110   6.628  17.151  0.00  0.00    +0.000 A 
ATOM     24  C   UNL     1       7.083   6.200  18.483  0.00  0.00    +0.000 A 
ATOM     25  C   UNL     1       6.139   5.262  18.911  0.00  0.00    +0.000 A 
ATOM     26  C   UNL     1       5.208   4.763  17.998  0.00  0.00    +0.000 A 
ATOM     27  C   UNL     1       5.233   5.172  16.663  0.00  0.00    +0.000 A 
ATOM     28  C   UNL     1       6.186   6.107  16.242  0.00  0.00    +0.000 A 
BRANCH  23  30
ATOM     29  C   UNL     1       8.050   8.739  17.692  0.00  0.00    +0.000 C 
ATOM     30  O   UNL     1       8.057   7.575  16.874  0.00  0.00    +0.000 OA
ENDBRANCH  23  30
ENDBRANCH  20  26
ENDBRANCH   1  20
TORSDOF 6
ENDMDL
MODEL 5
REMARK VINA RESULT:      -7.1      0.963      1.956
REMARK  Name = 
REMARK  8 active torsions:
REMARK  status: ('A' for Active; 'I' for Inactive)
REMARK    1  A    between atoms: C_1  and  O_2
REMARK    2  A    between atoms: O_2  and  C_3
REMARK    3  A    between atoms: C_6  and  S_7
REMARK    4  A    between atoms: S_7  and  N_10
REMARK    5  A    between atoms: C_12  and  N_13
REMARK    6  A    between atoms: N_17  and  C_18
REMARK    7  A    between atoms: C_22  and  C_23
REMARK    8  A    between atoms: N_25  and  O_26
REMARK                            x       y       z     vdW  Elec       q    Type
REMARK                         _______ _______ _______ _____ _____    ______ ____
ROOT
ATOM      1  N   UNL     1       2.693   4.830  18.682  0.00  0.00    +0.000 NA
ATOM      2  C   UNL     1       2.445   6.213  18.169  0.00  0.00    +0.000 C 
ATOM      3  C   UNL     1       2.138   7.024  19.425  0.00  0.00    +0.000 C 
ATOM      4  C   UNL     1       1.225   6.069  20.192  0.00  0.00    +0.000 C 
ATOM      5  C   UNL     1       1.702   4.649  19.812  0.00  0.00    +0.000 C 
ENDROOT
BRANCH   3   6
ATOM      6  N   UNL     1       1.618   8.371  19.258  0.00  0.00    +0.000 N 
ATOM      7  C   UNL     1       1.901   9.202  18.206  0.00  0.00    +0.000 C 
ATOM      8  O   UNL     1       2.353   8.872  17.117  0.00  0.00    +0.000 OA
ATOM      9  C   UNL     1       1.639  10.641  18.615  0.00  0.00    +0.000 C 
ATOM     10  N   UNL     1       1.125  10.440  19.943  0.00  0.00    +0.000 N 
ATOM     11  C   UNL     1       0.878  11.530  20.856  0.00  0.00    +0.000 C 
ATOM     12  C   UNL     1       1.225   9.119  20.337  0.00  0.00    +0.000 C 
ATOM     13  O   UNL     1       1.053   8.711  21.475  0.00  0.00    +0.000 OA
ENDBRANCH   3   6
BRANCH   5  14
ATOM     14  C   UNL     1       2.023   3.806  21.036  0.00  0.00    +0.000 C 
ATOM     15  O   UNL     1       2.578   4.282  22.035  0.00  0.00    +0.000 OA
ATOM     16  N   UNL     1       1.751   2.458  20.966  0.00  0.00    +0.000 N 
ATOM     17  H   UNL     1       0.970   2.100  20.408  0.00  0.00    +0.000 HD
BRANCH  16  18
ATOM     18  O   UNL     1       2.049   1.724  22.143  0.00  0.00    +0.000 OA
ATOM     19  H   UNL     1       1.163   1.391  22.412  0.00  0.00    +0.000 HD
ENDBRANCH  16  18
ENDBRANCH   5  14
BRANCH   1  20
ATOM     20  S   UNL     1       4.311   4.421  19.040  0.00  0.00    +0.000 S 
ATOM     21  O   UNL     1       4.339   3.044  19.460  0.00  0.00    +0.000 OA
ATOM     22  O   UNL     1       4.792   5.471  19.909  0.00  0.00    +0.000 OA
BRANCH  20  26
ATOM     23  C   UNL     1       6.535   4.609  15.055  0.00  0.00    +0.000 A 
ATOM     24  C   UNL     1       5.148   4.423  15.079  0.00  0.00    +0.000 A 
ATOM     25  C   UNL     1       4.454   4.388  16.291  0.00  0.00    +0.000 A 
ATOM     26  C   UNL     1       5.161   4.528  17.488  0.00  0.00    +0.000 A 
ATOM     27  C   UNL     1       6.543   4.728  17.477  0.00  0.00    +0.000 A 
ATOM     28  C   UNL     1       7.228   4.768  16.257  0.00  0.00    +0.000 A 
BRANCH  23  30
ATOM     29  C   UNL     1       6.482   3.724  12.853  0.00  0.00    +0.000 C 
ATOM     30  O   UNL     1       7.093   4.584  13.807  0.00  0.00    +0.000 OA
ENDBRANCH  23  30
ENDBRANCH  20  26
ENDBRANCH   1  20
TORSDOF 6
ENDMDL
MODEL 6
REMARK VINA RESULT:      -7.1      2.404      3.470
REMARK  Name = 
REMARK  8 active torsions:
REMARK  status: ('A' for Active; 'I' for Inactive)
REMARK    1  A    between atoms: C_1  and  O_2
REMARK    2  A    between atoms: O_2  and  C_3
REMARK    3  A    between atoms: C_6  and  S_7
REMARK    4  A    between atoms: S_7  and  N_10
REMARK    5  A    between atoms: C_12  and  N_13
REMARK    6  A    between atoms: N_17  and  C_18
REMARK    7  A    between atoms: C_22  and  C_23
REMARK    8  A    between atoms: N_25  and  O_26
REMARK                            x       y       z     vdW  Elec       q    Type
REMARK                         _______ _______ _______ _____ _____    ______ ____
ROOT
ATOM      1  N   UNL     1       4.285   5.082  17.325  0.00  0.00    +0.000 NA
ATOM      2  C   UNL     1       3.776   6.474  17.517  0.00  0.00    +0.000 C 
ATOM      3  C   UNL     1       2.872   6.372  18.743  0.00  0.00    +0.000 C 
ATOM      4  C   UNL     1       2.125   5.068  18.467  0.00  0.00    +0.000 C 
ATOM      5  C   UNL     1       3.116   4.186  17.676  0.00  0.00    +0.000 C 
ENDROOT
BRANCH   3   6
ATOM      6  N   UNL     1       2.026   7.510  19.066  0.00  0.00    +0.000 N 
ATOM      7  C   UNL     1       1.951   8.669  18.338  0.00  0.00    +0.000 C 
ATOM      8  O   UNL     1       2.309   8.825  17.179  0.00  0.00    +0.000 OA
ATOM      9  C   UNL     1       1.412   9.782  19.219  0.00  0.00    +0.000 C 
ATOM     10  N   UNL     1       1.154   9.049  20.430  0.00  0.00    +0.000 N 
ATOM     11  C   UNL     1       0.786   9.694  21.667  0.00  0.00    +0.000 C 
ATOM     12  C   UNL     1       1.623   7.752  20.353  0.00  0.00    +0.000 C 
ATOM     13  O   UNL     1       1.717   6.982  21.297  0.00  0.00    +0.000 OA
ENDBRANCH   3   6
BRANCH   5  14
ATOM     14  C   UNL     1       3.312   2.824  18.321  0.00  0.00    +0.000 C 
ATOM     15  O   UNL     1       2.782   2.525  19.400  0.00  0.00    +0.000 OA
ATOM     16  N   UNL     1       4.178   1.948  17.705  0.00  0.00    +0.000 N 
ATOM     17  H   UNL     1       4.300   1.947  16.687  0.00  0.00    +0.000 HD
BRANCH  16  18
ATOM     18  O   UNL     1       4.305   0.684  18.338  0.00  0.00    +0.000 OA
ATOM     19  H   UNL     1       3.610   0.154  17.886  0.00  0.00    +0.000 HD
ENDBRANCH  16  18
ENDBRANCH   5  14
BRANCH   1  20
ATOM     20  S   UNL     1       5.769   4.695  18.076  0.00  0.00    +0.000 S 
ATOM     21  O   UNL     1       6.445   3.726  17.252  0.00  0.00    +0.000 OA
ATOM     22  O   UNL     1       5.440   4.397  19.452  0.00  0.00    +0.000 OA
BRANCH  20  26
ATOM     23  C   UNL     1       8.124   8.607  17.988  0.00  0.00    +0.000 A 
ATOM     24  C   UNL     1       8.507   7.575  18.852  0.00  0.00    +0.000 A 
ATOM     25  C   UNL     1       7.808   6.365  18.870  0.00  0.00    +0.000 A 
ATOM     26  C   UNL     1       6.710   6.197  18.024  0.00  0.00    +0.000 A 
ATOM     27  C   UNL     1       6.326   7.214  17.148  0.00  0.00    +0.000 A 
ATOM     28  C   UNL     1       7.035   8.420  17.133  0.00  0.00    +0.000 A 
BRANCH  23  30
ATOM     29  C   UNL     1       9.206  10.162  19.418  0.00  0.00    +0.000 C 
ATOM     30  O   UNL     1       8.866   9.750  18.100  0.00  0.00    +0.000 OA
ENDBRANCH  23  30
ENDBRANCH  20  26
ENDBRANCH   1  20
TORSDOF 6
ENDMDL
MODEL 7
REMARK VINA RESULT:      -7.1      3.474      6.084
REMARK  Name = 
REMARK  8 active torsions:
REMARK  status: ('A' for Active; 'I' for Inactive)
REMARK    1  A    between atoms: C_1  and  O_2
REMARK    2  A    between atoms: O_2  and  C_3
REMARK    3  A    between atoms: C_6  and  S_7
REMARK    4  A    between atoms: S_7  and  N_10
REMARK    5  A    between atoms: C_12  and  N_13
REMARK    6  A    between atoms: N_17  and  C_18
REMARK    7  A    between atoms: C_22  and  C_23
REMARK    8  A    between atoms: N_25  and  O_26
REMARK                            x       y       z     vdW  Elec       q    Type
REMARK                         _______ _______ _______ _____ _____    ______ ____
ROOT
ATOM      1  N   UNL     1       5.414   5.857  17.636  0.00  0.00    +0.000 NA
ATOM      2  C   UNL     1       4.357   5.437  18.607  0.00  0.00    +0.000 C 
ATOM      3  C   UNL     1       4.077   3.982  18.240  0.00  0.00    +0.000 C 
ATOM      4  C   UNL     1       4.056   4.046  16.714  0.00  0.00    +0.000 C 
ATOM      5  C   UNL     1       5.047   5.170  16.337  0.00  0.00    +0.000 C 
ENDROOT
BRANCH   3   6
ATOM      6  N   UNL     1       2.923   3.335  18.845  0.00  0.00    +0.000 N 
ATOM      7  C   UNL     1       1.617   3.569  18.502  0.00  0.00    +0.000 C 
ATOM      8  O   UNL     1       1.217   4.087  17.467  0.00  0.00    +0.000 OA
ATOM      9  C   UNL     1       0.713   3.150  19.647  0.00  0.00    +0.000 C 
ATOM     10  N   UNL     1       1.687   2.615  20.561  0.00  0.00    +0.000 N 
ATOM     11  C   UNL     1       1.358   2.230  21.912  0.00  0.00    +0.000 C 
ATOM     12  C   UNL     1       2.977   2.834  20.119  0.00  0.00    +0.000 C 
ATOM     13  O   UNL     1       3.986   2.666  20.788  0.00  0.00    +0.000 OA
ENDBRANCH   3   6
BRANCH   5  14
ATOM     14  C   UNL     1       6.103   4.697  15.352  0.00  0.00    +0.000 C 
ATOM     15  O   UNL     1       6.347   3.496  15.177  0.00  0.00    +0.000 OA
ATOM     16  N   UNL     1       6.851   5.660  14.712  0.00  0.00    +0.000 N 
ATOM     17  H   UNL     1       6.457   6.580  14.489  0.00  0.00    +0.000 HD
BRANCH  16  18
ATOM     18  O   UNL     1       7.805   5.162  13.787  0.00  0.00    +0.000 OA
ATOM     19  H   UNL     1       8.428   5.920  13.701  0.00  0.00    +0.000 HD
ENDBRANCH  16  18
ENDBRANCH   5  14
BRANCH   1  20
ATOM     20  S   UNL     1       7.035   5.679  18.138  0.00  0.00    +0.000 S 
ATOM     21  O   UNL     1       7.742   4.957  17.111  0.00  0.00    +0.000 OA
ATOM     22  O   UNL     1       6.968   5.171  19.489  0.00  0.00    +0.000 OA
BRANCH  20  26
ATOM     23  C   UNL     1       8.623   9.959  18.280  0.00  0.00    +0.000 A 
ATOM     24  C   UNL     1       9.095   9.003  19.187  0.00  0.00    +0.000 A 
ATOM     25  C   UNL     1       8.634   7.685  19.136  0.00  0.00    +0.000 A 
ATOM     26  C   UNL     1       7.683   7.329  18.178  0.00  0.00    +0.000 A 
ATOM     27  C   UNL     1       7.214   8.270  17.260  0.00  0.00    +0.000 A 
ATOM     28  C   UNL     1       7.686   9.587  17.313  0.00  0.00    +0.000 A 
BRANCH  23  30
ATOM     29  C   UNL     1      10.368  11.506  17.834  0.00  0.00    +0.000 C 
ATOM     30  O   UNL     1       9.125  11.218  18.464  0.00  0.00    +0.000 OA
ENDBRANCH  23  30
ENDBRANCH  20  26
ENDBRANCH   1  20
TORSDOF 6
ENDMDL
MODEL 8
REMARK VINA RESULT:      -7.0      6.965      9.426
REMARK  Name = 
REMARK  8 active torsions:
REMARK  status: ('A' for Active; 'I' for Inactive)
REMARK    1  A    between atoms: C_1  and  O_2
REMARK    2  A    between atoms: O_2  and  C_3
REMARK    3  A    between atoms: C_6  and  S_7
REMARK    4  A    between atoms: S_7  and  N_10
REMARK    5  A    between atoms: C_12  and  N_13
REMARK    6  A    between atoms: N_17  and  C_18
REMARK    7  A    between atoms: C_22  and  C_23
REMARK    8  A    between atoms: N_25  and  O_26
REMARK                            x       y       z     vdW  Elec       q    Type
REMARK                         _______ _______ _______ _____ _____    ______ ____
ROOT
ATOM      1  N   UNL     1       0.604  11.772  19.689  0.00  0.00    +0.000 NA
ATOM      2  C   UNL     1      -0.450  11.976  18.647  0.00  0.00    +0.000 C 
ATOM      3  C   UNL     1      -1.687  11.304  19.237  0.00  0.00    +0.000 C 
ATOM      4  C   UNL     1      -1.095  10.020  19.815  0.00  0.00    +0.000 C 
ATOM      5  C   UNL     1       0.344  10.387  20.242  0.00  0.00    +0.000 C 
ENDROOT
BRANCH   3   6
ATOM      6  N   UNL     1      -2.840  11.114  18.370  0.00  0.00    +0.000 N 
ATOM      7  C   UNL     1      -2.790  10.657  17.079  0.00  0.00    +0.000 C 
ATOM      8  O   UNL     1      -1.864  10.053  16.555  0.00  0.00    +0.000 OA
ATOM      9  C   UNL     1      -4.050  11.081  16.346  0.00  0.00    +0.000 C 
ATOM     10  N   UNL     1      -4.765  11.726  17.416  0.00  0.00    +0.000 N 
ATOM     11  C   UNL     1      -5.981  12.473  17.201  0.00  0.00    +0.000 C 
ATOM     12  C   UNL     1      -3.993  11.830  18.557  0.00  0.00    +0.000 C 
ATOM     13  O   UNL     1      -4.275  12.503  19.537  0.00  0.00    +0.000 OA
ENDBRANCH   3   6
BRANCH   5  14
ATOM     14  C   UNL     1       0.617  10.038  21.696  0.00  0.00    +0.000 C 
ATOM     15  O   UNL     1       1.755   9.775  22.107  0.00  0.00    +0.000 OA
ATOM     16  N   UNL     1      -0.468   9.937  22.538  0.00  0.00    +0.000 N 
ATOM     17  H   UNL     1      -1.307  10.509  22.399  0.00  0.00    +0.000 HD
BRANCH  16  18
ATOM     18  O   UNL     1      -0.154   9.631  23.888  0.00  0.00    +0.000 OA
ATOM     19  H   UNL     1      -1.034   9.389  24.258  0.00  0.00    +0.000 HD
ENDBRANCH  16  18
ENDBRANCH   5  14
BRANCH   1  20
ATOM     20  S   UNL     1       0.789  13.013  20.848  0.00  0.00    +0.000 S 
ATOM     21  O   UNL     1       2.155  12.993  21.304  0.00  0.00    +0.000 OA
ATOM     22  O   UNL     1      -0.306  12.841  21.776  0.00  0.00    +0.000 OA
BRANCH  20  26
ATOM     23  C   UNL     1       0.167  16.940  18.602  0.00  0.00    +0.000 A 
ATOM     24  C   UNL     1       1.377  16.246  18.484  0.00  0.00    +0.000 A 
ATOM     25  C   UNL     1       1.569  15.032  19.148  0.00  0.00    +0.000 A 
ATOM     26  C   UNL     1       0.544  14.518  19.945  0.00  0.00    +0.000 A 
ATOM     27  C   UNL     1      -0.673  15.194  20.059  0.00  0.00    +0.000 A 
ATOM     28  C   UNL     1      -0.859  16.407  19.386  0.00  0.00    +0.000 A 
BRANCH  23  30
ATOM     29  C   UNL     1       1.118  18.340  16.937  0.00  0.00    +0.000 C 
ATOM     30  O   UNL     1       0.125  18.133  17.934  0.00  0.00    +0.000 OA
ENDBRANCH  23  30
ENDBRANCH  20  26
ENDBRANCH   1  20
TORSDOF 6
ENDMDL
MODEL 9
REMARK VINA RESULT:      -7.0      3.047      5.586
REMARK  Name = 
REMARK  8 active torsions:
REMARK  status: ('A' for Active; 'I' for Inactive)
REMARK    1  A    between atoms: C_1  and  O_2
REMARK    2  A    between atoms: O_2  and  C_3
REMARK    3  A    between atoms: C_6  and  S_7
REMARK    4  A    between atoms: S_7  and  N_10
REMARK    5  A    between atoms: C_12  and  N_13
REMARK    6  A    between atoms: N_17  and  C_18
REMARK    7  A    between atoms: C_22  and  C_23
REMARK    8  A    between atoms: N_25  and  O_26
REMARK                            x       y       z     vdW  Elec       q    Type
REMARK                         _______ _______ _______ _____ _____    ______ ____
ROOT
ATOM      1  N   UNL     1       6.462   4.662  16.917  0.00  0.00    +0.000 NA
ATOM      2  C   UNL     1       5.184   3.934  17.185  0.00  0.00    +0.000 C 
ATOM      3  C   UNL     1       4.438   4.842  18.159  0.00  0.00    +0.000 C 
ATOM      4  C   UNL     1       5.560   5.264  19.107  0.00  0.00    +0.000 C 
ATOM      5  C   UNL     1       6.841   5.288  18.243  0.00  0.00    +0.000 C 
ENDROOT
BRANCH   3   6
ATOM      6  N   UNL     1       3.249   4.315  18.809  0.00  0.00    +0.000 N 
ATOM      7  C   UNL     1       2.059   4.984  18.940  0.00  0.00    +0.000 C 
ATOM      8  O   UNL     1       1.695   5.955  18.291  0.00  0.00    +0.000 OA
ATOM      9  C   UNL     1       1.265   4.379  20.084  0.00  0.00    +0.000 C 
ATOM     10  N   UNL     1       2.138   3.298  20.459  0.00  0.00    +0.000 N 
ATOM     11  C   UNL     1       1.922   2.498  21.640  0.00  0.00    +0.000 C 
ATOM     12  C   UNL     1       3.338   3.348  19.776  0.00  0.00    +0.000 C 
ATOM     13  O   UNL     1       4.326   2.681  20.043  0.00  0.00    +0.000 OA
ENDBRANCH   3   6
BRANCH   5  14
ATOM     14  C   UNL     1       7.562   6.623  18.326  0.00  0.00    +0.000 C 
ATOM     15  O   UNL     1       8.595   6.772  18.993  0.00  0.00    +0.000 OA
ATOM     16  N   UNL     1       6.978   7.700  17.697  0.00  0.00    +0.000 N 
ATOM     17  H   UNL     1       6.419   7.581  16.846  0.00  0.00    +0.000 HD
BRANCH  16  18
ATOM     18  O   UNL     1       7.705   8.915  17.787  0.00  0.00    +0.000 OA
ATOM     19  H   UNL     1       8.389   8.801  17.088  0.00  0.00    +0.000 HD
ENDBRANCH  16  18
ENDBRANCH   5  14
BRANCH   1  20
ATOM     20  S   UNL     1       6.484   5.709  15.569  0.00  0.00    +0.000 S 
ATOM     21  O   UNL     1       7.812   6.254  15.451  0.00  0.00    +0.000 OA
ATOM     22  O   UNL     1       5.339   6.576  15.734  0.00  0.00    +0.000 OA
BRANCH  20  26
ATOM     23  C   UNL     1       5.820   2.926  12.010  0.00  0.00    +0.000 A 
ATOM     24  C   UNL     1       4.768   3.205  12.890  0.00  0.00    +0.000 A 
ATOM     25  C   UNL     1       4.954   4.074  13.969  0.00  0.00    +0.000 A 
ATOM     26  C   UNL     1       6.208   4.655  14.171  0.00  0.00    +0.000 A 
ATOM     27  C   UNL     1       7.261   4.396  13.291  0.00  0.00    +0.000 A 
ATOM     28  C   UNL     1       7.064   3.529  12.210  0.00  0.00    +0.000 A 
BRANCH  23  30
ATOM     29  C   UNL     1       6.301   0.845  10.973  0.00  0.00    +0.000 C 
ATOM     30  O   UNL     1       5.516   2.030  11.022  0.00  0.00    +0.000 OA
ENDBRANCH  23  30
ENDBRANCH  20  26
ENDBRANCH   1  20
TORSDOF 6
ENDMDL
