MODEL 1
REMARK VINA RESULT:      -8.7      0.000      0.000
REMARK  Name = 
REMARK  10 active torsions:
REMARK  status: ('A' for Active; 'I' for Inactive)
REMARK    1  A    between atoms: C_1  and  C_2
REMARK    2  A    between atoms: C_2  and  C_3
REMARK    3  A    between atoms: C_3  and  C_4
REMARK    4  A    between atoms: C_3  and  C_6
REMARK    5  A    between atoms: C_4  and  C_5
REMARK    6  A    between atoms: C_6  and  N_7
REMARK    7  A    between atoms: C_9  and  C_10
REMARK    8  A    between atoms: C_10  and  C_11
REMARK    9  A    between atoms: C_15  and  C_16
REMARK   10  A    between atoms: N_27  and  C_28
REMARK                            x       y       z     vdW  Elec       q    Type
REMARK                         _______ _______ _______ _____ _____    ______ ____
ROOT
ATOM      1  C   UNL     1       3.291   5.132  18.698  0.00  0.00    +0.000 C 
ATOM      2  N   UNL     1       3.236   4.857  20.174  0.00  0.00    +0.000 NA
ATOM      3  C   UNL     1       2.422   3.860  20.320  0.00  0.00    +0.000 C 
ATOM      4  N   UNL     1       2.138   3.373  21.546  0.00  0.00    +0.000 N 
ATOM      5  N   UNL     1       1.897   3.341  19.194  0.00  0.00    +0.000 N 
ATOM      6  C   UNL     1       0.971   2.245  19.033  0.00  0.00    +0.000 C 
ATOM      7  C   UNL     1       2.324   4.080  18.130  0.00  0.00    +0.000 C 
ATOM      8  O   UNL     1       1.980   3.919  16.968  0.00  0.00    +0.000 OA
ATOM      9  H   UNL     1       2.770   3.707  22.268  0.00  0.00    +0.000 HD
ATOM     10  H   UNL     1       1.899   2.397  21.634  0.00  0.00    +0.000 HD
ENDROOT
BRANCH   1  11
ATOM     11  C   UNL     1       4.714   5.029  18.135  0.00  0.00    +0.000 A 
ATOM     12  C   UNL     1       5.847   5.293  18.921  0.00  0.00    +0.000 A 
ATOM     13  C   UNL     1       7.127   5.263  18.365  0.00  0.00    +0.000 A 
ATOM     14  C   UNL     1       7.299   4.952  17.016  0.00  0.00    +0.000 A 
ATOM     15  C   UNL     1       6.205   4.662  16.188  0.00  0.00    +0.000 A 
ATOM     16  C   UNL     1       4.924   4.687  16.782  0.00  0.00    +0.000 A 
BRANCH  15  17
ATOM     17  C   UNL     1       6.370   4.387  14.743  0.00  0.00    +0.000 A 
ATOM     18  C   UNL     1       5.492   3.541  14.045  0.00  0.00    +0.000 A 
ATOM     19  C   UNL     1       5.636   3.338  12.673  0.00  0.00    +0.000 A 
ATOM     20  C   UNL     1       6.674   3.976  12.020  0.00  0.00    +0.000 A 
ATOM     21  N   UNL     1       7.554   4.787  12.636  0.00  0.00    +0.000 NA
ATOM     22  C   UNL     1       7.380   4.975  13.967  0.00  0.00    +0.000 A 
ATOM     23  F   UNL     1       8.251   5.820  14.546  0.00  0.00    +0.000 F 
ENDBRANCH  15  17
ENDBRANCH   1  11
BRANCH   1  26
ATOM     24  N   UNL     1       2.020   8.581  18.672  0.00  0.00    +0.000 N 
ATOM     25  C   UNL     1       2.094   7.363  19.277  0.00  0.00    +0.000 A 
ATOM     26  C   UNL     1       2.852   6.550  18.451  0.00  0.00    +0.000 A 
ATOM     27  C   UNL     1       3.097   7.373  17.323  0.00  0.00    +0.000 A 
ATOM     28  N   UNL     1       2.592   8.604  17.456  0.00  0.00    +0.000 NA
BRANCH  24  29
ATOM     29  C   UNL     1       1.501   9.803  19.264  0.00  0.00    +0.000 C 
BRANCH  29  30
ATOM     30  C   UNL     1      -0.021   9.812  19.504  0.00  0.00    +0.000 C 
BRANCH  30  32
ATOM     31  C   UNL     1      -0.197   8.973  21.928  0.00  0.00    +0.000 C 
ATOM     32  C   UNL     1      -0.344  10.151  20.975  0.00  0.00    +0.000 C 
ENDBRANCH  30  32
BRANCH  30  33
ATOM     33  C   UNL     1      -0.731  10.735  18.482  0.00  0.00    +0.000 C 
ATOM     34  C   UNL     1      -1.796  10.069  17.619  0.00  0.00    +0.000 C 
ENDBRANCH  30  33
ENDBRANCH  29  30
ENDBRANCH  24  29
ENDBRANCH   1  26
TORSDOF 7
ENDMDL
MODEL 2
REMARK VINA RESULT:      -8.5      2.994      8.261
REMARK  Name = 
REMARK  10 active torsions:
REMARK  status: ('A' for Active; 'I' for Inactive)
REMARK    1  A    between atoms: C_1  and  C_2
REMARK    2  A    between atoms: C_2  and  C_3
REMARK    3  A    between atoms: C_3  and  C_4
REMARK    4  A    between atoms: C_3  and  C_6
REMARK    5  A    between atoms: C_4  and  C_5
REMARK    6  A    between atoms: C_6  and  N_7
REMARK    7  A    between atoms: C_9  and  C_10
REMARK    8  A    between atoms: C_10  and  C_11
REMARK    9  A    between atoms: C_15  and  C_16
REMARK   10  A    between atoms: N_27  and  C_28
REMARK                            x       y       z     vdW  Elec       q    Type
REMARK                         _______ _______ _______ _____ _____    ______ ____
ROOT
ATOM      1  C   UNL     1       5.898   5.506  17.272  0.00  0.00    +0.000 C 
ATOM      2  N   UNL     1       6.727   4.730  18.254  0.00  0.00    +0.000 NA
ATOM      3  C   UNL     1       7.619   5.557  18.699  0.00  0.00    +0.000 C 
ATOM      4  N   UNL     1       8.544   5.159  19.598  0.00  0.00    +0.000 N 
ATOM      5  N   UNL     1       7.560   6.816  18.227  0.00  0.00    +0.000 N 
ATOM      6  C   UNL     1       8.406   7.949  18.525  0.00  0.00    +0.000 C 
ATOM      7  C   UNL     1       6.565   6.891  17.298  0.00  0.00    +0.000 C 
ATOM      8  O   UNL     1       6.289   7.876  16.627  0.00  0.00    +0.000 OA
ATOM      9  H   UNL     1       8.329   4.265  20.027  0.00  0.00    +0.000 HD
ATOM     10  H   UNL     1       8.913   5.842  20.243  0.00  0.00    +0.000 HD
ENDROOT
BRANCH   1  11
ATOM     11  C   UNL     1       4.411   5.531  17.650  0.00  0.00    +0.000 A 
ATOM     12  C   UNL     1       3.581   4.411  17.486  0.00  0.00    +0.000 A 
ATOM     13  C   UNL     1       2.217   4.482  17.769  0.00  0.00    +0.000 A 
ATOM     14  C   UNL     1       1.658   5.671  18.237  0.00  0.00    +0.000 A 
ATOM     15  C   UNL     1       2.442   6.818  18.436  0.00  0.00    +0.000 A 
ATOM     16  C   UNL     1       3.821   6.711  18.154  0.00  0.00    +0.000 A 
BRANCH  15  17
ATOM     17  C   UNL     1       1.851   8.101  18.877  0.00  0.00    +0.000 A 
ATOM     18  C   UNL     1       1.642   9.166  17.984  0.00  0.00    +0.000 A 
ATOM     19  C   UNL     1       1.036  10.347  18.412  0.00  0.00    +0.000 A 
ATOM     20  C   UNL     1       0.660  10.450  19.738  0.00  0.00    +0.000 A 
ATOM     21  N   UNL     1       0.846   9.470  20.642  0.00  0.00    +0.000 NA
ATOM     22  C   UNL     1       1.426   8.330  20.194  0.00  0.00    +0.000 A 
ATOM     23  F   UNL     1       1.562   7.357  21.111  0.00  0.00    +0.000 F 
ENDBRANCH  15  17
ENDBRANCH   1  11
BRANCH   1  26
ATOM     24  N   UNL     1       5.597   4.197  13.850  0.00  0.00    +0.000 N 
ATOM     25  C   UNL     1       5.074   4.920  14.879  0.00  0.00    +0.000 A 
ATOM     26  C   UNL     1       5.970   4.827  15.931  0.00  0.00    +0.000 A 
ATOM     27  C   UNL     1       6.955   3.933  15.439  0.00  0.00    +0.000 A 
ATOM     28  N   UNL     1       6.728   3.550  14.179  0.00  0.00    +0.000 NA
BRANCH  24  29
ATOM     29  C   UNL     1       5.107   4.175  12.482  0.00  0.00    +0.000 C 
BRANCH  29  30
ATOM     30  C   UNL     1       4.869   2.769  11.900  0.00  0.00    +0.000 C 
BRANCH  30  32
ATOM     31  C   UNL     1       3.417   4.150  10.290  0.00  0.00    +0.000 C 
ATOM     32  C   UNL     1       3.699   2.781  10.893  0.00  0.00    +0.000 C 
ENDBRANCH  30  32
BRANCH  30  33
ATOM     33  C   UNL     1       6.183   2.187  11.321  0.00  0.00    +0.000 C 
ATOM     34  C   UNL     1       6.178   0.688  11.048  0.00  0.00    +0.000 C 
ENDBRANCH  30  33
ENDBRANCH  29  30
ENDBRANCH  24  29
ENDBRANCH   1  26
TORSDOF 7
ENDMDL
MODEL 3
REMARK VINA RESULT:      -8.4      2.591      7.966
REMARK  Name = 
REMARK  10 active torsions:
REMARK  status: ('A' for Active; 'I' for Inactive)
REMARK    1  A    between atoms: C_1  and  C_2
REMARK    2  A    between atoms: C_2  and  C_3
REMARK    3  A    between atoms: C_3  and  C_4
REMARK    4  A    between atoms: C_3  and  C_6
REMARK    5  A    between atoms: C_4  and  C_5
REMARK    6  A    between atoms: C_6  and  N_7
REMARK    7  A    between atoms: C_9  and  C_10
REMARK    8  A    between atoms: C_10  and  C_11
REMARK    9  A    between atoms: C_15  and  C_16
REMARK   10  A    between atoms: N_27  and  C_28
REMARK                            x       y       z     vdW  Elec       q    Type
REMARK                         _______ _______ _______ _____ _____    ______ ____
ROOT
ATOM      1  C   UNL     1       4.418   4.360  17.471  0.00  0.00    +0.000 C 
ATOM      2  N   UNL     1       3.270   3.422  17.236  0.00  0.00    +0.000 NA
ATOM      3  C   UNL     1       3.246   2.624  18.256  0.00  0.00    +0.000 C 
ATOM      4  N   UNL     1       2.329   1.638  18.342  0.00  0.00    +0.000 N 
ATOM      5  N   UNL     1       4.168   2.843  19.212  0.00  0.00    +0.000 N 
ATOM      6  C   UNL     1       4.396   2.131  20.448  0.00  0.00    +0.000 C 
ATOM      7  C   UNL     1       4.982   3.862  18.812  0.00  0.00    +0.000 C 
ATOM      8  O   UNL     1       5.964   4.268  19.417  0.00  0.00    +0.000 OA
ATOM      9  H   UNL     1       1.570   1.734  17.675  0.00  0.00    +0.000 HD
ATOM     10  H   UNL     1       2.029   1.337  19.258  0.00  0.00    +0.000 HD
ENDROOT
BRANCH   1  11
ATOM     11  C   UNL     1       3.980   5.830  17.496  0.00  0.00    +0.000 A 
ATOM     12  C   UNL     1       4.549   6.792  16.646  0.00  0.00    +0.000 A 
ATOM     13  C   UNL     1       4.184   8.135  16.739  0.00  0.00    +0.000 A 
ATOM     14  C   UNL     1       3.230   8.541  17.673  0.00  0.00    +0.000 A 
ATOM     15  C   UNL     1       2.616   7.621  18.535  0.00  0.00    +0.000 A 
ATOM     16  C   UNL     1       2.995   6.267  18.408  0.00  0.00    +0.000 A 
BRANCH  15  17
ATOM     17  C   UNL     1       1.644   8.047  19.568  0.00  0.00    +0.000 A 
ATOM     18  C   UNL     1       1.528   7.376  20.797  0.00  0.00    +0.000 A 
ATOM     19  C   UNL     1       0.643   7.827  21.775  0.00  0.00    +0.000 A 
ATOM     20  C   UNL     1      -0.128   8.941  21.500  0.00  0.00    +0.000 A 
ATOM     21  N   UNL     1      -0.071   9.617  20.338  0.00  0.00    +0.000 NA
ATOM     22  C   UNL     1       0.808   9.162  19.412  0.00  0.00    +0.000 A 
ATOM     23  F   UNL     1       0.870   9.882  18.278  0.00  0.00    +0.000 F 
ENDBRANCH  15  17
ENDBRANCH   1  11
BRANCH   1  26
ATOM     24  N   UNL     1       6.299   3.898  14.347  0.00  0.00    +0.000 N 
ATOM     25  C   UNL     1       5.151   3.728  15.061  0.00  0.00    +0.000 A 
ATOM     26  C   UNL     1       5.387   4.239  16.327  0.00  0.00    +0.000 A 
ATOM     27  C   UNL     1       6.757   4.602  16.279  0.00  0.00    +0.000 A 
ATOM     28  N   UNL     1       7.310   4.395  15.080  0.00  0.00    +0.000 NA
BRANCH  24  29
ATOM     29  C   UNL     1       6.455   3.699  12.915  0.00  0.00    +0.000 C 
BRANCH  29  30
ATOM     30  C   UNL     1       5.307   2.928  12.238  0.00  0.00    +0.000 C 
BRANCH  30  32
ATOM     31  C   UNL     1       3.373   3.170  10.563  0.00  0.00    +0.000 C 
ATOM     32  C   UNL     1       4.412   3.881  11.418  0.00  0.00    +0.000 C 
ENDBRANCH  30  32
BRANCH  30  33
ATOM     33  C   UNL     1       5.858   1.733  11.420  0.00  0.00    +0.000 C 
ATOM     34  C   UNL     1       7.329   1.819  11.034  0.00  0.00    +0.000 C 
ENDBRANCH  30  33
ENDBRANCH  29  30
ENDBRANCH  24  29
ENDBRANCH   1  26
TORSDOF 7
ENDMDL
MODEL 4
REMARK VINA RESULT:      -8.4      3.561      6.970
REMARK  Name = 
REMARK  10 active torsions:
REMARK  status: ('A' for Active; 'I' for Inactive)
REMARK    1  A    between atoms: C_1  and  C_2
REMARK    2  A    between atoms: C_2  and  C_3
REMARK    3  A    between atoms: C_3  and  C_4
REMARK    4  A    between atoms: C_3  and  C_6
REMARK    5  A    between atoms: C_4  and  C_5
REMARK    6  A    between atoms: C_6  and  N_7
REMARK    7  A    between atoms: C_9  and  C_10
REMARK    8  A    between atoms: C_10  and  C_11
REMARK    9  A    between atoms: C_15  and  C_16
REMARK   10  A    between atoms: N_27  and  C_28
REMARK                            x       y       z     vdW  Elec       q    Type
REMARK                         _______ _______ _______ _____ _____    ______ ____
ROOT
ATOM      1  C   UNL     1       0.883  11.183  19.367  0.00  0.00    +0.000 C 
ATOM      2  N   UNL     1       1.668  11.618  18.163  0.00  0.00    +0.000 NA
ATOM      3  C   UNL     1       2.386  12.625  18.549  0.00  0.00    +0.000 C 
ATOM      4  N   UNL     1       3.202  13.265  17.686  0.00  0.00    +0.000 N 
ATOM      5  N   UNL     1       2.277  12.979  19.844  0.00  0.00    +0.000 N 
ATOM      6  C   UNL     1       2.935  14.045  20.562  0.00  0.00    +0.000 C 
ATOM      7  C   UNL     1       1.337  12.188  20.438  0.00  0.00    +0.000 C 
ATOM      8  O   UNL     1       0.948  12.292  21.592  0.00  0.00    +0.000 OA
ATOM      9  H   UNL     1       3.351  12.755  16.820  0.00  0.00    +0.000 HD
ATOM     10  H   UNL     1       4.035  13.706  18.047  0.00  0.00    +0.000 HD
ENDROOT
BRANCH   1  11
ATOM     11  C   UNL     1       1.148   9.720  19.743  0.00  0.00    +0.000 A 
ATOM     12  C   UNL     1       0.743   9.183  20.976  0.00  0.00    +0.000 A 
ATOM     13  C   UNL     1       1.061   7.870  21.324  0.00  0.00    +0.000 A 
ATOM     14  C   UNL     1       1.776   7.062  20.439  0.00  0.00    +0.000 A 
ATOM     15  C   UNL     1       2.191   7.540  19.188  0.00  0.00    +0.000 A 
ATOM     16  C   UNL     1       1.843   8.868  18.858  0.00  0.00    +0.000 A 
BRANCH  15  17
ATOM     17  C   UNL     1       2.999   6.712  18.264  0.00  0.00    +0.000 A 
ATOM     18  C   UNL     1       4.097   7.241  17.563  0.00  0.00    +0.000 A 
ATOM     19  C   UNL     1       4.875   6.429  16.739  0.00  0.00    +0.000 A 
ATOM     20  C   UNL     1       4.532   5.096  16.617  0.00  0.00    +0.000 A 
ATOM     21  N   UNL     1       3.486   4.535  17.252  0.00  0.00    +0.000 NA
ATOM     22  C   UNL     1       2.756   5.347  18.056  0.00  0.00    +0.000 A 
ATOM     23  F   UNL     1       1.743   4.749  18.706  0.00  0.00    +0.000 F 
ENDBRANCH  15  17
ENDBRANCH   1  11
BRANCH   1  26
ATOM     24  N   UNL     1      -2.619  10.850  18.301  0.00  0.00    +0.000 N 
ATOM     25  C   UNL     1      -1.324  10.436  18.220  0.00  0.00    +0.000 A 
ATOM     26  C   UNL     1      -0.584  11.266  19.046  0.00  0.00    +0.000 A 
ATOM     27  C   UNL     1      -1.542  12.209  19.498  0.00  0.00    +0.000 A 
ATOM     28  N   UNL     1      -2.775  11.959  19.046  0.00  0.00    +0.000 NA
BRANCH  24  29
ATOM     29  C   UNL     1      -3.777  10.153  17.767  0.00  0.00    +0.000 C 
BRANCH  29  30
ATOM     30  C   UNL     1      -4.425  10.818  16.538  0.00  0.00    +0.000 C 
BRANCH  30  32
ATOM     31  C   UNL     1      -6.427  11.656  17.916  0.00  0.00    +0.000 C 
ATOM     32  C   UNL     1      -5.300  12.018  16.959  0.00  0.00    +0.000 C 
ENDBRANCH  30  32
BRANCH  30  33
ATOM     33  C   UNL     1      -3.353  11.172  15.478  0.00  0.00    +0.000 C 
ATOM     34  C   UNL     1      -2.941  10.035  14.550  0.00  0.00    +0.000 C 
ENDBRANCH  30  33
ENDBRANCH  29  30
ENDBRANCH  24  29
ENDBRANCH   1  26
TORSDOF 7
ENDMDL
MODEL 5
REMARK VINA RESULT:      -8.3      2.902      7.841
REMARK  Name = 
REMARK  10 active torsions:
REMARK  status: ('A' for Active; 'I' for Inactive)
REMARK    1  A    between atoms: C_1  and  C_2
REMARK    2  A    between atoms: C_2  and  C_3
REMARK    3  A    between atoms: C_3  and  C_4
REMARK    4  A    between atoms: C_3  and  C_6
REMARK    5  A    between atoms: C_4  and  C_5
REMARK    6  A    between atoms: C_6  and  N_7
REMARK    7  A    between atoms: C_9  and  C_10
REMARK    8  A    between atoms: C_10  and  C_11
REMARK    9  A    between atoms: C_15  and  C_16
REMARK   10  A    between atoms: N_27  and  C_28
REMARK                            x       y       z     vdW  Elec       q    Type
REMARK                         _______ _______ _______ _____ _____    ______ ____
ROOT
ATOM      1  C   UNL     1       2.830   4.894  19.203  0.00  0.00    +0.000 C 
ATOM      2  N   UNL     1       2.063   3.959  18.313  0.00  0.00    +0.000 NA
ATOM      3  C   UNL     1       1.454   3.133  19.104  0.00  0.00    +0.000 C 
ATOM      4  N   UNL     1       0.684   2.142  18.610  0.00  0.00    +0.000 N 
ATOM      5  N   UNL     1       1.624   3.330  20.425  0.00  0.00    +0.000 N 
ATOM      6  C   UNL     1       1.087   2.586  21.541  0.00  0.00    +0.000 C 
ATOM      7  C   UNL     1       2.497   4.362  20.607  0.00  0.00    +0.000 C 
ATOM      8  O   UNL     1       2.920   4.755  21.684  0.00  0.00    +0.000 OA
ATOM      9  H   UNL     1       0.468   2.254  17.624  0.00  0.00    +0.000 HD
ATOM     10  H   UNL     1      -0.095   1.815  19.162  0.00  0.00    +0.000 HD
ENDROOT
BRANCH   1  11
ATOM     11  C   UNL     1       2.434   6.361  18.991  0.00  0.00    +0.000 A 
ATOM     12  C   UNL     1       2.835   7.085  17.856  0.00  0.00    +0.000 A 
ATOM     13  C   UNL     1       2.523   8.438  17.723  0.00  0.00    +0.000 A 
ATOM     14  C   UNL     1       1.790   9.091  18.714  0.00  0.00    +0.000 A 
ATOM     15  C   UNL     1       1.349   8.414  19.861  0.00  0.00    +0.000 A 
ATOM     16  C   UNL     1       1.668   7.043  19.961  0.00  0.00    +0.000 A 
BRANCH  15  17
ATOM     17  C   UNL     1       0.620   9.109  20.946  0.00  0.00    +0.000 A 
ATOM     18  C   UNL     1       0.885   8.849  22.301  0.00  0.00    +0.000 A 
ATOM     19  C   UNL     1       0.223   9.554  23.306  0.00  0.00    +0.000 A 
ATOM     20  C   UNL     1      -0.711  10.503  22.936  0.00  0.00    +0.000 A 
ATOM     21  N   UNL     1      -1.017  10.787  21.657  0.00  0.00    +0.000 NA
ATOM     22  C   UNL     1      -0.348  10.095  20.703  0.00  0.00    +0.000 A 
ATOM     23  F   UNL     1      -0.647  10.429  19.436  0.00  0.00    +0.000 F 
ENDBRANCH  15  17
ENDBRANCH   1  11
BRANCH   1  26
ATOM     24  N   UNL     1       6.208   4.446  17.826  0.00  0.00    +0.000 N 
ATOM     25  C   UNL     1       4.871   4.198  17.755  0.00  0.00    +0.000 A 
ATOM     26  C   UNL     1       4.291   4.808  18.856  0.00  0.00    +0.000 A 
ATOM     27  C   UNL     1       5.407   5.312  19.571  0.00  0.00    +0.000 A 
ATOM     28  N   UNL     1       6.569   5.092  18.948  0.00  0.00    +0.000 NA
BRANCH  24  29
ATOM     29  C   UNL     1       7.186   4.177  16.784  0.00  0.00    +0.000 C 
BRANCH  29  30
ATOM     30  C   UNL     1       6.924   4.897  15.448  0.00  0.00    +0.000 C 
BRANCH  30  32
ATOM     31  C   UNL     1       6.432   3.851  13.152  0.00  0.00    +0.000 C 
ATOM     32  C   UNL     1       5.941   4.091  14.572  0.00  0.00    +0.000 C 
ENDBRANCH  30  32
BRANCH  30  33
ATOM     33  C   UNL     1       6.483   6.362  15.692  0.00  0.00    +0.000 C 
ATOM     34  C   UNL     1       5.069   6.710  15.243  0.00  0.00    +0.000 C 
ENDBRANCH  30  33
ENDBRANCH  29  30
ENDBRANCH  24  29
ENDBRANCH   1  26
TORSDOF 7
ENDMDL
MODEL 6
REMARK VINA RESULT:      -8.3      0.730      1.380
REMARK  Name = 
REMARK  10 active torsions:
REMARK  status: ('A' for Active; 'I' for Inactive)
REMARK    1  A    between atoms: C_1  and  C_2
REMARK    2  A    between atoms: C_2  and  C_3
REMARK    3  A    between atoms: C_3  and  C_4
REMARK    4  A    between atoms: C_3  and  C_6
REMARK    5  A    between atoms: C_4  and  C_5
REMARK    6  A    between atoms: C_6  and  N_7
REMARK    7  A    between atoms: C_9  and  C_10
REMARK    8  A    between atoms: C_10  and  C_11
REMARK    9  A    between atoms: C_15  and  C_16
REMARK   10  A    between atoms: N_27  and  C_28
REMARK                            x       y       z     vdW  Elec       q    Type
REMARK                         _______ _______ _______ _____ _____    ______ ____
ROOT
ATOM      1  C   UNL     1       3.304   5.187  18.660  0.00  0.00    +0.000 C 
ATOM      2  N   UNL     1       3.328   4.850  20.123  0.00  0.00    +0.000 NA
ATOM      3  C   UNL     1       2.574   3.805  20.260  0.00  0.00    +0.000 C 
ATOM      4  N   UNL     1       2.369   3.254  21.475  0.00  0.00    +0.000 N 
ATOM      5  N   UNL     1       2.028   3.305  19.135  0.00  0.00    +0.000 N 
ATOM      6  C   UNL     1       1.153   2.169  18.966  0.00  0.00    +0.000 C 
ATOM      7  C   UNL     1       2.370   4.108  18.087  0.00  0.00    +0.000 C 
ATOM      8  O   UNL     1       1.983   3.977  16.935  0.00  0.00    +0.000 OA
ATOM      9  H   UNL     1       3.014   3.591  22.183  0.00  0.00    +0.000 HD
ATOM     10  H   UNL     1       2.186   2.263  21.530  0.00  0.00    +0.000 HD
ENDROOT
BRANCH   1  11
ATOM     11  C   UNL     1       4.704   5.183  18.034  0.00  0.00    +0.000 A 
ATOM     12  C   UNL     1       5.837   5.622  18.739  0.00  0.00    +0.000 A 
ATOM     13  C   UNL     1       7.087   5.677  18.123  0.00  0.00    +0.000 A 
ATOM     14  C   UNL     1       7.234   5.278  16.794  0.00  0.00    +0.000 A 
ATOM     15  C   UNL     1       6.141   4.814  16.047  0.00  0.00    +0.000 A 
ATOM     16  C   UNL     1       4.891   4.757  16.701  0.00  0.00    +0.000 A 
BRANCH  15  17
ATOM     17  C   UNL     1       6.272   4.442  14.620  0.00  0.00    +0.000 A 
ATOM     18  C   UNL     1       5.303   3.662  13.965  0.00  0.00    +0.000 A 
ATOM     19  C   UNL     1       5.421   3.368  12.608  0.00  0.00    +0.000 A 
ATOM     20  C   UNL     1       6.523   3.849  11.925  0.00  0.00    +0.000 A 
ATOM     21  N   UNL     1       7.489   4.589  12.499  0.00  0.00    +0.000 NA
ATOM     22  C   UNL     1       7.339   4.869  13.817  0.00  0.00    +0.000 A 
ATOM     23  F   UNL     1       8.300   5.642  14.351  0.00  0.00    +0.000 F 
ENDBRANCH  15  17
ENDBRANCH   1  11
BRANCH   1  26
ATOM     24  N   UNL     1       1.835   8.552  18.828  0.00  0.00    +0.000 N 
ATOM     25  C   UNL     1       1.983   7.309  19.365  0.00  0.00    +0.000 A 
ATOM     26  C   UNL     1       2.782   6.588  18.493  0.00  0.00    +0.000 A 
ATOM     27  C   UNL     1       2.972   7.485  17.411  0.00  0.00    +0.000 A 
ATOM     28  N   UNL     1       2.397   8.675  17.613  0.00  0.00    +0.000 NA
BRANCH  24  29
ATOM     29  C   UNL     1       1.250   9.707  19.488  0.00  0.00    +0.000 C 
BRANCH  29  30
ATOM     30  C   UNL     1       0.460  10.653  18.563  0.00  0.00    +0.000 C 
BRANCH  30  32
ATOM     31  C   UNL     1      -1.658   9.920  17.306  0.00  0.00    +0.000 C 
ATOM     32  C   UNL     1      -1.052  10.354  18.633  0.00  0.00    +0.000 C 
ENDBRANCH  30  32
BRANCH  30  33
ATOM     33  C   UNL     1       0.817  12.131  18.858  0.00  0.00    +0.000 C 
ATOM     34  C   UNL     1       1.445  12.400  20.220  0.00  0.00    +0.000 C 
ENDBRANCH  30  33
ENDBRANCH  29  30
ENDBRANCH  24  29
ENDBRANCH   1  26
TORSDOF 7
ENDMDL
MODEL 7
REMARK VINA RESULT:      -8.3      2.817      8.076
REMARK  Name = 
REMARK  10 active torsions:
REMARK  status: ('A' for Active; 'I' for Inactive)
REMARK    1  A    between atoms: C_1  and  C_2
REMARK    2  A    between atoms: C_2  and  C_3
REMARK    3  A    between atoms: C_3  and  C_4
REMARK    4  A    between atoms: C_3  and  C_6
REMARK    5  A    between atoms: C_4  and  C_5
REMARK    6  A    between atoms: C_6  and  N_7
REMARK    7  A    between atoms: C_9  and  C_10
REMARK    8  A    between atoms: C_10  and  C_11
REMARK    9  A    between atoms: C_15  and  C_16
REMARK   10  A    between atoms: N_27  and  C_28
REMARK                            x       y       z     vdW  Elec       q    Type
REMARK                         _______ _______ _______ _____ _____    ______ ____
ROOT
ATOM      1  C   UNL     1       2.757   4.992  18.661  0.00  0.00    +0.000 C 
ATOM      2  N   UNL     1       1.706   4.137  18.014  0.00  0.00    +0.000 NA
ATOM      3  C   UNL     1       1.287   3.329  18.936  0.00  0.00    +0.000 C 
ATOM      4  N   UNL     1       0.339   2.406  18.669  0.00  0.00    +0.000 N 
ATOM      5  N   UNL     1       1.836   3.474  20.157  0.00  0.00    +0.000 N 
ATOM      6  C   UNL     1       1.583   2.733  21.371  0.00  0.00    +0.000 C 
ATOM      7  C   UNL     1       2.796   4.441  20.095  0.00  0.00    +0.000 C 
ATOM      8  O   UNL     1       3.533   4.772  21.013  0.00  0.00    +0.000 OA
ATOM      9  H   UNL     1      -0.137   2.562  17.786  0.00  0.00    +0.000 HD
ATOM     10  H   UNL     1      -0.274   2.115  19.416  0.00  0.00    +0.000 HD
ENDROOT
BRANCH   1  11
ATOM     11  C   UNL     1       2.425   6.488  18.585  0.00  0.00    +0.000 A 
ATOM     12  C   UNL     1       2.856   7.295  17.520  0.00  0.00    +0.000 A 
ATOM     13  C   UNL     1       2.602   8.666  17.512  0.00  0.00    +0.000 A 
ATOM     14  C   UNL     1       1.897   9.256  18.561  0.00  0.00    +0.000 A 
ATOM     15  C   UNL     1       1.427   8.497  19.643  0.00  0.00    +0.000 A 
ATOM     16  C   UNL     1       1.687   7.109  19.616  0.00  0.00    +0.000 A 
BRANCH  15  17
ATOM     17  C   UNL     1       0.728   9.120  20.789  0.00  0.00    +0.000 A 
ATOM     18  C   UNL     1       1.078   8.827  22.118  0.00  0.00    +0.000 A 
ATOM     19  C   UNL     1       0.441   9.465  23.181  0.00  0.00    +0.000 A 
ATOM     20  C   UNL     1      -0.555  10.381  22.896  0.00  0.00    +0.000 A 
ATOM     21  N   UNL     1      -0.943  10.693  21.646  0.00  0.00    +0.000 NA
ATOM     22  C   UNL     1      -0.296  10.066  20.634  0.00  0.00    +0.000 A 
ATOM     23  F   UNL     1      -0.679  10.427  19.397  0.00  0.00    +0.000 F 
ENDBRANCH  15  17
ENDBRANCH   1  11
BRANCH   1  26
ATOM     24  N   UNL     1       5.620   4.146  16.515  0.00  0.00    +0.000 N 
ATOM     25  C   UNL     1       4.371   3.853  16.974  0.00  0.00    +0.000 A 
ATOM     26  C   UNL     1       4.051   4.820  17.913  0.00  0.00    +0.000 A 
ATOM     27  C   UNL     1       5.239   5.591  18.001  0.00  0.00    +0.000 A 
ATOM     28  N   UNL     1       6.190   5.182  17.155  0.00  0.00    +0.000 NA
BRANCH  24  29
ATOM     29  C   UNL     1       6.282   3.527  15.379  0.00  0.00    +0.000 C 
BRANCH  29  30
ATOM     30  C   UNL     1       6.214   4.335  14.070  0.00  0.00    +0.000 C 
BRANCH  30  32
ATOM     31  C   UNL     1       7.938   5.449  12.522  0.00  0.00    +0.000 C 
ATOM     32  C   UNL     1       7.424   5.284  13.945  0.00  0.00    +0.000 C 
ENDBRANCH  30  32
BRANCH  30  33
ATOM     33  C   UNL     1       6.036   3.392  12.854  0.00  0.00    +0.000 C 
ATOM     34  C   UNL     1       4.770   3.605  12.032  0.00  0.00    +0.000 C 
ENDBRANCH  30  33
ENDBRANCH  29  30
ENDBRANCH  24  29
ENDBRANCH   1  26
TORSDOF 7
ENDMDL
MODEL 8
REMARK VINA RESULT:      -8.2      1.018      1.265
REMARK  Name = 
REMARK  10 active torsions:
REMARK  status: ('A' for Active; 'I' for Inactive)
REMARK    1  A    between atoms: C_1  and  C_2
REMARK    2  A    between atoms: C_2  and  C_3
REMARK    3  A    between atoms: C_3  and  C_4
REMARK    4  A    between atoms: C_3  and  C_6
REMARK    5  A    between atoms: C_4  and  C_5
REMARK    6  A    between atoms: C_6  and  N_7
REMARK    7  A    between atoms: C_9  and  C_10
REMARK    8  A    between atoms: C_10  and  C_11
REMARK    9  A    between atoms: C_15  and  C_16
REMARK   10  A    between atoms: N_27  and  C_28
REMARK                            x       y       z     vdW  Elec       q    Type
REMARK                         _______ _______ _______ _____ _____    ______ ____
ROOT
ATOM      1  C   UNL     1       3.450   4.962  18.714  0.00  0.00    +0.000 C 
ATOM      2  N   UNL     1       3.681   4.360  20.070  0.00  0.00    +0.000 NA
ATOM      3  C   UNL     1       3.009   3.252  20.087  0.00  0.00    +0.000 C 
ATOM      4  N   UNL     1       2.994   2.469  21.186  0.00  0.00    +0.000 N 
ATOM      5  N   UNL     1       2.351   2.931  18.957  0.00  0.00    +0.000 N 
ATOM      6  C   UNL     1       1.524   1.782  18.672  0.00  0.00    +0.000 C 
ATOM      7  C   UNL     1       2.509   3.941  18.054  0.00  0.00    +0.000 C 
ATOM      8  O   UNL     1       1.985   3.998  16.951  0.00  0.00    +0.000 OA
ATOM      9  H   UNL     1       3.705   2.716  21.866  0.00  0.00    +0.000 HD
ATOM     10  H   UNL     1       2.873   1.474  21.067  0.00  0.00    +0.000 HD
ENDROOT
BRANCH   1  11
ATOM     11  C   UNL     1       4.756   5.185  17.941  0.00  0.00    +0.000 A 
ATOM     12  C   UNL     1       5.828   5.913  18.482  0.00  0.00    +0.000 A 
ATOM     13  C   UNL     1       6.976   6.163  17.730  0.00  0.00    +0.000 A 
ATOM     14  C   UNL     1       7.082   5.677  16.427  0.00  0.00    +0.000 A 
ATOM     15  C   UNL     1       6.050   4.928  15.841  0.00  0.00    +0.000 A 
ATOM     16  C   UNL     1       4.907   4.680  16.631  0.00  0.00    +0.000 A 
BRANCH  15  17
ATOM     17  C   UNL     1       6.127   4.455  14.441  0.00  0.00    +0.000 A 
ATOM     18  C   UNL     1       5.093   3.707  13.854  0.00  0.00    +0.000 A 
ATOM     19  C   UNL     1       5.164   3.317  12.517  0.00  0.00    +0.000 A 
ATOM     20  C   UNL     1       6.284   3.670  11.789  0.00  0.00    +0.000 A 
ATOM     21  N   UNL     1       7.312   4.373  12.298  0.00  0.00    +0.000 NA
ATOM     22  C   UNL     1       7.208   4.749  13.596  0.00  0.00    +0.000 A 
ATOM     23  F   UNL     1       8.232   5.483  14.065  0.00  0.00    +0.000 F 
ENDBRANCH  15  17
ENDBRANCH   1  11
BRANCH   1  26
ATOM     24  N   UNL     1       1.996   8.333  18.527  0.00  0.00    +0.000 N 
ATOM     25  C   UNL     1       2.668   7.311  17.928  0.00  0.00    +0.000 A 
ATOM     26  C   UNL     1       2.836   6.325  18.886  0.00  0.00    +0.000 A 
ATOM     27  C   UNL     1       2.300   6.918  20.057  0.00  0.00    +0.000 A 
ATOM     28  N   UNL     1       1.793   8.135  19.841  0.00  0.00    +0.000 NA
BRANCH  24  29
ATOM     29  C   UNL     1       1.422   9.490  17.859  0.00  0.00    +0.000 C 
BRANCH  29  30
ATOM     30  C   UNL     1       0.329  10.224  18.657  0.00  0.00    +0.000 C 
BRANCH  30  32
ATOM     31  C   UNL     1       0.931  11.884  20.525  0.00  0.00    +0.000 C 
ATOM     32  C   UNL     1       0.784  11.651  19.028  0.00  0.00    +0.000 C 
ENDBRANCH  30  32
BRANCH  30  33
ATOM     33  C   UNL     1      -1.024  10.178  17.903  0.00  0.00    +0.000 C 
ATOM     34  C   UNL     1      -1.873  11.440  17.994  0.00  0.00    +0.000 C 
ENDBRANCH  30  33
ENDBRANCH  29  30
ENDBRANCH  24  29
ENDBRANCH   1  26
TORSDOF 7
ENDMDL
MODEL 9
REMARK VINA RESULT:      -8.2      0.990      1.262
REMARK  Name = 
REMARK  10 active torsions:
REMARK  status: ('A' for Active; 'I' for Inactive)
REMARK    1  A    between atoms: C_1  and  C_2
REMARK    2  A    between atoms: C_2  and  C_3
REMARK    3  A    between atoms: C_3  and  C_4
REMARK    4  A    between atoms: C_3  and  C_6
REMARK    5  A    between atoms: C_4  and  C_5
REMARK    6  A    between atoms: C_6  and  N_7
REMARK    7  A    between atoms: C_9  and  C_10
REMARK    8  A    between atoms: C_10  and  C_11
REMARK    9  A    between atoms: C_15  and  C_16
REMARK   10  A    between atoms: N_27  and  C_28
REMARK                            x       y       z     vdW  Elec       q    Type
REMARK                         _______ _______ _______ _____ _____    ______ ____
ROOT
ATOM      1  C   UNL     1       3.250   5.287  18.801  0.00  0.00    +0.000 C 
ATOM      2  N   UNL     1       3.160   4.994  20.271  0.00  0.00    +0.000 NA
ATOM      3  C   UNL     1       2.383   3.963  20.382  0.00  0.00    +0.000 C 
ATOM      4  N   UNL     1       2.081   3.452  21.593  0.00  0.00    +0.000 N 
ATOM      5  N   UNL     1       1.915   3.437  19.234  0.00  0.00    +0.000 N 
ATOM      6  C   UNL     1       1.038   2.307  19.033  0.00  0.00    +0.000 C 
ATOM      7  C   UNL     1       2.344   4.204  18.191  0.00  0.00    +0.000 C 
ATOM      8  O   UNL     1       2.043   4.043  17.018  0.00  0.00    +0.000 OA
ATOM      9  H   UNL     1       2.677   3.801  22.338  0.00  0.00    +0.000 HD
ATOM     10  H   UNL     1       1.880   2.465  21.664  0.00  0.00    +0.000 HD
ENDROOT
BRANCH   1  11
ATOM     11  C   UNL     1       4.692   5.248  18.281  0.00  0.00    +0.000 A 
ATOM     12  C   UNL     1       5.791   5.526  19.110  0.00  0.00    +0.000 A 
ATOM     13  C   UNL     1       7.087   5.554  18.596  0.00  0.00    +0.000 A 
ATOM     14  C   UNL     1       7.313   5.289  17.245  0.00  0.00    +0.000 A 
ATOM     15  C   UNL     1       6.255   4.987  16.374  0.00  0.00    +0.000 A 
ATOM     16  C   UNL     1       4.957   4.953  16.926  0.00  0.00    +0.000 A 
BRANCH  15  17
ATOM     17  C   UNL     1       6.475   4.760  14.928  0.00  0.00    +0.000 A 
ATOM     18  C   UNL     1       7.586   5.296  14.254  0.00  0.00    +0.000 A 
ATOM     19  C   UNL     1       7.800   5.025  12.903  0.00  0.00    +0.000 A 
ATOM     20  C   UNL     1       6.886   4.229  12.240  0.00  0.00    +0.000 A 
ATOM     21  N   UNL     1       5.798   3.698  12.827  0.00  0.00    +0.000 NA
ATOM     22  C   UNL     1       5.623   3.969  14.143  0.00  0.00    +0.000 A 
ATOM     23  F   UNL     1       4.549   3.392  14.710  0.00  0.00    +0.000 F 
ENDBRANCH  15  17
ENDBRANCH   1  11
BRANCH   1  26
ATOM     24  N   UNL     1       1.863   8.692  18.778  0.00  0.00    +0.000 N 
ATOM     25  C   UNL     1       1.981   7.478  19.384  0.00  0.00    +0.000 A 
ATOM     26  C   UNL     1       2.762   6.689  18.555  0.00  0.00    +0.000 A 
ATOM     27  C   UNL     1       2.973   7.519  17.425  0.00  0.00    +0.000 A 
ATOM     28  N   UNL     1       2.428   8.732  17.559  0.00  0.00    +0.000 NA
BRANCH  24  29
ATOM     29  C   UNL     1       1.306   9.896  19.372  0.00  0.00    +0.000 C 
BRANCH  29  30
ATOM     30  C   UNL     1      -0.153   9.769  19.849  0.00  0.00    +0.000 C 
BRANCH  30  32
ATOM     31  C   UNL     1      -0.196   9.239  22.364  0.00  0.00    +0.000 C 
ATOM     32  C   UNL     1      -0.311  10.308  21.286  0.00  0.00    +0.000 C 
ENDBRANCH  30  32
BRANCH  30  33
ATOM     33  C   UNL     1      -1.121  10.420  18.830  0.00  0.00    +0.000 C 
ATOM     34  C   UNL     1      -1.833  11.681  19.307  0.00  0.00    +0.000 C 
ENDBRANCH  30  33
ENDBRANCH  29  30
ENDBRANCH  24  29
ENDBRANCH   1  26
TORSDOF 7
ENDMDL
