MODEL 1
REMARK VINA RESULT:      -9.0      0.000      0.000
REMARK  Name = 
REMARK  5 active torsions:
REMARK  status: ('A' for Active; 'I' for Inactive)
REMARK    1  A    between atoms: C_1  and  O_2
REMARK    2  A    between atoms: O_2  and  C_3
REMARK    3  A    between atoms: C_6  and  N_7
REMARK    4  A    between atoms: C_13  and  O_14
REMARK    5  A    between atoms: C_18  and  C_19
REMARK                            x       y       z     vdW  Elec       q    Type
REMARK                         _______ _______ _______ _____ _____    ______ ____
ROOT
ATOM      1  N   UNL     1       3.016   7.386  17.756  0.00  0.00    +0.000 NA
ATOM      2  C   UNL     1       3.047   6.156  18.173  0.00  0.00    +0.000 A 
ATOM      3  O   UNL     1       2.037   5.632  18.959  0.00  0.00    +0.000 OA
ATOM      4  C   UNL     1       2.234   4.481  19.726  0.00  0.00    +0.000 A 
ATOM      5  C   UNL     1       1.196   4.092  20.569  0.00  0.00    +0.000 A 
ATOM      6  C   UNL     1       1.402   3.032  21.443  0.00  0.00    +0.000 A 
ATOM      7  C   UNL     1       2.647   2.400  21.460  0.00  0.00    +0.000 A 
ATOM      8  C   UNL     1       3.669   2.778  20.588  0.00  0.00    +0.000 A 
ATOM      9  C   UNL     1       3.450   3.814  19.682  0.00  0.00    +0.000 A 
ATOM     10  C   UNL     1       4.393   4.180  18.629  0.00  0.00    +0.000 A 
ATOM     11  C   UNL     1       4.166   5.244  17.835  0.00  0.00    +0.000 A 
ENDROOT
BRANCH  11  12
ATOM     12  C   UNL     1       5.124   5.485  16.697  0.00  0.00    +0.000 C 
ATOM     13  O   UNL     1       5.880   6.452  16.745  0.00  0.00    +0.000 OA
ATOM     14  N   UNL     1       5.038   4.565  15.671  0.00  0.00    +0.000 N 
ATOM     15  C   UNL     1       5.866   4.539  14.541  0.00  0.00    +0.000 A 
ATOM     16  C   UNL     1       5.529   3.656  13.521  0.00  0.00    +0.000 A 
ATOM     17  C   UNL     1       6.308   3.625  12.361  0.00  0.00    +0.000 A 
ATOM     18  C   UNL     1       7.413   4.457  12.267  0.00  0.00    +0.000 A 
ATOM     19  C   UNL     1       7.692   5.287  13.336  0.00  0.00    +0.000 A 
ATOM     20  N   UNL     1       6.943   5.339  14.457  0.00  0.00    +0.000 NA
ATOM     21  H   UNL     1       4.292   3.881  15.711  0.00  0.00    +0.000 HD
ENDBRANCH  11  12
BRANCH   1  25
ATOM     22  C   UNL     1       0.275  10.005  19.623  0.00  0.00    +0.000 A 
ATOM     23  C   UNL     1       1.012   9.071  20.346  0.00  0.00    +0.000 A 
ATOM     24  C   UNL     1       1.940   8.251  19.698  0.00  0.00    +0.000 A 
ATOM     25  C   UNL     1       2.146   8.339  18.316  0.00  0.00    +0.000 A 
ATOM     26  C   UNL     1       1.439   9.319  17.612  0.00  0.00    +0.000 A 
ATOM     27  C   UNL     1       0.488  10.122  18.251  0.00  0.00    +0.000 A 
BRANCH  22  29
ATOM     28  C   UNL     1      -0.498  10.647  21.760  0.00  0.00    +0.000 C 
ATOM     29  O   UNL     1      -0.639  10.719  20.346  0.00  0.00    +0.000 OA
ENDBRANCH  22  29
ENDBRANCH   1  25
BRANCH   7  30
ATOM     30  O   UNL     1       2.896   1.376  22.325  0.00  0.00    +0.000 OA
ATOM     31  H   UNL     1       3.301   1.737  23.131  0.00  0.00    +0.000 HD
ENDBRANCH   7  30
TORSDOF 4
ENDMDL
MODEL 2
REMARK VINA RESULT:      -8.8      0.599      1.108
REMARK  Name = 
REMARK  5 active torsions:
REMARK  status: ('A' for Active; 'I' for Inactive)
REMARK    1  A    between atoms: C_1  and  O_2
REMARK    2  A    between atoms: O_2  and  C_3
REMARK    3  A    between atoms: C_6  and  N_7
REMARK    4  A    between atoms: C_13  and  O_14
REMARK    5  A    between atoms: C_18  and  C_19
REMARK                            x       y       z     vdW  Elec       q    Type
REMARK                         _______ _______ _______ _____ _____    ______ ____
ROOT
ATOM      1  N   UNL     1       3.069   7.473  17.855  0.00  0.00    +0.000 NA
ATOM      2  C   UNL     1       3.082   6.234  18.247  0.00  0.00    +0.000 A 
ATOM      3  O   UNL     1       2.074   5.713  19.037  0.00  0.00    +0.000 OA
ATOM      4  C   UNL     1       2.260   4.543  19.779  0.00  0.00    +0.000 A 
ATOM      5  C   UNL     1       1.226   4.158  20.629  0.00  0.00    +0.000 A 
ATOM      6  C   UNL     1       1.425   3.077  21.479  0.00  0.00    +0.000 A 
ATOM      7  C   UNL     1       2.657   2.422  21.466  0.00  0.00    +0.000 A 
ATOM      8  C   UNL     1       3.674   2.797  20.587  0.00  0.00    +0.000 A 
ATOM      9  C   UNL     1       3.463   3.855  19.705  0.00  0.00    +0.000 A 
ATOM     10  C   UNL     1       4.398   4.224  18.646  0.00  0.00    +0.000 A 
ATOM     11  C   UNL     1       4.179   5.308  17.876  0.00  0.00    +0.000 A 
ENDROOT
BRANCH  11  12
ATOM     12  C   UNL     1       5.126   5.554  16.729  0.00  0.00    +0.000 C 
ATOM     13  O   UNL     1       5.853   6.543  16.754  0.00  0.00    +0.000 OA
ATOM     14  N   UNL     1       5.064   4.611  15.723  0.00  0.00    +0.000 N 
ATOM     15  C   UNL     1       5.888   4.586  14.590  0.00  0.00    +0.000 A 
ATOM     16  C   UNL     1       5.573   3.673  13.590  0.00  0.00    +0.000 A 
ATOM     17  C   UNL     1       6.348   3.641  12.427  0.00  0.00    +0.000 A 
ATOM     18  C   UNL     1       7.429   4.503  12.312  0.00  0.00    +0.000 A 
ATOM     19  C   UNL     1       7.687   5.362  13.362  0.00  0.00    +0.000 A 
ATOM     20  N   UNL     1       6.941   5.415  14.486  0.00  0.00    +0.000 NA
ATOM     21  H   UNL     1       4.337   3.906  15.779  0.00  0.00    +0.000 HD
ENDBRANCH  11  12
BRANCH   1  25
ATOM     22  C   UNL     1       0.739  10.583  19.514  0.00  0.00    +0.000 A 
ATOM     23  C   UNL     1       1.228  10.642  18.211  0.00  0.00    +0.000 A 
ATOM     24  C   UNL     1       1.960   9.574  17.684  0.00  0.00    +0.000 A 
ATOM     25  C   UNL     1       2.225   8.430  18.446  0.00  0.00    +0.000 A 
ATOM     26  C   UNL     1       1.682   8.363  19.733  0.00  0.00    +0.000 A 
ATOM     27  C   UNL     1       0.974   9.441  20.275  0.00  0.00    +0.000 A 
BRANCH  22  29
ATOM     28  C   UNL     1      -0.878  12.239  19.043  0.00  0.00    +0.000 C 
ATOM     29  O   UNL     1       0.082  11.701  19.945  0.00  0.00    +0.000 OA
ENDBRANCH  22  29
ENDBRANCH   1  25
BRANCH   7  30
ATOM     30  O   UNL     1       2.899   1.376  22.307  0.00  0.00    +0.000 OA
ATOM     31  H   UNL     1       3.369   0.682  21.816  0.00  0.00    +0.000 HD
ENDBRANCH   7  30
TORSDOF 4
ENDMDL
MODEL 3
REMARK VINA RESULT:      -8.3      3.841      6.952
REMARK  Name = 
REMARK  5 active torsions:
REMARK  status: ('A' for Active; 'I' for Inactive)
REMARK    1  A    between atoms: C_1  and  O_2
REMARK    2  A    between atoms: O_2  and  C_3
REMARK    3  A    between atoms: C_6  and  N_7
REMARK    4  A    between atoms: C_13  and  O_14
REMARK    5  A    between atoms: C_18  and  C_19
REMARK                            x       y       z     vdW  Elec       q    Type
REMARK                         _______ _______ _______ _____ _____    ______ ____
ROOT
ATOM      1  N   UNL     1       5.329   5.810  18.745  0.00  0.00    +0.000 NA
ATOM      2  C   UNL     1       5.727   5.823  17.508  0.00  0.00    +0.000 A 
ATOM      3  O   UNL     1       4.968   5.262  16.497  0.00  0.00    +0.000 OA
ATOM      4  C   UNL     1       5.535   4.917  15.266  0.00  0.00    +0.000 A 
ATOM      5  C   UNL     1       4.717   4.257  14.352  0.00  0.00    +0.000 A 
ATOM      6  C   UNL     1       5.277   3.782  13.173  0.00  0.00    +0.000 A 
ATOM      7  C   UNL     1       6.643   3.965  12.949  0.00  0.00    +0.000 A 
ATOM      8  C   UNL     1       7.445   4.656  13.858  0.00  0.00    +0.000 A 
ATOM      9  C   UNL     1       6.877   5.170  15.022  0.00  0.00    +0.000 A 
ATOM     10  C   UNL     1       7.591   6.035  15.956  0.00  0.00    +0.000 A 
ATOM     11  C   UNL     1       7.016   6.435  17.108  0.00  0.00    +0.000 A 
ENDROOT
BRANCH  11  12
ATOM     12  C   UNL     1       7.771   7.422  17.960  0.00  0.00    +0.000 C 
ATOM     13  O   UNL     1       8.328   7.029  18.982  0.00  0.00    +0.000 OA
ATOM     14  N   UNL     1       7.745   8.721  17.493  0.00  0.00    +0.000 N 
ATOM     15  C   UNL     1       8.425   9.800  18.073  0.00  0.00    +0.000 A 
ATOM     16  C   UNL     1       8.147  11.071  17.581  0.00  0.00    +0.000 A 
ATOM     17  C   UNL     1       8.776  12.178  18.156  0.00  0.00    +0.000 A 
ATOM     18  C   UNL     1       9.683  11.978  19.187  0.00  0.00    +0.000 A 
ATOM     19  C   UNL     1       9.920  10.682  19.600  0.00  0.00    +0.000 A 
ATOM     20  N   UNL     1       9.311   9.603  19.064  0.00  0.00    +0.000 NA
ATOM     21  H   UNL     1       7.153   8.924  16.696  0.00  0.00    +0.000 HD
ENDBRANCH  11  12
BRANCH   1  25
ATOM     22  C   UNL     1       2.123   3.525  20.282  0.00  0.00    +0.000 A 
ATOM     23  C   UNL     1       2.000   4.887  20.020  0.00  0.00    +0.000 A 
ATOM     24  C   UNL     1       3.070   5.600  19.473  0.00  0.00    +0.000 A 
ATOM     25  C   UNL     1       4.287   4.972  19.181  0.00  0.00    +0.000 A 
ATOM     26  C   UNL     1       4.378   3.593  19.398  0.00  0.00    +0.000 A 
ATOM     27  C   UNL     1       3.320   2.882  19.974  0.00  0.00    +0.000 A 
BRANCH  22  29
ATOM     28  C   UNL     1       1.261   2.347  22.137  0.00  0.00    +0.000 C 
ATOM     29  O   UNL     1       1.035   2.938  20.863  0.00  0.00    +0.000 OA
ENDBRANCH  22  29
ENDBRANCH   1  25
BRANCH   7  30
ATOM     30  O   UNL     1       7.233   3.486  11.817  0.00  0.00    +0.000 OA
ATOM     31  H   UNL     1       8.167   3.755  11.813  0.00  0.00    +0.000 HD
ENDBRANCH   7  30
TORSDOF 4
ENDMDL
MODEL 4
REMARK VINA RESULT:      -8.2      4.018      8.235
REMARK  Name = 
REMARK  5 active torsions:
REMARK  status: ('A' for Active; 'I' for Inactive)
REMARK    1  A    between atoms: C_1  and  O_2
REMARK    2  A    between atoms: O_2  and  C_3
REMARK    3  A    between atoms: C_6  and  N_7
REMARK    4  A    between atoms: C_13  and  O_14
REMARK    5  A    between atoms: C_18  and  C_19
REMARK                            x       y       z     vdW  Elec       q    Type
REMARK                         _______ _______ _______ _____ _____    ______ ____
ROOT
ATOM      1  N   UNL     1      -0.873  10.258  18.142  0.00  0.00    +0.000 NA
ATOM      2  C   UNL     1       0.094  11.079  18.424  0.00  0.00    +0.000 A 
ATOM      3  O   UNL     1      -0.155  12.364  18.871  0.00  0.00    +0.000 OA
ATOM      4  C   UNL     1       0.821  13.362  18.799  0.00  0.00    +0.000 A 
ATOM      5  C   UNL     1       0.444  14.650  19.172  0.00  0.00    +0.000 A 
ATOM      6  C   UNL     1       1.344  15.692  18.990  0.00  0.00    +0.000 A 
ATOM      7  C   UNL     1       2.591  15.419  18.425  0.00  0.00    +0.000 A 
ATOM      8  C   UNL     1       2.971  14.120  18.086  0.00  0.00    +0.000 A 
ATOM      9  C   UNL     1       2.084  13.067  18.306  0.00  0.00    +0.000 A 
ATOM     10  C   UNL     1       2.439  11.662  18.131  0.00  0.00    +0.000 A 
ATOM     11  C   UNL     1       1.517  10.691  18.278  0.00  0.00    +0.000 A 
ENDROOT
BRANCH  11  12
ATOM     12  C   UNL     1       1.987   9.261  18.200  0.00  0.00    +0.000 C 
ATOM     13  O   UNL     1       2.533   8.866  17.173  0.00  0.00    +0.000 OA
ATOM     14  N   UNL     1       1.733   8.511  19.330  0.00  0.00    +0.000 N 
ATOM     15  C   UNL     1       2.133   7.182  19.522  0.00  0.00    +0.000 A 
ATOM     16  C   UNL     1       1.641   6.521  20.643  0.00  0.00    +0.000 A 
ATOM     17  C   UNL     1       1.986   5.183  20.852  0.00  0.00    +0.000 A 
ATOM     18  C   UNL     1       2.833   4.556  19.950  0.00  0.00    +0.000 A 
ATOM     19  C   UNL     1       3.297   5.291  18.877  0.00  0.00    +0.000 A 
ATOM     20  N   UNL     1       2.963   6.580  18.653  0.00  0.00    +0.000 NA
ATOM     21  H   UNL     1       1.175   8.934  20.063  0.00  0.00    +0.000 HD
ENDBRANCH  11  12
BRANCH   1  25
ATOM     22  C   UNL     1      -4.756  11.719  17.335  0.00  0.00    +0.000 A 
ATOM     23  C   UNL     1      -3.995  11.072  16.365  0.00  0.00    +0.000 A 
ATOM     24  C   UNL     1      -2.731  10.565  16.682  0.00  0.00    +0.000 A 
ATOM     25  C   UNL     1      -2.197  10.700  17.969  0.00  0.00    +0.000 A 
ATOM     26  C   UNL     1      -2.995  11.304  18.946  0.00  0.00    +0.000 A 
ATOM     27  C   UNL     1      -4.248  11.839  18.627  0.00  0.00    +0.000 A 
BRANCH  22  29
ATOM     28  C   UNL     1      -7.017  12.166  17.848  0.00  0.00    +0.000 C 
ATOM     29  O   UNL     1      -5.952  12.219  16.905  0.00  0.00    +0.000 OA
ENDBRANCH  22  29
ENDBRANCH   1  25
BRANCH   7  30
ATOM     30  O   UNL     1       3.489  16.421  18.204  0.00  0.00    +0.000 OA
ATOM     31  H   UNL     1       4.385  16.079  18.361  0.00  0.00    +0.000 HD
ENDBRANCH   7  30
TORSDOF 4
ENDMDL
MODEL 5
REMARK VINA RESULT:      -8.2      1.113      1.198
REMARK  Name = 
REMARK  5 active torsions:
REMARK  status: ('A' for Active; 'I' for Inactive)
REMARK    1  A    between atoms: C_1  and  O_2
REMARK    2  A    between atoms: O_2  and  C_3
REMARK    3  A    between atoms: C_6  and  N_7
REMARK    4  A    between atoms: C_13  and  O_14
REMARK    5  A    between atoms: C_18  and  C_19
REMARK                            x       y       z     vdW  Elec       q    Type
REMARK                         _______ _______ _______ _____ _____    ______ ____
ROOT
ATOM      1  N   UNL     1       3.142   7.809  17.254  0.00  0.00    +0.000 NA
ATOM      2  C   UNL     1       3.129   6.607  17.746  0.00  0.00    +0.000 A 
ATOM      3  O   UNL     1       2.099   6.167  18.556  0.00  0.00    +0.000 OA
ATOM      4  C   UNL     1       2.253   5.059  19.394  0.00  0.00    +0.000 A 
ATOM      5  C   UNL     1       1.199   4.758  20.253  0.00  0.00    +0.000 A 
ATOM      6  C   UNL     1       1.366   3.747  21.192  0.00  0.00    +0.000 A 
ATOM      7  C   UNL     1       2.588   3.076  21.255  0.00  0.00    +0.000 A 
ATOM      8  C   UNL     1       3.626   3.364  20.368  0.00  0.00    +0.000 A 
ATOM      9  C   UNL     1       3.446   4.350  19.399  0.00  0.00    +0.000 A 
ATOM     10  C   UNL     1       4.406   4.618  18.332  0.00  0.00    +0.000 A 
ATOM     11  C   UNL     1       4.218   5.639  17.472  0.00  0.00    +0.000 A 
ENDROOT
BRANCH  11  12
ATOM     12  C   UNL     1       5.188   5.776  16.327  0.00  0.00    +0.000 C 
ATOM     13  O   UNL     1       5.941   6.746  16.294  0.00  0.00    +0.000 OA
ATOM     14  N   UNL     1       5.117   4.765  15.390  0.00  0.00    +0.000 N 
ATOM     15  C   UNL     1       5.957   4.638  14.276  0.00  0.00    +0.000 A 
ATOM     16  C   UNL     1       5.634   3.662  13.339  0.00  0.00    +0.000 A 
ATOM     17  C   UNL     1       6.426   3.527  12.196  0.00  0.00    +0.000 A 
ATOM     18  C   UNL     1       7.531   4.351  12.038  0.00  0.00    +0.000 A 
ATOM     19  C   UNL     1       7.795   5.277  13.028  0.00  0.00    +0.000 A 
ATOM     20  N   UNL     1       7.033   5.430  14.131  0.00  0.00    +0.000 NA
ATOM     21  H   UNL     1       4.371   4.085  15.485  0.00  0.00    +0.000 HD
ENDBRANCH  11  12
BRANCH   1  25
ATOM     22  C   UNL     1       0.419  10.797  18.487  0.00  0.00    +0.000 A 
ATOM     23  C   UNL     1      -0.005   9.534  18.081  0.00  0.00    +0.000 A 
ATOM     24  C   UNL     1       0.929   8.559  17.720  0.00  0.00    +0.000 A 
ATOM     25  C   UNL     1       2.303   8.824  17.749  0.00  0.00    +0.000 A 
ATOM     26  C   UNL     1       2.716  10.078  18.211  0.00  0.00    +0.000 A 
ATOM     27  C   UNL     1       1.784  11.067  18.544  0.00  0.00    +0.000 A 
BRANCH  22  29
ATOM     28  C   UNL     1      -1.903  11.224  18.540  0.00  0.00    +0.000 C 
ATOM     29  O   UNL     1      -0.578  11.688  18.768  0.00  0.00    +0.000 OA
ENDBRANCH  22  29
ENDBRANCH   1  25
BRANCH   7  30
ATOM     30  O   UNL     1       2.798   2.099  22.183  0.00  0.00    +0.000 OA
ATOM     31  H   UNL     1       2.887   2.512  23.058  0.00  0.00    +0.000 HD
ENDBRANCH   7  30
TORSDOF 4
ENDMDL
MODEL 6
REMARK VINA RESULT:      -8.1      3.921      6.960
REMARK  Name = 
REMARK  5 active torsions:
REMARK  status: ('A' for Active; 'I' for Inactive)
REMARK    1  A    between atoms: C_1  and  O_2
REMARK    2  A    between atoms: O_2  and  C_3
REMARK    3  A    between atoms: C_6  and  N_7
REMARK    4  A    between atoms: C_13  and  O_14
REMARK    5  A    between atoms: C_18  and  C_19
REMARK                            x       y       z     vdW  Elec       q    Type
REMARK                         _______ _______ _______ _____ _____    ______ ____
ROOT
ATOM      1  N   UNL     1       5.322   6.014  18.813  0.00  0.00    +0.000 NA
ATOM      2  C   UNL     1       5.726   5.978  17.579  0.00  0.00    +0.000 A 
ATOM      3  O   UNL     1       4.953   5.414  16.580  0.00  0.00    +0.000 OA
ATOM      4  C   UNL     1       5.514   5.015  15.363  0.00  0.00    +0.000 A 
ATOM      5  C   UNL     1       4.679   4.357  14.464  0.00  0.00    +0.000 A 
ATOM      6  C   UNL     1       5.228   3.829  13.302  0.00  0.00    +0.000 A 
ATOM      7  C   UNL     1       6.600   3.961  13.080  0.00  0.00    +0.000 A 
ATOM      8  C   UNL     1       7.421   4.651  13.974  0.00  0.00    +0.000 A 
ATOM      9  C   UNL     1       6.865   5.217  15.119  0.00  0.00    +0.000 A 
ATOM     10  C   UNL     1       7.603   6.084  16.032  0.00  0.00    +0.000 A 
ATOM     11  C   UNL     1       7.037   6.535  17.168  0.00  0.00    +0.000 A 
ENDROOT
BRANCH  11  12
ATOM     12  C   UNL     1       7.820   7.522  17.996  0.00  0.00    +0.000 C 
ATOM     13  O   UNL     1       8.408   7.127  19.000  0.00  0.00    +0.000 OA
ATOM     14  N   UNL     1       7.781   8.820  17.530  0.00  0.00    +0.000 N 
ATOM     15  C   UNL     1       8.481   9.898  18.088  0.00  0.00    +0.000 A 
ATOM     16  C   UNL     1       8.190  11.169  17.604  0.00  0.00    +0.000 A 
ATOM     17  C   UNL     1       8.839  12.275  18.159  0.00  0.00    +0.000 A 
ATOM     18  C   UNL     1       9.778  12.075  19.161  0.00  0.00    +0.000 A 
ATOM     19  C   UNL     1      10.026  10.778  19.566  0.00  0.00    +0.000 A 
ATOM     20  N   UNL     1       9.398   9.700  19.050  0.00  0.00    +0.000 NA
ATOM     21  H   UNL     1       7.165   9.025  16.752  0.00  0.00    +0.000 HD
ENDBRANCH  11  12
BRANCH   1  25
ATOM     22  C   UNL     1       2.170   3.432  19.932  0.00  0.00    +0.000 A 
ATOM     23  C   UNL     1       3.435   2.952  19.604  0.00  0.00    +0.000 A 
ATOM     24  C   UNL     1       4.464   3.841  19.279  0.00  0.00    +0.000 A 
ATOM     25  C   UNL     1       4.251   5.224  19.268  0.00  0.00    +0.000 A 
ATOM     26  C   UNL     1       2.990   5.693  19.653  0.00  0.00    +0.000 A 
ATOM     27  C   UNL     1       1.949   4.807  19.949  0.00  0.00    +0.000 A 
BRANCH  22  29
ATOM     28  C   UNL     1       0.533   1.980  19.043  0.00  0.00    +0.000 C 
ATOM     29  O   UNL     1       1.226   2.475  20.182  0.00  0.00    +0.000 OA
ENDBRANCH  22  29
ENDBRANCH   1  25
BRANCH   7  30
ATOM     30  O   UNL     1       7.179   3.430  11.966  0.00  0.00    +0.000 OA
ATOM     31  H   UNL     1       6.959   2.485  11.918  0.00  0.00    +0.000 HD
ENDBRANCH   7  30
TORSDOF 4
ENDMDL
MODEL 7
REMARK VINA RESULT:      -8.0      4.196      8.569
REMARK  Name = 
REMARK  5 active torsions:
REMARK  status: ('A' for Active; 'I' for Inactive)
REMARK    1  A    between atoms: C_1  and  O_2
REMARK    2  A    between atoms: O_2  and  C_3
REMARK    3  A    between atoms: C_6  and  N_7
REMARK    4  A    between atoms: C_13  and  O_14
REMARK    5  A    between atoms: C_18  and  C_19
REMARK                            x       y       z     vdW  Elec       q    Type
REMARK                         _______ _______ _______ _____ _____    ______ ____
ROOT
ATOM      1  N   UNL     1      -0.330  11.232  20.298  0.00  0.00    +0.000 NA
ATOM      2  C   UNL     1       0.665  11.977  19.921  0.00  0.00    +0.000 A 
ATOM      3  O   UNL     1       0.867  13.239  20.450  0.00  0.00    +0.000 OA
ATOM      4  C   UNL     1       1.662  14.185  19.797  0.00  0.00    +0.000 A 
ATOM      5  C   UNL     1       1.716  15.462  20.351  0.00  0.00    +0.000 A 
ATOM      6  C   UNL     1       2.388  16.463  19.661  0.00  0.00    +0.000 A 
ATOM      7  C   UNL     1       2.973  16.164  18.430  0.00  0.00    +0.000 A 
ATOM      8  C   UNL     1       2.939  14.872  17.900  0.00  0.00    +0.000 A 
ATOM      9  C   UNL     1       2.302  13.857  18.610  0.00  0.00    +0.000 A 
ATOM     10  C   UNL     1       2.344  12.450  18.222  0.00  0.00    +0.000 A 
ATOM     11  C   UNL     1       1.640  11.523  18.900  0.00  0.00    +0.000 A 
ENDROOT
BRANCH  11  12
ATOM     12  C   UNL     1       1.830  10.079  18.513  0.00  0.00    +0.000 C 
ATOM     13  O   UNL     1       2.035   9.797  17.335  0.00  0.00    +0.000 OA
ATOM     14  N   UNL     1       1.735   9.186  19.562  0.00  0.00    +0.000 N 
ATOM     15  C   UNL     1       1.940   7.804  19.464  0.00  0.00    +0.000 A 
ATOM     16  C   UNL     1       1.632   7.031  20.579  0.00  0.00    +0.000 A 
ATOM     17  C   UNL     1       1.787   5.644  20.511  0.00  0.00    +0.000 A 
ATOM     18  C   UNL     1       2.271   5.075  19.343  0.00  0.00    +0.000 A 
ATOM     19  C   UNL     1       2.578   5.917  18.291  0.00  0.00    +0.000 A 
ATOM     20  N   UNL     1       2.420   7.256  18.335  0.00  0.00    +0.000 NA
ATOM     21  H   UNL     1       1.451   9.548  20.465  0.00  0.00    +0.000 HD
ENDBRANCH  11  12
BRANCH   1  25
ATOM     22  C   UNL     1      -3.625  12.522  22.608  0.00  0.00    +0.000 A 
ATOM     23  C   UNL     1      -2.528  11.884  23.180  0.00  0.00    +0.000 A 
ATOM     24  C   UNL     1      -1.438  11.510  22.388  0.00  0.00    +0.000 A 
ATOM     25  C   UNL     1      -1.423  11.757  21.011  0.00  0.00    +0.000 A 
ATOM     26  C   UNL     1      -2.508  12.446  20.460  0.00  0.00    +0.000 A 
ATOM     27  C   UNL     1      -3.614  12.797  21.242  0.00  0.00    +0.000 A 
BRANCH  22  29
ATOM     28  C   UNL     1      -4.437  12.449  24.824  0.00  0.00    +0.000 C 
ATOM     29  O   UNL     1      -4.655  12.798  23.462  0.00  0.00    +0.000 OA
ENDBRANCH  22  29
ENDBRANCH   1  25
BRANCH   7  30
ATOM     30  O   UNL     1       3.615  17.128  17.710  0.00  0.00    +0.000 OA
ATOM     31  H   UNL     1       3.550  17.971  18.189  0.00  0.00    +0.000 HD
ENDBRANCH   7  30
TORSDOF 4
ENDMDL
MODEL 8
REMARK VINA RESULT:      -8.0      4.856     10.909
REMARK  Name = 
REMARK  5 active torsions:
REMARK  status: ('A' for Active; 'I' for Inactive)
REMARK    1  A    between atoms: C_1  and  O_2
REMARK    2  A    between atoms: O_2  and  C_3
REMARK    3  A    between atoms: C_6  and  N_7
REMARK    4  A    between atoms: C_13  and  O_14
REMARK    5  A    between atoms: C_18  and  C_19
REMARK                            x       y       z     vdW  Elec       q    Type
REMARK                         _______ _______ _______ _____ _____    ______ ____
ROOT
ATOM      1  N   UNL     1      -0.313  10.651  19.457  0.00  0.00    +0.000 NA
ATOM      2  C   UNL     1      -0.051  11.899  19.208  0.00  0.00    +0.000 A 
ATOM      3  O   UNL     1       1.085  12.276  18.514  0.00  0.00    +0.000 OA
ATOM      4  C   UNL     1       1.580  13.581  18.580  0.00  0.00    +0.000 A 
ATOM      5  C   UNL     1       2.788  13.838  17.938  0.00  0.00    +0.000 A 
ATOM      6  C   UNL     1       3.377  15.087  18.090  0.00  0.00    +0.000 A 
ATOM      7  C   UNL     1       2.749  16.039  18.894  0.00  0.00    +0.000 A 
ATOM      8  C   UNL     1       1.521  15.782  19.507  0.00  0.00    +0.000 A 
ATOM      9  C   UNL     1       0.908  14.544  19.321  0.00  0.00    +0.000 A 
ATOM     10  C   UNL     1      -0.439  14.232  19.788  0.00  0.00    +0.000 A 
ATOM     11  C   UNL     1      -0.948  12.991  19.653  0.00  0.00    +0.000 A 
ENDROOT
BRANCH  11  12
ATOM     12  C   UNL     1      -2.387  12.780  20.049  0.00  0.00    +0.000 C 
ATOM     13  O   UNL     1      -2.734  13.028  21.202  0.00  0.00    +0.000 OA
ATOM     14  N   UNL     1      -3.195  12.295  19.040  0.00  0.00    +0.000 N 
ATOM     15  C   UNL     1      -4.575  12.081  19.145  0.00  0.00    +0.000 A 
ATOM     16  C   UNL     1      -5.203  11.422  18.093  0.00  0.00    +0.000 A 
ATOM     17  C   UNL     1      -6.572  11.157  18.175  0.00  0.00    +0.000 A 
ATOM     18  C   UNL     1      -7.277  11.581  19.292  0.00  0.00    +0.000 A 
ATOM     19  C   UNL     1      -6.582  12.251  20.281  0.00  0.00    +0.000 A 
ATOM     20  N   UNL     1      -5.258  12.503  20.224  0.00  0.00    +0.000 NA
ATOM     21  H   UNL     1      -2.752  12.028  18.168  0.00  0.00    +0.000 HD
ENDBRANCH  11  12
BRANCH   1  25
ATOM     22  C   UNL     1       2.465   7.538  18.788  0.00  0.00    +0.000 A 
ATOM     23  C   UNL     1       2.060   8.397  17.770  0.00  0.00    +0.000 A 
ATOM     24  C   UNL     1       1.170   9.441  18.040  0.00  0.00    +0.000 A 
ATOM     25  C   UNL     1       0.662   9.646  19.328  0.00  0.00    +0.000 A 
ATOM     26  C   UNL     1       1.120   8.810  20.351  0.00  0.00    +0.000 A 
ATOM     27  C   UNL     1       1.987   7.746  20.080  0.00  0.00    +0.000 A 
BRANCH  22  29
ATOM     28  C   UNL     1       3.696   5.631  19.437  0.00  0.00    +0.000 C 
ATOM     29  O   UNL     1       3.295   6.523  18.405  0.00  0.00    +0.000 OA
ENDBRANCH  22  29
ENDBRANCH   1  25
BRANCH   7  30
ATOM     30  O   UNL     1       3.312  17.265  19.091  0.00  0.00    +0.000 OA
ATOM     31  H   UNL     1       2.861  17.912  18.523  0.00  0.00    +0.000 HD
ENDBRANCH   7  30
TORSDOF 4
ENDMDL
MODEL 9
REMARK VINA RESULT:      -7.9      4.543      8.910
REMARK  Name = 
REMARK  5 active torsions:
REMARK  status: ('A' for Active; 'I' for Inactive)
REMARK    1  A    between atoms: C_1  and  O_2
REMARK    2  A    between atoms: O_2  and  C_3
REMARK    3  A    between atoms: C_6  and  N_7
REMARK    4  A    between atoms: C_13  and  O_14
REMARK    5  A    between atoms: C_18  and  C_19
REMARK                            x       y       z     vdW  Elec       q    Type
REMARK                         _______ _______ _______ _____ _____    ______ ____
ROOT
ATOM      1  N   UNL     1      -1.655  11.176  18.860  0.00  0.00    +0.000 NA
ATOM      2  C   UNL     1      -0.735  12.069  19.075  0.00  0.00    +0.000 A 
ATOM      3  O   UNL     1      -1.032  13.419  19.110  0.00  0.00    +0.000 OA
ATOM      4  C   UNL     1      -0.038  14.388  18.943  0.00  0.00    +0.000 A 
ATOM      5  C   UNL     1      -0.448  15.717  18.883  0.00  0.00    +0.000 A 
ATOM      6  C   UNL     1       0.492  16.697  18.588  0.00  0.00    +0.000 A 
ATOM      7  C   UNL     1       1.813  16.317  18.345  0.00  0.00    +0.000 A 
ATOM      8  C   UNL     1       2.219  14.984  18.440  0.00  0.00    +0.000 A 
ATOM      9  C   UNL     1       1.286  14.006  18.777  0.00  0.00    +0.000 A 
ATOM     10  C   UNL     1       1.637  12.616  19.052  0.00  0.00    +0.000 A 
ATOM     11  C   UNL     1       0.682  11.695  19.291  0.00  0.00    +0.000 A 
ENDROOT
BRANCH  11  12
ATOM     12  C   UNL     1       1.129  10.311  19.685  0.00  0.00    +0.000 C 
ATOM     13  O   UNL     1       0.933   9.921  20.834  0.00  0.00    +0.000 OA
ATOM     14  N   UNL     1       1.752   9.601  18.678  0.00  0.00    +0.000 N 
ATOM     15  C   UNL     1       2.193   8.275  18.780  0.00  0.00    +0.000 A 
ATOM     16  C   UNL     1       2.957   7.772  17.732  0.00  0.00    +0.000 A 
ATOM     17  C   UNL     1       3.448   6.466  17.812  0.00  0.00    +0.000 A 
ATOM     18  C   UNL     1       3.138   5.695  18.922  0.00  0.00    +0.000 A 
ATOM     19  C   UNL     1       2.353   6.262  19.907  0.00  0.00    +0.000 A 
ATOM     20  N   UNL     1       1.882   7.526  19.852  0.00  0.00    +0.000 NA
ATOM     21  H   UNL     1       1.947  10.086  17.810  0.00  0.00    +0.000 HD
ENDBRANCH  11  12
BRANCH   1  25
ATOM     22  C   UNL     1      -5.584  12.062  17.583  0.00  0.00    +0.000 A 
ATOM     23  C   UNL     1      -5.171  12.270  18.896  0.00  0.00    +0.000 A 
ATOM     24  C   UNL     1      -3.851  12.004  19.270  0.00  0.00    +0.000 A 
ATOM     25  C   UNL     1      -2.918  11.518  18.346  0.00  0.00    +0.000 A 
ATOM     26  C   UNL     1      -3.333  11.366  17.019  0.00  0.00    +0.000 A 
ATOM     27  C   UNL     1      -4.661  11.602  16.646  0.00  0.00    +0.000 A 
BRANCH  22  29
ATOM     28  C   UNL     1      -7.554  13.175  18.258  0.00  0.00    +0.000 C 
ATOM     29  O   UNL     1      -6.906  12.305  17.338  0.00  0.00    +0.000 OA
ENDBRANCH  22  29
ENDBRANCH   1  25
BRANCH   7  30
ATOM     30  O   UNL     1       2.757  17.247  18.023  0.00  0.00    +0.000 OA
ATOM     31  H   UNL     1       2.525  18.089  18.449  0.00  0.00    +0.000 HD
ENDBRANCH   7  30
TORSDOF 4
ENDMDL
