MODEL 1
REMARK VINA RESULT:      -9.3      0.000      0.000
REMARK  Name = 
REMARK  6 active torsions:
REMARK  status: ('A' for Active; 'I' for Inactive)
REMARK    1  A    between atoms: C_1  and  C_2
REMARK    2  A    between atoms: C_4  and  C_5
REMARK    3  A    between atoms: C_5  and  N_6
REMARK    4  A    between atoms: C_7  and  C_9
REMARK    5  A    between atoms: C_11  and  C_12
REMARK    6  A    between atoms: N_26  and  C_27
REMARK                            x       y       z     vdW  Elec       q    Type
REMARK                         _______ _______ _______ _____ _____    ______ ____
ROOT
ATOM      1  C   UNL     1       4.138   5.400  19.447  0.00  0.00    +0.000 A 
ATOM      2  C   UNL     1       3.600   6.671  19.239  0.00  0.00    +0.000 A 
ATOM      3  C   UNL     1       2.299   6.933  19.634  0.00  0.00    +0.000 A 
ATOM      4  N   UNL     1       1.531   5.983  20.205  0.00  0.00    +0.000 NA
ATOM      5  C   UNL     1       2.030   4.744  20.388  0.00  0.00    +0.000 A 
ATOM      6  C   UNL     1       1.203   3.794  20.967  0.00  0.00    +0.000 A 
ATOM      7  C   UNL     1       1.632   2.487  21.211  0.00  0.00    +0.000 A 
ATOM      8  C   UNL     1       2.923   2.118  20.879  0.00  0.00    +0.000 A 
ATOM      9  C   UNL     1       3.775   3.059  20.301  0.00  0.00    +0.000 A 
ATOM     10  C   UNL     1       3.349   4.385  20.030  0.00  0.00    +0.000 A 
ENDROOT
BRANCH   3  11
ATOM     11  C   UNL     1       1.717   8.283  19.494  0.00  0.00    +0.000 A 
ATOM     12  C   UNL     1       1.067   8.919  20.571  0.00  0.00    +0.000 A 
ATOM     13  C   UNL     1       0.421  10.146  20.414  0.00  0.00    +0.000 A 
ATOM     14  C   UNL     1       0.427  10.776  19.175  0.00  0.00    +0.000 A 
ATOM     15  C   UNL     1       1.094  10.189  18.102  0.00  0.00    +0.000 A 
ATOM     16  C   UNL     1       1.737   8.958  18.262  0.00  0.00    +0.000 A 
ENDBRANCH   3  11
BRANCH   1  18
ATOM     17  N   UNL     1       5.714   4.834  17.658  0.00  0.00    +0.000 N 
ATOM     18  C   UNL     1       5.549   5.176  18.987  0.00  0.00    +0.000 C 
ATOM     19  O   UNL     1       6.487   5.272  19.764  0.00  0.00    +0.000 OA
ATOM     20  H   UNL     1       4.950   4.887  17.001  0.00  0.00    +0.000 HD
BRANCH  17  21
ATOM     21  C   UNL     1       7.032   4.662  17.087  0.00  0.00    +0.000 C 
BRANCH  21  25
ATOM     22  C   UNL     1       5.717   3.389  12.316  0.00  0.00    +0.000 C 
ATOM     23  C   UNL     1       6.319   3.961  13.544  0.00  0.00    +0.000 A 
ATOM     24  C   UNL     1       6.063   3.703  14.872  0.00  0.00    +0.000 A 
ATOM     25  C   UNL     1       6.937   4.543  15.598  0.00  0.00    +0.000 A 
ATOM     26  N   UNL     1       7.707   5.277  14.778  0.00  0.00    +0.000 NA
ATOM     27  N   UNL     1       7.308   4.910  13.541  0.00  0.00    +0.000 N 
ATOM     28  C   UNL     1       7.933   5.501  12.380  0.00  0.00    +0.000 C 
ENDBRANCH  21  25
ENDBRANCH  17  21
ENDBRANCH   1  18
TORSDOF 4
ENDMDL
MODEL 2
REMARK VINA RESULT:      -8.6      1.194      1.597
REMARK  Name = 
REMARK  6 active torsions:
REMARK  status: ('A' for Active; 'I' for Inactive)
REMARK    1  A    between atoms: C_1  and  C_2
REMARK    2  A    between atoms: C_4  and  C_5
REMARK    3  A    between atoms: C_5  and  N_6
REMARK    4  A    between atoms: C_7  and  C_9
REMARK    5  A    between atoms: C_11  and  C_12
REMARK    6  A    between atoms: N_26  and  C_27
REMARK                            x       y       z     vdW  Elec       q    Type
REMARK                         _______ _______ _______ _____ _____    ______ ____
ROOT
ATOM      1  C   UNL     1       3.912   5.727  18.565  0.00  0.00    +0.000 A 
ATOM      2  C   UNL     1       3.325   6.904  19.031  0.00  0.00    +0.000 A 
ATOM      3  C   UNL     1       2.109   6.845  19.689  0.00  0.00    +0.000 A 
ATOM      4  N   UNL     1       1.466   5.675  19.878  0.00  0.00    +0.000 NA
ATOM      5  C   UNL     1       2.010   4.533  19.411  0.00  0.00    +0.000 A 
ATOM      6  C   UNL     1       1.310   3.353  19.617  0.00  0.00    +0.000 A 
ATOM      7  C   UNL     1       1.796   2.118  19.183  0.00  0.00    +0.000 A 
ATOM      8  C   UNL     1       3.017   2.054  18.534  0.00  0.00    +0.000 A 
ATOM      9  C   UNL     1       3.741   3.226  18.320  0.00  0.00    +0.000 A 
ATOM     10  C   UNL     1       3.252   4.491  18.740  0.00  0.00    +0.000 A 
ENDROOT
BRANCH   3  11
ATOM     11  C   UNL     1       1.489   8.059  20.257  0.00  0.00    +0.000 A 
ATOM     12  C   UNL     1       1.269   9.209  19.471  0.00  0.00    +0.000 A 
ATOM     13  C   UNL     1       0.786  10.394  20.028  0.00  0.00    +0.000 A 
ATOM     14  C   UNL     1       0.494  10.450  21.386  0.00  0.00    +0.000 A 
ATOM     15  C   UNL     1       0.666   9.319  22.179  0.00  0.00    +0.000 A 
ATOM     16  C   UNL     1       1.154   8.134  21.619  0.00  0.00    +0.000 A 
ENDBRANCH   3  11
BRANCH   1  18
ATOM     17  N   UNL     1       6.040   4.742  17.854  0.00  0.00    +0.000 N 
ATOM     18  C   UNL     1       5.225   5.859  17.851  0.00  0.00    +0.000 C 
ATOM     19  O   UNL     1       5.552   6.911  17.322  0.00  0.00    +0.000 OA
ATOM     20  H   UNL     1       5.707   3.846  18.177  0.00  0.00    +0.000 HD
BRANCH  17  21
ATOM     21  C   UNL     1       7.298   4.730  17.139  0.00  0.00    +0.000 C 
BRANCH  21  25
ATOM     22  C   UNL     1       5.486   3.376  12.558  0.00  0.00    +0.000 C 
ATOM     23  C   UNL     1       6.223   3.959  13.704  0.00  0.00    +0.000 A 
ATOM     24  C   UNL     1       6.088   3.747  15.057  0.00  0.00    +0.000 A 
ATOM     25  C   UNL     1       7.056   4.573  15.671  0.00  0.00    +0.000 A 
ATOM     26  N   UNL     1       7.768   5.255  14.759  0.00  0.00    +0.000 NA
ATOM     27  N   UNL     1       7.240   4.869  13.578  0.00  0.00    +0.000 N 
ATOM     28  C   UNL     1       7.769   5.404  12.344  0.00  0.00    +0.000 C 
ENDBRANCH  21  25
ENDBRANCH  17  21
ENDBRANCH   1  18
TORSDOF 4
ENDMDL
MODEL 3
REMARK VINA RESULT:      -8.3      4.682      9.494
REMARK  Name = 
REMARK  6 active torsions:
REMARK  status: ('A' for Active; 'I' for Inactive)
REMARK    1  A    between atoms: C_1  and  C_2
REMARK    2  A    between atoms: C_4  and  C_5
REMARK    3  A    between atoms: C_5  and  N_6
REMARK    4  A    between atoms: C_7  and  C_9
REMARK    5  A    between atoms: C_11  and  C_12
REMARK    6  A    between atoms: N_26  and  C_27
REMARK                            x       y       z     vdW  Elec       q    Type
REMARK                         _______ _______ _______ _____ _____    ______ ____
ROOT
ATOM      1  C   UNL     1       0.092   9.946  18.892  0.00  0.00    +0.000 A 
ATOM      2  C   UNL     1       0.955   9.102  18.192  0.00  0.00    +0.000 A 
ATOM      3  C   UNL     1       1.756   8.215  18.891  0.00  0.00    +0.000 A 
ATOM      4  N   UNL     1       1.734   8.156  20.238  0.00  0.00    +0.000 NA
ATOM      5  C   UNL     1       0.923   8.983  20.928  0.00  0.00    +0.000 A 
ATOM      6  C   UNL     1       0.940   8.898  22.312  0.00  0.00    +0.000 A 
ATOM      7  C   UNL     1       0.127   9.702  23.113  0.00  0.00    +0.000 A 
ATOM      8  C   UNL     1      -0.733  10.610  22.522  0.00  0.00    +0.000 A 
ATOM      9  C   UNL     1      -0.771  10.709  21.131  0.00  0.00    +0.000 A 
ATOM     10  C   UNL     1       0.061   9.912  20.304  0.00  0.00    +0.000 A 
ENDROOT
BRANCH   3  11
ATOM     11  C   UNL     1       2.631   7.258  18.184  0.00  0.00    +0.000 A 
ATOM     12  C   UNL     1       2.397   5.869  18.238  0.00  0.00    +0.000 A 
ATOM     13  C   UNL     1       3.283   4.955  17.663  0.00  0.00    +0.000 A 
ATOM     14  C   UNL     1       4.416   5.414  17.003  0.00  0.00    +0.000 A 
ATOM     15  C   UNL     1       4.653   6.783  16.901  0.00  0.00    +0.000 A 
ATOM     16  C   UNL     1       3.767   7.695  17.482  0.00  0.00    +0.000 A 
ENDBRANCH   3  11
BRANCH   1  18
ATOM     17  N   UNL     1      -1.627  10.318  17.187  0.00  0.00    +0.000 N 
ATOM     18  C   UNL     1      -0.741  10.892  18.079  0.00  0.00    +0.000 C 
ATOM     19  O   UNL     1      -0.614  12.102  18.193  0.00  0.00    +0.000 OA
ATOM     20  H   UNL     1      -1.816   9.326  17.195  0.00  0.00    +0.000 HD
BRANCH  17  21
ATOM     21  C   UNL     1      -2.531  11.128  16.400  0.00  0.00    +0.000 C 
BRANCH  21  25
ATOM     22  C   UNL     1      -6.669  10.133  19.227  0.00  0.00    +0.000 C 
ATOM     23  C   UNL     1      -5.658  10.675  18.289  0.00  0.00    +0.000 A 
ATOM     24  C   UNL     1      -4.385  10.242  17.994  0.00  0.00    +0.000 A 
ATOM     25  C   UNL     1      -3.889  11.146  17.028  0.00  0.00    +0.000 A 
ATOM     26  N   UNL     1      -4.799  12.085  16.722  0.00  0.00    +0.000 NA
ATOM     27  N   UNL     1      -5.857  11.780  17.503  0.00  0.00    +0.000 N 
ATOM     28  C   UNL     1      -7.053  12.589  17.440  0.00  0.00    +0.000 C 
ENDBRANCH  21  25
ENDBRANCH  17  21
ENDBRANCH   1  18
TORSDOF 4
ENDMDL
MODEL 4
REMARK VINA RESULT:      -8.2      1.764      2.226
REMARK  Name = 
REMARK  6 active torsions:
REMARK  status: ('A' for Active; 'I' for Inactive)
REMARK    1  A    between atoms: C_1  and  C_2
REMARK    2  A    between atoms: C_4  and  C_5
REMARK    3  A    between atoms: C_5  and  N_6
REMARK    4  A    between atoms: C_7  and  C_9
REMARK    5  A    between atoms: C_11  and  C_12
REMARK    6  A    between atoms: N_26  and  C_27
REMARK                            x       y       z     vdW  Elec       q    Type
REMARK                         _______ _______ _______ _____ _____    ______ ____
ROOT
ATOM      1  C   UNL     1       4.188   5.260  17.657  0.00  0.00    +0.000 A 
ATOM      2  C   UNL     1       3.694   6.539  17.918  0.00  0.00    +0.000 A 
ATOM      3  C   UNL     1       2.551   6.685  18.685  0.00  0.00    +0.000 A 
ATOM      4  N   UNL     1       1.891   5.616  19.177  0.00  0.00    +0.000 NA
ATOM      5  C   UNL     1       2.343   4.374  18.911  0.00  0.00    +0.000 A 
ATOM      6  C   UNL     1       1.629   3.303  19.426  0.00  0.00    +0.000 A 
ATOM      7  C   UNL     1       2.024   1.980  19.217  0.00  0.00    +0.000 A 
ATOM      8  C   UNL     1       3.167   1.715  18.485  0.00  0.00    +0.000 A 
ATOM      9  C   UNL     1       3.906   2.777  17.962  0.00  0.00    +0.000 A 
ATOM     10  C   UNL     1       3.508   4.126  18.150  0.00  0.00    +0.000 A 
ENDROOT
BRANCH   3  11
ATOM     11  C   UNL     1       2.037   8.023  19.041  0.00  0.00    +0.000 A 
ATOM     12  C   UNL     1       1.525   8.297  20.325  0.00  0.00    +0.000 A 
ATOM     13  C   UNL     1       0.938   9.525  20.632  0.00  0.00    +0.000 A 
ATOM     14  C   UNL     1       0.867  10.518  19.662  0.00  0.00    +0.000 A 
ATOM     15  C   UNL     1       1.398  10.289  18.395  0.00  0.00    +0.000 A 
ATOM     16  C   UNL     1       1.982   9.055  18.090  0.00  0.00    +0.000 A 
ENDBRANCH   3  11
BRANCH   1  18
ATOM     17  N   UNL     1       5.232   4.887  15.472  0.00  0.00    +0.000 N 
ATOM     18  C   UNL     1       5.424   5.169  16.811  0.00  0.00    +0.000 C 
ATOM     19  O   UNL     1       6.534   5.316  17.300  0.00  0.00    +0.000 OA
ATOM     20  H   UNL     1       4.312   4.899  15.057  0.00  0.00    +0.000 HD
BRANCH  17  21
ATOM     21  C   UNL     1       6.343   4.843  14.547  0.00  0.00    +0.000 C 
BRANCH  21  25
ATOM     22  C   UNL     1       6.404   1.409  10.764  0.00  0.00    +0.000 C 
ATOM     23  C   UNL     1       6.076   2.470  11.745  0.00  0.00    +0.000 A 
ATOM     24  C   UNL     1       6.827   3.013  12.763  0.00  0.00    +0.000 A 
ATOM     25  C   UNL     1       6.001   3.986  13.369  0.00  0.00    +0.000 A 
ATOM     26  N   UNL     1       4.806   4.062  12.761  0.00  0.00    +0.000 NA
ATOM     27  N   UNL     1       4.875   3.130  11.787  0.00  0.00    +0.000 N 
ATOM     28  C   UNL     1       3.749   2.926  10.905  0.00  0.00    +0.000 C 
ENDBRANCH  21  25
ENDBRANCH  17  21
ENDBRANCH   1  18
TORSDOF 4
ENDMDL
MODEL 5
REMARK VINA RESULT:      -8.2      0.661      1.117
REMARK  Name = 
REMARK  6 active torsions:
REMARK  status: ('A' for Active; 'I' for Inactive)
REMARK    1  A    between atoms: C_1  and  C_2
REMARK    2  A    between atoms: C_4  and  C_5
REMARK    3  A    between atoms: C_5  and  N_6
REMARK    4  A    between atoms: C_7  and  C_9
REMARK    5  A    between atoms: C_11  and  C_12
REMARK    6  A    between atoms: N_26  and  C_27
REMARK                            x       y       z     vdW  Elec       q    Type
REMARK                         _______ _______ _______ _____ _____    ______ ____
ROOT
ATOM      1  C   UNL     1       4.211   5.289  19.390  0.00  0.00    +0.000 A 
ATOM      2  C   UNL     1       3.696   6.560  19.130  0.00  0.00    +0.000 A 
ATOM      3  C   UNL     1       2.410   6.870  19.539  0.00  0.00    +0.000 A 
ATOM      4  N   UNL     1       1.634   5.967  20.171  0.00  0.00    +0.000 NA
ATOM      5  C   UNL     1       2.110   4.728  20.405  0.00  0.00    +0.000 A 
ATOM      6  C   UNL     1       1.275   3.826  21.048  0.00  0.00    +0.000 A 
ATOM      7  C   UNL     1       1.681   2.524  21.347  0.00  0.00    +0.000 A 
ATOM      8  C   UNL     1       2.956   2.110  21.006  0.00  0.00    +0.000 A 
ATOM      9  C   UNL     1       3.816   3.001  20.365  0.00  0.00    +0.000 A 
ATOM     10  C   UNL     1       3.413   4.321  20.038  0.00  0.00    +0.000 A 
ENDROOT
BRANCH   3  11
ATOM     11  C   UNL     1       1.855   8.225  19.344  0.00  0.00    +0.000 A 
ATOM     12  C   UNL     1       1.096   8.860  20.348  0.00  0.00    +0.000 A 
ATOM     13  C   UNL     1       0.477  10.092  20.129  0.00  0.00    +0.000 A 
ATOM     14  C   UNL     1       0.622  10.727  18.902  0.00  0.00    +0.000 A 
ATOM     15  C   UNL     1       1.397  10.142  17.904  0.00  0.00    +0.000 A 
ATOM     16  C   UNL     1       2.012   8.906  18.126  0.00  0.00    +0.000 A 
ENDBRANCH   3  11
BRANCH   1  18
ATOM     17  N   UNL     1       5.748   4.714  17.570  0.00  0.00    +0.000 N 
ATOM     18  C   UNL     1       5.606   5.011  18.912  0.00  0.00    +0.000 C 
ATOM     19  O   UNL     1       6.551   5.026  19.686  0.00  0.00    +0.000 OA
ATOM     20  H   UNL     1       4.985   4.833  16.920  0.00  0.00    +0.000 HD
BRANCH  17  21
ATOM     21  C   UNL     1       7.052   4.497  16.983  0.00  0.00    +0.000 C 
BRANCH  21  25
ATOM     22  C   UNL     1       7.703   5.418  12.000  0.00  0.00    +0.000 C 
ATOM     23  C   UNL     1       7.284   4.929  13.335  0.00  0.00    +0.000 A 
ATOM     24  C   UNL     1       7.695   5.301  14.595  0.00  0.00    +0.000 A 
ATOM     25  C   UNL     1       6.954   4.498  15.490  0.00  0.00    +0.000 A 
ATOM     26  N   UNL     1       6.116   3.678  14.835  0.00  0.00    +0.000 NA
ATOM     27  N   UNL     1       6.340   3.955  13.533  0.00  0.00    +0.000 N 
ATOM     28  C   UNL     1       5.597   3.254  12.510  0.00  0.00    +0.000 C 
ENDBRANCH  21  25
ENDBRANCH  17  21
ENDBRANCH   1  18
TORSDOF 4
ENDMDL
MODEL 6
REMARK VINA RESULT:      -8.1      1.924      2.384
REMARK  Name = 
REMARK  6 active torsions:
REMARK  status: ('A' for Active; 'I' for Inactive)
REMARK    1  A    between atoms: C_1  and  C_2
REMARK    2  A    between atoms: C_4  and  C_5
REMARK    3  A    between atoms: C_5  and  N_6
REMARK    4  A    between atoms: C_7  and  C_9
REMARK    5  A    between atoms: C_11  and  C_12
REMARK    6  A    between atoms: N_26  and  C_27
REMARK                            x       y       z     vdW  Elec       q    Type
REMARK                         _______ _______ _______ _____ _____    ______ ____
ROOT
ATOM      1  C   UNL     1       4.090   5.658  17.286  0.00  0.00    +0.000 A 
ATOM      2  C   UNL     1       3.528   6.857  17.725  0.00  0.00    +0.000 A 
ATOM      3  C   UNL     1       2.526   6.831  18.680  0.00  0.00    +0.000 A 
ATOM      4  N   UNL     1       2.067   5.670  19.189  0.00  0.00    +0.000 NA
ATOM      5  C   UNL     1       2.584   4.502  18.755  0.00  0.00    +0.000 A 
ATOM      6  C   UNL     1       2.076   3.331  19.296  0.00  0.00    +0.000 A 
ATOM      7  C   UNL     1       2.554   2.074  18.921  0.00  0.00    +0.000 A 
ATOM      8  C   UNL     1       3.573   1.979  17.990  0.00  0.00    +0.000 A 
ATOM      9  C   UNL     1       4.104   3.144  17.437  0.00  0.00    +0.000 A 
ATOM     10  C   UNL     1       3.617   4.428  17.794  0.00  0.00    +0.000 A 
ENDROOT
BRANCH   3  11
ATOM     11  C   UNL     1       1.954   8.082  19.220  0.00  0.00    +0.000 A 
ATOM     12  C   UNL     1       1.557   8.186  20.568  0.00  0.00    +0.000 A 
ATOM     13  C   UNL     1       0.916   9.327  21.055  0.00  0.00    +0.000 A 
ATOM     14  C   UNL     1       0.676  10.400  20.205  0.00  0.00    +0.000 A 
ATOM     15  C   UNL     1       1.091  10.339  18.877  0.00  0.00    +0.000 A 
ATOM     16  C   UNL     1       1.729   9.193  18.391  0.00  0.00    +0.000 A 
ENDBRANCH   3  11
BRANCH   1  18
ATOM     17  N   UNL     1       5.596   4.559  15.696  0.00  0.00    +0.000 N 
ATOM     18  C   UNL     1       5.163   5.752  16.242  0.00  0.00    +0.000 C 
ATOM     19  O   UNL     1       5.636   6.833  15.921  0.00  0.00    +0.000 OA
ATOM     20  H   UNL     1       5.110   3.692  15.872  0.00  0.00    +0.000 HD
BRANCH  17  21
ATOM     21  C   UNL     1       6.576   4.532  14.633  0.00  0.00    +0.000 C 
BRANCH  21  25
ATOM     22  C   UNL     1       3.670   3.015  10.714  0.00  0.00    +0.000 C 
ATOM     23  C   UNL     1       4.722   3.214  11.738  0.00  0.00    +0.000 A 
ATOM     24  C   UNL     1       4.781   4.082  12.805  0.00  0.00    +0.000 A 
ATOM     25  C   UNL     1       6.020   3.828  13.435  0.00  0.00    +0.000 A 
ATOM     26  N   UNL     1       6.696   2.850  12.811  0.00  0.00    +0.000 NA
ATOM     27  N   UNL     1       5.891   2.501  11.785  0.00  0.00    +0.000 N 
ATOM     28  C   UNL     1       6.296   1.450  10.879  0.00  0.00    +0.000 C 
ENDBRANCH  21  25
ENDBRANCH  17  21
ENDBRANCH   1  18
TORSDOF 4
ENDMDL
MODEL 7
REMARK VINA RESULT:      -8.1      4.443      9.530
REMARK  Name = 
REMARK  6 active torsions:
REMARK  status: ('A' for Active; 'I' for Inactive)
REMARK    1  A    between atoms: C_1  and  C_2
REMARK    2  A    between atoms: C_4  and  C_5
REMARK    3  A    between atoms: C_5  and  N_6
REMARK    4  A    between atoms: C_7  and  C_9
REMARK    5  A    between atoms: C_11  and  C_12
REMARK    6  A    between atoms: N_26  and  C_27
REMARK                            x       y       z     vdW  Elec       q    Type
REMARK                         _______ _______ _______ _____ _____    ______ ____
ROOT
ATOM      1  C   UNL     1       0.290   9.913  18.955  0.00  0.00    +0.000 A 
ATOM      2  C   UNL     1       1.129   9.057  18.240  0.00  0.00    +0.000 A 
ATOM      3  C   UNL     1       1.883   8.117  18.922  0.00  0.00    +0.000 A 
ATOM      4  N   UNL     1       1.838   8.016  20.265  0.00  0.00    +0.000 NA
ATOM      5  C   UNL     1       1.050   8.853  20.970  0.00  0.00    +0.000 A 
ATOM      6  C   UNL     1       1.042   8.723  22.350  0.00  0.00    +0.000 A 
ATOM      7  C   UNL     1       0.250   9.534  23.166  0.00  0.00    +0.000 A 
ATOM      8  C   UNL     1      -0.564  10.494  22.592  0.00  0.00    +0.000 A 
ATOM      9  C   UNL     1      -0.577  10.639  21.205  0.00  0.00    +0.000 A 
ATOM     10  C   UNL     1       0.235   9.835  20.364  0.00  0.00    +0.000 A 
ENDROOT
BRANCH   3  11
ATOM     11  C   UNL     1       2.730   7.148  18.196  0.00  0.00    +0.000 A 
ATOM     12  C   UNL     1       2.480   5.762  18.257  0.00  0.00    +0.000 A 
ATOM     13  C   UNL     1       3.340   4.837  17.664  0.00  0.00    +0.000 A 
ATOM     14  C   UNL     1       4.464   5.281  16.978  0.00  0.00    +0.000 A 
ATOM     15  C   UNL     1       4.716   6.646  16.869  0.00  0.00    +0.000 A 
ATOM     16  C   UNL     1       3.855   7.570  17.468  0.00  0.00    +0.000 A 
ENDBRANCH   3  11
BRANCH   1  18
ATOM     17  N   UNL     1      -1.535  10.421  17.400  0.00  0.00    +0.000 N 
ATOM     18  C   UNL     1      -0.493  10.917  18.161  0.00  0.00    +0.000 C 
ATOM     19  O   UNL     1      -0.197  12.103  18.178  0.00  0.00    +0.000 OA
ATOM     20  H   UNL     1      -1.850   9.467  17.496  0.00  0.00    +0.000 HD
BRANCH  17  21
ATOM     21  C   UNL     1      -2.401  11.302  16.648  0.00  0.00    +0.000 C 
BRANCH  21  25
ATOM     22  C   UNL     1      -7.222  12.102  18.138  0.00  0.00    +0.000 C 
ATOM     23  C   UNL     1      -5.754  11.931  18.031  0.00  0.00    +0.000 A 
ATOM     24  C   UNL     1      -4.962  11.650  16.941  0.00  0.00    +0.000 A 
ATOM     25  C   UNL     1      -3.638  11.603  17.434  0.00  0.00    +0.000 A 
ATOM     26  N   UNL     1      -3.597  11.852  18.753  0.00  0.00    +0.000 NA
ATOM     27  N   UNL     1      -4.891  12.041  19.089  0.00  0.00    +0.000 N 
ATOM     28  C   UNL     1      -5.240  12.344  20.459  0.00  0.00    +0.000 C 
ENDBRANCH  21  25
ENDBRANCH  17  21
ENDBRANCH   1  18
TORSDOF 4
ENDMDL
MODEL 8
REMARK VINA RESULT:      -7.9      2.600      7.365
REMARK  Name = 
REMARK  6 active torsions:
REMARK  status: ('A' for Active; 'I' for Inactive)
REMARK    1  A    between atoms: C_1  and  C_2
REMARK    2  A    between atoms: C_4  and  C_5
REMARK    3  A    between atoms: C_5  and  N_6
REMARK    4  A    between atoms: C_7  and  C_9
REMARK    5  A    between atoms: C_11  and  C_12
REMARK    6  A    between atoms: N_26  and  C_27
REMARK                            x       y       z     vdW  Elec       q    Type
REMARK                         _______ _______ _______ _____ _____    ______ ____
ROOT
ATOM      1  C   UNL     1       2.709   6.090  18.744  0.00  0.00    +0.000 A 
ATOM      2  C   UNL     1       3.697   6.120  17.758  0.00  0.00    +0.000 A 
ATOM      3  C   UNL     1       4.126   4.935  17.188  0.00  0.00    +0.000 A 
ATOM      4  N   UNL     1       3.623   3.744  17.572  0.00  0.00    +0.000 NA
ATOM      5  C   UNL     1       2.686   3.699  18.540  0.00  0.00    +0.000 A 
ATOM      6  C   UNL     1       2.203   2.454  18.913  0.00  0.00    +0.000 A 
ATOM      7  C   UNL     1       1.223   2.303  19.897  0.00  0.00    +0.000 A 
ATOM      8  C   UNL     1       0.701   3.423  20.519  0.00  0.00    +0.000 A 
ATOM      9  C   UNL     1       1.167   4.687  20.156  0.00  0.00    +0.000 A 
ATOM     10  C   UNL     1       2.175   4.855  19.172  0.00  0.00    +0.000 A 
ENDROOT
BRANCH   3  11
ATOM     11  C   UNL     1       5.120   4.931  16.095  0.00  0.00    +0.000 A 
ATOM     12  C   UNL     1       4.842   4.329  14.851  0.00  0.00    +0.000 A 
ATOM     13  C   UNL     1       5.814   4.226  13.854  0.00  0.00    +0.000 A 
ATOM     14  C   UNL     1       7.085   4.742  14.075  0.00  0.00    +0.000 A 
ATOM     15  C   UNL     1       7.377   5.375  15.280  0.00  0.00    +0.000 A 
ATOM     16  C   UNL     1       6.403   5.473  16.278  0.00  0.00    +0.000 A 
ENDBRANCH   3  11
BRANCH   1  18
ATOM     17  N   UNL     1       2.122   8.450  18.440  0.00  0.00    +0.000 N 
ATOM     18  C   UNL     1       2.294   7.407  19.331  0.00  0.00    +0.000 C 
ATOM     19  O   UNL     1       2.145   7.541  20.536  0.00  0.00    +0.000 OA
ATOM     20  H   UNL     1       2.120   8.296  17.442  0.00  0.00    +0.000 HD
BRANCH  17  21
ATOM     21  C   UNL     1       1.657   9.746  18.882  0.00  0.00    +0.000 C 
BRANCH  21  25
ATOM     22  C   UNL     1      -2.768   9.595  16.331  0.00  0.00    +0.000 C 
ATOM     23  C   UNL     1      -1.641   9.878  17.251  0.00  0.00    +0.000 A 
ATOM     24  C   UNL     1      -0.373   9.345  17.305  0.00  0.00    +0.000 A 
ATOM     25  C   UNL     1       0.266   9.992  18.387  0.00  0.00    +0.000 A 
ATOM     26  N   UNL     1      -0.546  10.887  18.972  0.00  0.00    +0.000 NA
ATOM     27  N   UNL     1      -1.695  10.794  18.269  0.00  0.00    +0.000 N 
ATOM     28  C   UNL     1      -2.820  11.632  18.616  0.00  0.00    +0.000 C 
ENDBRANCH  21  25
ENDBRANCH  17  21
ENDBRANCH   1  18
TORSDOF 4
ENDMDL
MODEL 9
REMARK VINA RESULT:      -7.9      1.622      2.224
REMARK  Name = 
REMARK  6 active torsions:
REMARK  status: ('A' for Active; 'I' for Inactive)
REMARK    1  A    between atoms: C_1  and  C_2
REMARK    2  A    between atoms: C_4  and  C_5
REMARK    3  A    between atoms: C_5  and  N_6
REMARK    4  A    between atoms: C_7  and  C_9
REMARK    5  A    between atoms: C_11  and  C_12
REMARK    6  A    between atoms: N_26  and  C_27
REMARK                            x       y       z     vdW  Elec       q    Type
REMARK                         _______ _______ _______ _____ _____    ______ ____
ROOT
ATOM      1  C   UNL     1       4.117   5.134  17.776  0.00  0.00    +0.000 A 
ATOM      2  C   UNL     1       3.643   6.438  17.932  0.00  0.00    +0.000 A 
ATOM      3  C   UNL     1       2.459   6.654  18.617  0.00  0.00    +0.000 A 
ATOM      4  N   UNL     1       1.742   5.633  19.126  0.00  0.00    +0.000 NA
ATOM      5  C   UNL     1       2.175   4.367  18.961  0.00  0.00    +0.000 A 
ATOM      6  C   UNL     1       1.402   3.345  19.490  0.00  0.00    +0.000 A 
ATOM      7  C   UNL     1       1.772   2.003  19.382  0.00  0.00    +0.000 A 
ATOM      8  C   UNL     1       2.951   1.669  18.739  0.00  0.00    +0.000 A 
ATOM      9  C   UNL     1       3.748   2.680  18.203  0.00  0.00    +0.000 A 
ATOM     10  C   UNL     1       3.376   4.047  18.289  0.00  0.00    +0.000 A 
ENDROOT
BRANCH   3  11
ATOM     11  C   UNL     1       1.961   8.023  18.862  0.00  0.00    +0.000 A 
ATOM     12  C   UNL     1       2.137   9.051  17.914  0.00  0.00    +0.000 A 
ATOM     13  C   UNL     1       1.766  10.369  18.187  0.00  0.00    +0.000 A 
ATOM     14  C   UNL     1       1.192  10.685  19.412  0.00  0.00    +0.000 A 
ATOM     15  C   UNL     1       0.971   9.683  20.354  0.00  0.00    +0.000 A 
ATOM     16  C   UNL     1       1.347   8.364  20.079  0.00  0.00    +0.000 A 
ENDBRANCH   3  11
BRANCH   1  18
ATOM     17  N   UNL     1       5.354   5.253  15.664  0.00  0.00    +0.000 N 
ATOM     18  C   UNL     1       5.399   4.964  17.015  0.00  0.00    +0.000 C 
ATOM     19  O   UNL     1       6.413   4.568  17.571  0.00  0.00    +0.000 OA
ATOM     20  H   UNL     1       4.552   5.701  15.247  0.00  0.00    +0.000 HD
BRANCH  17  21
ATOM     21  C   UNL     1       6.544   5.192  14.844  0.00  0.00    +0.000 C 
BRANCH  21  25
ATOM     22  C   UNL     1       7.057   2.015  10.875  0.00  0.00    +0.000 C 
ATOM     23  C   UNL     1       6.582   2.929  11.941  0.00  0.00    +0.000 A 
ATOM     24  C   UNL     1       7.276   3.598  12.923  0.00  0.00    +0.000 A 
ATOM     25  C   UNL     1       6.305   4.322  13.650  0.00  0.00    +0.000 A 
ATOM     26  N   UNL     1       5.073   4.131  13.149  0.00  0.00    +0.000 NA
ATOM     27  N   UNL     1       5.269   3.280  12.120  0.00  0.00    +0.000 N 
ATOM     28  C   UNL     1       4.144   2.844  11.323  0.00  0.00    +0.000 C 
ENDBRANCH  21  25
ENDBRANCH  17  21
ENDBRANCH   1  18
TORSDOF 4
ENDMDL
