MODEL 1
REMARK VINA RESULT:      -6.6      0.000      0.000
REMARK  Name = 
REMARK  4 active torsions:
REMARK  status: ('A' for Active; 'I' for Inactive)
REMARK    1  A    between atoms: C_1  and  C_2
REMARK    2  A    between atoms: C_6  and  N_7
REMARK    3  A    between atoms: C_11  and  C_13
REMARK    4  A    between atoms: C_15  and  C_16
REMARK                            x       y       z     vdW  Elec       q    Type
REMARK                         _______ _______ _______ _____ _____    ______ ____
ROOT
ATOM      1  N   UNL     1       5.270   4.323  17.232  0.00  0.00    +0.000 N 
ATOM      2  C   UNL     1       6.634   4.487  17.222  0.00  0.00    +0.000 C 
ATOM      3  O   UNL     1       7.386   4.524  18.190  0.00  0.00    +0.000 OA
ATOM      4  N   UNL     1       7.198   4.659  15.974  0.00  0.00    +0.000 N 
ATOM      5  C   UNL     1       6.594   4.630  14.731  0.00  0.00    +0.000 C 
ATOM      6  O   UNL     1       5.377   4.500  14.583  0.00  0.00    +0.000 OA
ATOM      7  H   UNL     1       4.831   4.424  16.323  0.00  0.00    +0.000 HD
ATOM      8  H   UNL     1       8.205   4.753  16.014  0.00  0.00    +0.000 HD
ENDROOT
BRANCH   1  14
ATOM      9  C   UNL     1       1.773   5.903  20.481  0.00  0.00    +0.000 C 
ATOM     10  C   UNL     1       2.717   4.864  19.929  0.00  0.00    +0.000 A 
ATOM     11  C   UNL     1       2.770   3.618  20.569  0.00  0.00    +0.000 A 
ATOM     12  C   UNL     1       3.620   2.625  20.107  0.00  0.00    +0.000 A 
ATOM     13  C   UNL     1       4.438   2.868  19.007  0.00  0.00    +0.000 A 
ATOM     14  C   UNL     1       4.427   4.104  18.347  0.00  0.00    +0.000 A 
ATOM     15  C   UNL     1       3.546   5.120  18.800  0.00  0.00    +0.000 A 
ATOM     16  C   UNL     1       3.469   6.493  18.171  0.00  0.00    +0.000 C 
ENDBRANCH   1  14
BRANCH   5  17
ATOM     17  C   UNL     1       7.497   4.904  13.549  0.00  0.00    +0.000 C 
ATOM     18 CL   UNL     1       7.014   3.987  12.109  0.00  0.00    +0.000 Cl
ENDBRANCH   5  17
TORSDOF 2
ENDMDL
MODEL 2
REMARK VINA RESULT:      -6.5      1.150      2.021
REMARK  Name = 
REMARK  4 active torsions:
REMARK  status: ('A' for Active; 'I' for Inactive)
REMARK    1  A    between atoms: C_1  and  C_2
REMARK    2  A    between atoms: C_6  and  N_7
REMARK    3  A    between atoms: C_11  and  C_13
REMARK    4  A    between atoms: C_15  and  C_16
REMARK                            x       y       z     vdW  Elec       q    Type
REMARK                         _______ _______ _______ _____ _____    ______ ____
ROOT
ATOM      1  N   UNL     1       4.578   4.836  17.246  0.00  0.00    +0.000 N 
ATOM      2  C   UNL     1       5.917   4.564  17.396  0.00  0.00    +0.000 C 
ATOM      3  O   UNL     1       6.521   4.354  18.443  0.00  0.00    +0.000 OA
ATOM      4  N   UNL     1       6.652   4.562  16.228  0.00  0.00    +0.000 N 
ATOM      5  C   UNL     1       6.224   4.735  14.925  0.00  0.00    +0.000 C 
ATOM      6  O   UNL     1       5.054   4.995  14.637  0.00  0.00    +0.000 OA
ATOM      7  H   UNL     1       4.305   5.078  16.300  0.00  0.00    +0.000 HD
ATOM      8  H   UNL     1       7.626   4.334  16.384  0.00  0.00    +0.000 HD
ENDROOT
BRANCH   1  14
ATOM      9  C   UNL     1       0.763   2.736  19.758  0.00  0.00    +0.000 C 
ATOM     10  C   UNL     1       1.728   3.862  19.484  0.00  0.00    +0.000 A 
ATOM     11  C   UNL     1       1.618   5.025  20.259  0.00  0.00    +0.000 A 
ATOM     12  C   UNL     1       2.476   6.094  20.051  0.00  0.00    +0.000 A 
ATOM     13  C   UNL     1       3.448   6.020  19.057  0.00  0.00    +0.000 A 
ATOM     14  C   UNL     1       3.582   4.883  18.249  0.00  0.00    +0.000 A 
ATOM     15  C   UNL     1       2.721   3.776  18.468  0.00  0.00    +0.000 A 
ATOM     16  C   UNL     1       2.771   2.510  17.642  0.00  0.00    +0.000 C 
ENDBRANCH   1  14
BRANCH   5  17
ATOM     17  C   UNL     1       7.303   4.722  13.866  0.00  0.00    +0.000 C 
ATOM     18 CL   UNL     1       6.792   3.864  12.399  0.00  0.00    +0.000 Cl
ENDBRANCH   5  17
TORSDOF 2
ENDMDL
MODEL 3
REMARK VINA RESULT:      -6.4      3.055      3.235
REMARK  Name = 
REMARK  4 active torsions:
REMARK  status: ('A' for Active; 'I' for Inactive)
REMARK    1  A    between atoms: C_1  and  C_2
REMARK    2  A    between atoms: C_6  and  N_7
REMARK    3  A    between atoms: C_11  and  C_13
REMARK    4  A    between atoms: C_15  and  C_16
REMARK                            x       y       z     vdW  Elec       q    Type
REMARK                         _______ _______ _______ _____ _____    ______ ____
ROOT
ATOM      1  N   UNL     1       4.986   5.163  18.137  0.00  0.00    +0.000 N 
ATOM      2  C   UNL     1       6.116   5.341  18.899  0.00  0.00    +0.000 C 
ATOM      3  O   UNL     1       6.438   4.722  19.908  0.00  0.00    +0.000 OA
ATOM      4  N   UNL     1       6.954   6.355  18.481  0.00  0.00    +0.000 N 
ATOM      5  C   UNL     1       6.849   7.176  17.375  0.00  0.00    +0.000 C 
ATOM      6  O   UNL     1       5.886   7.139  16.605  0.00  0.00    +0.000 OA
ATOM      7  H   UNL     1       4.866   5.852  17.402  0.00  0.00    +0.000 HD
ATOM      8  H   UNL     1       7.783   6.433  19.057  0.00  0.00    +0.000 HD
ENDROOT
BRANCH   1  14
ATOM      9  C   UNL     1       0.681   3.631  20.234  0.00  0.00    +0.000 C 
ATOM     10  C   UNL     1       1.863   3.448  19.316  0.00  0.00    +0.000 A 
ATOM     11  C   UNL     1       1.962   2.245  18.603  0.00  0.00    +0.000 A 
ATOM     12  C   UNL     1       3.028   2.020  17.746  0.00  0.00    +0.000 A 
ATOM     13  C   UNL     1       4.017   2.988  17.600  0.00  0.00    +0.000 A 
ATOM     14  C   UNL     1       3.966   4.198  18.306  0.00  0.00    +0.000 A 
ATOM     15  C   UNL     1       2.868   4.446  19.170  0.00  0.00    +0.000 A 
ATOM     16  C   UNL     1       2.726   5.709  19.989  0.00  0.00    +0.000 C 
ENDBRANCH   1  14
BRANCH   5  17
ATOM     17  C   UNL     1       7.923   8.230  17.227  0.00  0.00    +0.000 C 
ATOM     18 CL   UNL     1       8.656   8.664  18.783  0.00  0.00    +0.000 Cl
ENDBRANCH   5  17
TORSDOF 2
ENDMDL
MODEL 4
REMARK VINA RESULT:      -6.4      1.691      2.450
REMARK  Name = 
REMARK  4 active torsions:
REMARK  status: ('A' for Active; 'I' for Inactive)
REMARK    1  A    between atoms: C_1  and  C_2
REMARK    2  A    between atoms: C_6  and  N_7
REMARK    3  A    between atoms: C_11  and  C_13
REMARK    4  A    between atoms: C_15  and  C_16
REMARK                            x       y       z     vdW  Elec       q    Type
REMARK                         _______ _______ _______ _____ _____    ______ ____
ROOT
ATOM      1  N   UNL     1       4.304   5.019  17.112  0.00  0.00    +0.000 N 
ATOM      2  C   UNL     1       4.792   6.129  16.465  0.00  0.00    +0.000 C 
ATOM      3  O   UNL     1       4.494   7.301  16.669  0.00  0.00    +0.000 OA
ATOM      4  N   UNL     1       5.697   5.871  15.454  0.00  0.00    +0.000 N 
ATOM      5  C   UNL     1       6.225   4.663  15.041  0.00  0.00    +0.000 C 
ATOM      6  O   UNL     1       5.875   3.582  15.522  0.00  0.00    +0.000 OA
ATOM      7  H   UNL     1       4.611   4.137  16.717  0.00  0.00    +0.000 HD
ATOM      8  H   UNL     1       6.046   6.718  15.022  0.00  0.00    +0.000 HD
ENDROOT
BRANCH   1  14
ATOM      9  C   UNL     1       0.730   2.671  19.755  0.00  0.00    +0.000 C 
ATOM     10  C   UNL     1       1.657   3.830  19.491  0.00  0.00    +0.000 A 
ATOM     11  C   UNL     1       1.598   4.929  20.360  0.00  0.00    +0.000 A 
ATOM     12  C   UNL     1       2.424   6.025  20.166  0.00  0.00    +0.000 A 
ATOM     13  C   UNL     1       3.312   6.043  19.094  0.00  0.00    +0.000 A 
ATOM     14  C   UNL     1       3.393   4.973  18.193  0.00  0.00    +0.000 A 
ATOM     15  C   UNL     1       2.565   3.838  18.395  0.00  0.00    +0.000 A 
ATOM     16  C   UNL     1       2.562   2.639  17.473  0.00  0.00    +0.000 C 
ENDBRANCH   1  14
BRANCH   5  17
ATOM     17  C   UNL     1       7.167   4.720  13.860  0.00  0.00    +0.000 C 
ATOM     18 CL   UNL     1       6.589   3.750  12.492  0.00  0.00    +0.000 Cl
ENDBRANCH   5  17
TORSDOF 2
ENDMDL
MODEL 5
REMARK VINA RESULT:      -6.3      5.091      6.955
REMARK  Name = 
REMARK  4 active torsions:
REMARK  status: ('A' for Active; 'I' for Inactive)
REMARK    1  A    between atoms: C_1  and  C_2
REMARK    2  A    between atoms: C_6  and  N_7
REMARK    3  A    between atoms: C_11  and  C_13
REMARK    4  A    between atoms: C_15  and  C_16
REMARK                            x       y       z     vdW  Elec       q    Type
REMARK                         _______ _______ _______ _____ _____    ______ ____
ROOT
ATOM      1  N   UNL     1       2.428   7.198  18.951  0.00  0.00    +0.000 N 
ATOM      2  C   UNL     1       1.995   8.417  18.488  0.00  0.00    +0.000 C 
ATOM      3  O   UNL     1       2.144   8.881  17.362  0.00  0.00    +0.000 OA
ATOM      4  N   UNL     1       1.348   9.205  19.419  0.00  0.00    +0.000 N 
ATOM      5  C   UNL     1       1.023   8.919  20.731  0.00  0.00    +0.000 C 
ATOM      6  O   UNL     1       1.354   7.869  21.287  0.00  0.00    +0.000 OA
ATOM      7  H   UNL     1       2.287   7.055  19.945  0.00  0.00    +0.000 HD
ATOM      8  H   UNL     1       1.028  10.082  19.027  0.00  0.00    +0.000 HD
ENDROOT
BRANCH   1  14
ATOM      9  C   UNL     1       2.965   2.377  17.628  0.00  0.00    +0.000 C 
ATOM     10  C   UNL     1       3.355   3.833  17.573  0.00  0.00    +0.000 A 
ATOM     11  C   UNL     1       4.448   4.190  16.772  0.00  0.00    +0.000 A 
ATOM     12  C   UNL     1       4.855   5.512  16.683  0.00  0.00    +0.000 A 
ATOM     13  C   UNL     1       4.181   6.494  17.404  0.00  0.00    +0.000 A 
ATOM     14  C   UNL     1       3.093   6.179  18.230  0.00  0.00    +0.000 A 
ATOM     15  C   UNL     1       2.657   4.831  18.311  0.00  0.00    +0.000 A 
ATOM     16  C   UNL     1       1.507   4.382  19.183  0.00  0.00    +0.000 C 
ENDBRANCH   1  14
BRANCH   5  17
ATOM     17  C   UNL     1       0.348  10.030  21.504  0.00  0.00    +0.000 C 
ATOM     18 CL   UNL     1      -0.166   9.506  23.120  0.00  0.00    +0.000 Cl
ENDBRANCH   5  17
TORSDOF 2
ENDMDL
MODEL 6
REMARK VINA RESULT:      -6.3      3.891      5.045
REMARK  Name = 
REMARK  4 active torsions:
REMARK  status: ('A' for Active; 'I' for Inactive)
REMARK    1  A    between atoms: C_1  and  C_2
REMARK    2  A    between atoms: C_6  and  N_7
REMARK    3  A    between atoms: C_11  and  C_13
REMARK    4  A    between atoms: C_15  and  C_16
REMARK                            x       y       z     vdW  Elec       q    Type
REMARK                         _______ _______ _______ _____ _____    ______ ____
ROOT
ATOM      1  N   UNL     1       7.152   6.642  17.557  0.00  0.00    +0.000 N 
ATOM      2  C   UNL     1       7.973   6.524  18.652  0.00  0.00    +0.000 C 
ATOM      3  O   UNL     1       8.202   5.510  19.304  0.00  0.00    +0.000 OA
ATOM      4  N   UNL     1       8.573   7.695  19.069  0.00  0.00    +0.000 N 
ATOM      5  C   UNL     1       8.513   8.955  18.506  0.00  0.00    +0.000 C 
ATOM      6  O   UNL     1       7.811   9.216  17.526  0.00  0.00    +0.000 OA
ATOM      7  H   UNL     1       7.027   7.595  17.231  0.00  0.00    +0.000 HD
ATOM      8  H   UNL     1       9.185   7.554  19.863  0.00  0.00    +0.000 HD
ENDROOT
BRANCH   1  14
ATOM      9  C   UNL     1       3.171   3.592  17.205  0.00  0.00    +0.000 C 
ATOM     10  C   UNL     1       4.487   4.138  16.713  0.00  0.00    +0.000 A 
ATOM     11  C   UNL     1       5.030   3.590  15.542  0.00  0.00    +0.000 A 
ATOM     12  C   UNL     1       6.238   4.050  15.043  0.00  0.00    +0.000 A 
ATOM     13  C   UNL     1       6.928   5.057  15.714  0.00  0.00    +0.000 A 
ATOM     14  C   UNL     1       6.430   5.622  16.896  0.00  0.00    +0.000 A 
ATOM     15  C   UNL     1       5.183   5.171  17.404  0.00  0.00    +0.000 A 
ATOM     16  C   UNL     1       4.566   5.701  18.678  0.00  0.00    +0.000 C 
ENDBRANCH   1  14
BRANCH   5  17
ATOM     17  C   UNL     1       9.257  10.046  19.243  0.00  0.00    +0.000 C 
ATOM     18 CL   UNL     1      10.033  11.195  18.135  0.00  0.00    +0.000 Cl
ENDBRANCH   5  17
TORSDOF 2
ENDMDL
MODEL 7
REMARK VINA RESULT:      -6.3      1.233      1.234
REMARK  Name = 
REMARK  4 active torsions:
REMARK  status: ('A' for Active; 'I' for Inactive)
REMARK    1  A    between atoms: C_1  and  C_2
REMARK    2  A    between atoms: C_6  and  N_7
REMARK    3  A    between atoms: C_11  and  C_13
REMARK    4  A    between atoms: C_15  and  C_16
REMARK                            x       y       z     vdW  Elec       q    Type
REMARK                         _______ _______ _______ _____ _____    ______ ____
ROOT
ATOM      1  N   UNL     1       4.954   4.063  16.159  0.00  0.00    +0.000 N 
ATOM      2  C   UNL     1       6.316   4.247  16.133  0.00  0.00    +0.000 C 
ATOM      3  O   UNL     1       7.063   4.408  17.092  0.00  0.00    +0.000 OA
ATOM      4  N   UNL     1       6.882   4.280  14.875  0.00  0.00    +0.000 N 
ATOM      5  C   UNL     1       6.284   4.097  13.642  0.00  0.00    +0.000 C 
ATOM      6  O   UNL     1       5.069   3.931  13.508  0.00  0.00    +0.000 OA
ATOM      7  H   UNL     1       4.518   4.050  15.244  0.00  0.00    +0.000 HD
ATOM      8  H   UNL     1       7.887   4.394  14.906  0.00  0.00    +0.000 HD
ENDROOT
BRANCH   1  14
ATOM      9  C   UNL     1       2.276   6.178  19.851  0.00  0.00    +0.000 C 
ATOM     10  C   UNL     1       2.796   4.987  19.087  0.00  0.00    +0.000 A 
ATOM     11  C   UNL     1       2.433   3.709  19.535  0.00  0.00    +0.000 A 
ATOM     12  C   UNL     1       2.883   2.577  18.875  0.00  0.00    +0.000 A 
ATOM     13  C   UNL     1       3.711   2.706  17.763  0.00  0.00    +0.000 A 
ATOM     14  C   UNL     1       4.111   3.963  17.290  0.00  0.00    +0.000 A 
ATOM     15  C   UNL     1       3.639   5.128  17.948  0.00  0.00    +0.000 A 
ATOM     16  C   UNL     1       4.024   6.530  17.531  0.00  0.00    +0.000 C 
ENDBRANCH   1  14
BRANCH   5  17
ATOM     17  C   UNL     1       7.187   4.245  12.439  0.00  0.00    +0.000 C 
ATOM     18 CL   UNL     1       8.246   5.664  12.565  0.00  0.00    +0.000 Cl
ENDBRANCH   5  17
TORSDOF 2
ENDMDL
MODEL 8
REMARK VINA RESULT:      -6.3      1.243      2.444
REMARK  Name = 
REMARK  4 active torsions:
REMARK  status: ('A' for Active; 'I' for Inactive)
REMARK    1  A    between atoms: C_1  and  C_2
REMARK    2  A    between atoms: C_6  and  N_7
REMARK    3  A    between atoms: C_11  and  C_13
REMARK    4  A    between atoms: C_15  and  C_16
REMARK                            x       y       z     vdW  Elec       q    Type
REMARK                         _______ _______ _______ _____ _____    ______ ____
ROOT
ATOM      1  N   UNL     1       4.734   5.859  16.848  0.00  0.00    +0.000 N 
ATOM      2  C   UNL     1       6.037   6.279  16.725  0.00  0.00    +0.000 C 
ATOM      3  O   UNL     1       6.650   7.032  17.475  0.00  0.00    +0.000 OA
ATOM      4  N   UNL     1       6.703   5.813  15.609  0.00  0.00    +0.000 N 
ATOM      5  C   UNL     1       6.266   4.940  14.632  0.00  0.00    +0.000 C 
ATOM      6  O   UNL     1       5.119   4.488  14.605  0.00  0.00    +0.000 OA
ATOM      7  H   UNL     1       4.395   5.318  16.060  0.00  0.00    +0.000 HD
ATOM      8  H   UNL     1       7.664   6.129  15.573  0.00  0.00    +0.000 HD
ENDROOT
BRANCH   1  14
ATOM      9  C   UNL     1       2.302   4.575  21.056  0.00  0.00    +0.000 C 
ATOM     10  C   UNL     1       2.638   5.535  19.943  0.00  0.00    +0.000 A 
ATOM     11  C   UNL     1       1.995   6.781  19.934  0.00  0.00    +0.000 A 
ATOM     12  C   UNL     1       2.262   7.704  18.935  0.00  0.00    +0.000 A 
ATOM     13  C   UNL     1       3.167   7.390  17.925  0.00  0.00    +0.000 A 
ATOM     14  C   UNL     1       3.820   6.151  17.887  0.00  0.00    +0.000 A 
ATOM     15  C   UNL     1       3.568   5.207  18.917  0.00  0.00    +0.000 A 
ATOM     16  C   UNL     1       4.206   3.837  18.960  0.00  0.00    +0.000 C 
ENDBRANCH   1  14
BRANCH   5  17
ATOM     17  C   UNL     1       7.237   4.667  13.505  0.00  0.00    +0.000 C 
ATOM     18 CL   UNL     1       6.545   3.601  12.266  0.00  0.00    +0.000 Cl
ENDBRANCH   5  17
TORSDOF 2
ENDMDL
MODEL 9
REMARK VINA RESULT:      -6.3      0.886      1.046
REMARK  Name = 
REMARK  4 active torsions:
REMARK  status: ('A' for Active; 'I' for Inactive)
REMARK    1  A    between atoms: C_1  and  C_2
REMARK    2  A    between atoms: C_6  and  N_7
REMARK    3  A    between atoms: C_11  and  C_13
REMARK    4  A    between atoms: C_15  and  C_16
REMARK                            x       y       z     vdW  Elec       q    Type
REMARK                         _______ _______ _______ _____ _____    ______ ____
ROOT
ATOM      1  N   UNL     1       4.607   4.485  17.724  0.00  0.00    +0.000 N 
ATOM      2  C   UNL     1       5.975   4.361  17.734  0.00  0.00    +0.000 C 
ATOM      3  O   UNL     1       6.714   4.348  18.713  0.00  0.00    +0.000 OA
ATOM      4  N   UNL     1       6.568   4.271  16.491  0.00  0.00    +0.000 N 
ATOM      5  C   UNL     1       5.978   4.230  15.242  0.00  0.00    +0.000 C 
ATOM      6  O   UNL     1       4.761   4.340  15.075  0.00  0.00    +0.000 OA
ATOM      7  H   UNL     1       4.203   4.574  16.798  0.00  0.00    +0.000 HD
ATOM      8  H   UNL     1       7.572   4.158  16.549  0.00  0.00    +0.000 HD
ENDROOT
BRANCH   1  14
ATOM      9  C   UNL     1       1.460   7.094  20.652  0.00  0.00    +0.000 C 
ATOM     10  C   UNL     1       2.191   5.835  20.258  0.00  0.00    +0.000 A 
ATOM     11  C   UNL     1       2.002   4.692  21.048  0.00  0.00    +0.000 A 
ATOM     12  C   UNL     1       2.648   3.506  20.737  0.00  0.00    +0.000 A 
ATOM     13  C   UNL     1       3.503   3.450  19.639  0.00  0.00    +0.000 A 
ATOM     14  C   UNL     1       3.733   4.572  18.832  0.00  0.00    +0.000 A 
ATOM     15  C   UNL     1       3.059   5.785  19.132  0.00  0.00    +0.000 A 
ATOM     16  C   UNL     1       3.250   7.058  18.337  0.00  0.00    +0.000 C 
ENDBRANCH   1  14
BRANCH   5  17
ATOM     17  C   UNL     1       6.923   4.177  14.063  0.00  0.00    +0.000 C 
ATOM     18 CL   UNL     1       6.157   3.486  12.620  0.00  0.00    +0.000 Cl
ENDBRANCH   5  17
TORSDOF 2
ENDMDL
