MODEL 1
REMARK VINA RESULT:      -8.0      0.000      0.000
REMARK  Name = 
REMARK  9 active torsions:
REMARK  status: ('A' for Active; 'I' for Inactive)
REMARK    1  A    between atoms: C_2  and  C_3
REMARK    2  A    between atoms: C_3  and  C_4
REMARK    3  A    between atoms: C_4  and  C_5
REMARK    4  A    between atoms: C_4  and  C_12
REMARK    5  A    between atoms: N_18  and  C_19
REMARK    6  A    between atoms: C_19  and  C_20
REMARK    7  A    between atoms: C_20  and  C_21
REMARK    8  A    between atoms: C_21  and  C_22
REMARK    9  A    between atoms: C_22  and  C_23
REMARK                            x       y       z     vdW  Elec       q    Type
REMARK                         _______ _______ _______ _____ _____    ______ ____
ROOT
ATOM      1  C   UNL     1       3.979   6.045  17.362  0.00  0.00    +0.000 C 
ENDROOT
BRANCH   1   3
ATOM      2  O   UNL     1       6.140   4.971  17.278  0.00  0.00    +0.000 OA
ATOM      3  C   UNL     1       5.492   6.004  17.410  0.00  0.00    +0.000 C 
ATOM      4  N   UNL     1       6.063   7.251  17.548  0.00  0.00    +0.000 N 
ATOM      5  H   UNL     1       5.465   8.066  17.589  0.00  0.00    +0.000 HD
BRANCH   4   6
ATOM      6  C   UNL     1       7.496   7.462  17.573  0.00  0.00    +0.000 C 
BRANCH   6   7
ATOM      7  C   UNL     1       7.876   8.937  17.719  0.00  0.00    +0.000 C 
BRANCH   7   8
ATOM      8  C   UNL     1       9.037   9.140  18.695  0.00  0.00    +0.000 C 
BRANCH   8   9
ATOM      9  C   UNL     1       9.002  10.522  19.351  0.00  0.00    +0.000 C 
BRANCH   9  10
ATOM     10  C   UNL     1       9.557  11.567  18.446  0.00  0.00    +0.000 A 
ATOM     11  C   UNL     1       8.909  12.622  17.838  0.00  0.00    +0.000 A 
ATOM     12  N   UNL     1       9.878  13.279  17.132  0.00  0.00    +0.000 N 
ATOM     13  C   UNL     1      11.055  12.620  17.336  0.00  0.00    +0.000 A 
ATOM     14  N   UNL     1      10.895  11.585  18.129  0.00  0.00    +0.000 NA
ATOM     15  H   UNL     1       9.753  14.105  16.563  0.00  0.00    +0.000 HD
ENDBRANCH   9  10
ENDBRANCH   8   9
ENDBRANCH   7   8
ENDBRANCH   6   7
ENDBRANCH   4   6
ENDBRANCH   1   3
BRANCH   1  16
ATOM     16  C   UNL     1       3.350   6.179  18.761  0.00  0.00    +0.000 C 
BRANCH  16  17
ATOM     17  C   UNL     1       2.500   7.443  18.906  0.00  0.00    +0.000 A 
ATOM     18  C   UNL     1       2.239   8.276  17.804  0.00  0.00    +0.000 A 
ATOM     19  C   UNL     1       1.436   9.410  17.939  0.00  0.00    +0.000 A 
ATOM     20  C   UNL     1       0.881   9.718  19.175  0.00  0.00    +0.000 A 
ATOM     21 CL   UNL     1      -0.122  11.109  19.337  0.00  0.00    +0.000 Cl
ATOM     22  C   UNL     1       1.126   8.909  20.281  0.00  0.00    +0.000 A 
ATOM     23  C   UNL     1       1.937   7.776  20.148  0.00  0.00    +0.000 A 
ENDBRANCH  16  17
BRANCH  16  24
ATOM     24  C   UNL     1       2.520   4.939  19.101  0.00  0.00    +0.000 A 
ATOM     25  C   UNL     1       2.269   4.614  20.434  0.00  0.00    +0.000 A 
ATOM     26  C   UNL     1       1.423   3.544  20.720  0.00  0.00    +0.000 A 
ATOM     27  C   UNL     1       0.847   2.831  19.677  0.00  0.00    +0.000 A 
ATOM     28  C   UNL     1       1.150   3.210  18.382  0.00  0.00    +0.000 A 
ATOM     29  N   UNL     1       1.968   4.240  18.073  0.00  0.00    +0.000 NA
ENDBRANCH  16  24
ENDBRANCH   1  16
TORSDOF 9
ENDMDL
MODEL 2
REMARK VINA RESULT:      -8.0      3.040      4.521
REMARK  Name = 
REMARK  9 active torsions:
REMARK  status: ('A' for Active; 'I' for Inactive)
REMARK    1  A    between atoms: C_2  and  C_3
REMARK    2  A    between atoms: C_3  and  C_4
REMARK    3  A    between atoms: C_4  and  C_5
REMARK    4  A    between atoms: C_4  and  C_12
REMARK    5  A    between atoms: N_18  and  C_19
REMARK    6  A    between atoms: C_19  and  C_20
REMARK    7  A    between atoms: C_20  and  C_21
REMARK    8  A    between atoms: C_21  and  C_22
REMARK    9  A    between atoms: C_22  and  C_23
REMARK                            x       y       z     vdW  Elec       q    Type
REMARK                         _______ _______ _______ _____ _____    ______ ____
ROOT
ATOM      1  C   UNL     1       3.347   7.113  16.981  0.00  0.00    +0.000 C 
ENDROOT
BRANCH   1   3
ATOM      2  O   UNL     1       5.132   7.136  15.355  0.00  0.00    +0.000 OA
ATOM      3  C   UNL     1       4.789   7.220  16.529  0.00  0.00    +0.000 C 
ATOM      4  N   UNL     1       5.660   7.491  17.563  0.00  0.00    +0.000 N 
ATOM      5  H   UNL     1       5.295   7.609  18.499  0.00  0.00    +0.000 HD
BRANCH   4   6
ATOM      6  C   UNL     1       7.083   7.680  17.363  0.00  0.00    +0.000 C 
BRANCH   6   7
ATOM      7  C   UNL     1       7.932   6.872  18.345  0.00  0.00    +0.000 C 
BRANCH   7   8
ATOM      8  C   UNL     1       7.312   5.508  18.659  0.00  0.00    +0.000 C 
BRANCH   8   9
ATOM      9  C   UNL     1       7.848   4.407  17.743  0.00  0.00    +0.000 C 
BRANCH   9  10
ATOM     10  C   UNL     1       7.087   4.344  16.464  0.00  0.00    +0.000 A 
ATOM     11  C   UNL     1       5.806   3.885  16.238  0.00  0.00    +0.000 A 
ATOM     12  N   UNL     1       5.591   4.064  14.900  0.00  0.00    +0.000 N 
ATOM     13  C   UNL     1       6.722   4.618  14.372  0.00  0.00    +0.000 A 
ATOM     14  N   UNL     1       7.640   4.803  15.293  0.00  0.00    +0.000 NA
ATOM     15  H   UNL     1       4.751   3.832  14.388  0.00  0.00    +0.000 HD
ENDBRANCH   9  10
ENDBRANCH   8   9
ENDBRANCH   7   8
ENDBRANCH   6   7
ENDBRANCH   4   6
ENDBRANCH   1   3
BRANCH   1  16
ATOM     16  C   UNL     1       3.223   6.813  18.486  0.00  0.00    +0.000 C 
BRANCH  16  17
ATOM     17  C   UNL     1       2.232   7.740  19.192  0.00  0.00    +0.000 A 
ATOM     18  C   UNL     1       1.832   7.503  20.519  0.00  0.00    +0.000 A 
ATOM     19  C   UNL     1       0.952   8.372  21.165  0.00  0.00    +0.000 A 
ATOM     20  C   UNL     1       0.468   9.489  20.495  0.00  0.00    +0.000 A 
ATOM     21 CL   UNL     1      -0.606  10.569  21.299  0.00  0.00    +0.000 Cl
ATOM     22  C   UNL     1       0.850   9.744  19.180  0.00  0.00    +0.000 A 
ATOM     23  C   UNL     1       1.727   8.869  18.529  0.00  0.00    +0.000 A 
ENDBRANCH  16  17
BRANCH  16  24
ATOM     24  C   UNL     1       2.837   5.349  18.715  0.00  0.00    +0.000 A 
ATOM     25  C   UNL     1       1.780   4.789  17.998  0.00  0.00    +0.000 A 
ATOM     26  C   UNL     1       1.512   3.428  18.141  0.00  0.00    +0.000 A 
ATOM     27  C   UNL     1       2.305   2.663  18.987  0.00  0.00    +0.000 A 
ATOM     28  C   UNL     1       3.331   3.293  19.668  0.00  0.00    +0.000 A 
ATOM     29  N   UNL     1       3.612   4.609  19.552  0.00  0.00    +0.000 NA
ENDBRANCH  16  24
ENDBRANCH   1  16
TORSDOF 9
ENDMDL
MODEL 3
REMARK VINA RESULT:      -8.0      1.493      2.065
REMARK  Name = 
REMARK  9 active torsions:
REMARK  status: ('A' for Active; 'I' for Inactive)
REMARK    1  A    between atoms: C_2  and  C_3
REMARK    2  A    between atoms: C_3  and  C_4
REMARK    3  A    between atoms: C_4  and  C_5
REMARK    4  A    between atoms: C_4  and  C_12
REMARK    5  A    between atoms: N_18  and  C_19
REMARK    6  A    between atoms: C_19  and  C_20
REMARK    7  A    between atoms: C_20  and  C_21
REMARK    8  A    between atoms: C_21  and  C_22
REMARK    9  A    between atoms: C_22  and  C_23
REMARK                            x       y       z     vdW  Elec       q    Type
REMARK                         _______ _______ _______ _____ _____    ______ ____
ROOT
ATOM      1  C   UNL     1       4.506   5.176  18.341  0.00  0.00    +0.000 C 
ENDROOT
BRANCH   1   3
ATOM      2  O   UNL     1       6.523   5.420  19.645  0.00  0.00    +0.000 OA
ATOM      3  C   UNL     1       5.902   5.689  18.622  0.00  0.00    +0.000 C 
ATOM      4  N   UNL     1       6.426   6.429  17.583  0.00  0.00    +0.000 N 
ATOM      5  H   UNL     1       5.878   6.558  16.743  0.00  0.00    +0.000 HD
BRANCH   4   6
ATOM      6  C   UNL     1       7.764   6.985  17.610  0.00  0.00    +0.000 C 
BRANCH   6   7
ATOM      7  C   UNL     1       7.771   8.514  17.577  0.00  0.00    +0.000 C 
BRANCH   7   8
ATOM      8  C   UNL     1       8.792   9.107  18.550  0.00  0.00    +0.000 C 
BRANCH   8   9
ATOM      9  C   UNL     1       9.216  10.522  18.149  0.00  0.00    +0.000 C 
BRANCH   9  10
ATOM     10  C   UNL     1       9.983  11.189  19.237  0.00  0.00    +0.000 A 
ATOM     11  C   UNL     1      11.299  11.603  19.243  0.00  0.00    +0.000 A 
ATOM     12  N   UNL     1      11.493  12.165  20.474  0.00  0.00    +0.000 N 
ATOM     13  C   UNL     1      10.313  12.080  21.156  0.00  0.00    +0.000 A 
ATOM     14  N   UNL     1       9.382  11.500  20.434  0.00  0.00    +0.000 NA
ATOM     15  H   UNL     1      12.349  12.572  20.823  0.00  0.00    +0.000 HD
ENDBRANCH   9  10
ENDBRANCH   8   9
ENDBRANCH   7   8
ENDBRANCH   6   7
ENDBRANCH   4   6
ENDBRANCH   1   3
BRANCH   1  16
ATOM     16  C   UNL     1       3.519   5.503  19.476  0.00  0.00    +0.000 C 
BRANCH  16  17
ATOM     17  C   UNL     1       2.752   6.804  19.234  0.00  0.00    +0.000 A 
ATOM     18  C   UNL     1       1.978   7.394  20.249  0.00  0.00    +0.000 A 
ATOM     19  C   UNL     1       1.307   8.598  20.028  0.00  0.00    +0.000 A 
ATOM     20  C   UNL     1       1.409   9.228  18.794  0.00  0.00    +0.000 A 
ATOM     21 CL   UNL     1       0.593  10.721  18.528  0.00  0.00    +0.000 Cl
ATOM     22  C   UNL     1       2.169   8.662  17.773  0.00  0.00    +0.000 A 
ATOM     23  C   UNL     1       2.836   7.452  17.991  0.00  0.00    +0.000 A 
ENDBRANCH  16  17
BRANCH  16  24
ATOM     24  C   UNL     1       2.543   4.344  19.694  0.00  0.00    +0.000 A 
ATOM     25  C   UNL     1       1.789   3.859  18.625  0.00  0.00    +0.000 A 
ATOM     26  C   UNL     1       0.987   2.736  18.818  0.00  0.00    +0.000 A 
ATOM     27  C   UNL     1       0.960   2.123  20.064  0.00  0.00    +0.000 A 
ATOM     28  C   UNL     1       1.730   2.667  21.076  0.00  0.00    +0.000 A 
ATOM     29  N   UNL     1       2.514   3.756  20.920  0.00  0.00    +0.000 NA
ENDBRANCH  16  24
ENDBRANCH   1  16
TORSDOF 9
ENDMDL
MODEL 4
REMARK VINA RESULT:      -7.9      1.292      1.636
REMARK  Name = 
REMARK  9 active torsions:
REMARK  status: ('A' for Active; 'I' for Inactive)
REMARK    1  A    between atoms: C_2  and  C_3
REMARK    2  A    between atoms: C_3  and  C_4
REMARK    3  A    between atoms: C_4  and  C_5
REMARK    4  A    between atoms: C_4  and  C_12
REMARK    5  A    between atoms: N_18  and  C_19
REMARK    6  A    between atoms: C_19  and  C_20
REMARK    7  A    between atoms: C_20  and  C_21
REMARK    8  A    between atoms: C_21  and  C_22
REMARK    9  A    between atoms: C_22  and  C_23
REMARK                            x       y       z     vdW  Elec       q    Type
REMARK                         _______ _______ _______ _____ _____    ______ ____
ROOT
ATOM      1  C   UNL     1       4.099   5.964  17.026  0.00  0.00    +0.000 C 
ENDROOT
BRANCH   1   3
ATOM      2  O   UNL     1       6.246   5.613  15.978  0.00  0.00    +0.000 OA
ATOM      3  C   UNL     1       5.607   6.057  16.926  0.00  0.00    +0.000 C 
ATOM      4  N   UNL     1       6.176   6.751  17.973  0.00  0.00    +0.000 N 
ATOM      5  H   UNL     1       5.579   7.143  18.689  0.00  0.00    +0.000 HD
BRANCH   4   6
ATOM      6  C   UNL     1       7.600   7.004  18.067  0.00  0.00    +0.000 C 
BRANCH   6   7
ATOM      7  C   UNL     1       7.988   8.398  17.570  0.00  0.00    +0.000 C 
BRANCH   7   8
ATOM      8  C   UNL     1       8.680   9.226  18.655  0.00  0.00    +0.000 C 
BRANCH   8   9
ATOM      9  C   UNL     1       9.077  10.616  18.153  0.00  0.00    +0.000 C 
BRANCH   9  10
ATOM     10  C   UNL     1       9.646  11.448  19.249  0.00  0.00    +0.000 A 
ATOM     11  C   UNL     1      10.430  12.580  19.162  0.00  0.00    +0.000 A 
ATOM     12  N   UNL     1      10.663  12.955  20.455  0.00  0.00    +0.000 N 
ATOM     13  C   UNL     1      10.023  12.062  21.265  0.00  0.00    +0.000 A 
ATOM     14  N   UNL     1       9.397  11.143  20.566  0.00  0.00    +0.000 NA
ATOM     15  H   UNL     1      11.208  13.749  20.764  0.00  0.00    +0.000 HD
ENDBRANCH   9  10
ENDBRANCH   8   9
ENDBRANCH   7   8
ENDBRANCH   6   7
ENDBRANCH   4   6
ENDBRANCH   1   3
BRANCH   1  16
ATOM     16  C   UNL     1       3.600   6.030  18.481  0.00  0.00    +0.000 C 
BRANCH  16  17
ATOM     17  C   UNL     1       2.727   7.258  18.750  0.00  0.00    +0.000 A 
ATOM     18  C   UNL     1       2.486   8.214  17.749  0.00  0.00    +0.000 A 
ATOM     19  C   UNL     1       1.663   9.314  17.994  0.00  0.00    +0.000 A 
ATOM     20  C   UNL     1       1.068   9.466  19.240  0.00  0.00    +0.000 A 
ATOM     21 CL   UNL     1       0.040  10.815  19.536  0.00  0.00    +0.000 Cl
ATOM     22  C   UNL     1       1.292   8.532  20.249  0.00  0.00    +0.000 A 
ATOM     23  C   UNL     1       2.124   7.433  20.005  0.00  0.00    +0.000 A 
ENDBRANCH  16  17
BRANCH  16  24
ATOM     24  C   UNL     1       2.846   4.751  18.853  0.00  0.00    +0.000 A 
ATOM     25  C   UNL     1       1.829   4.278  18.024  0.00  0.00    +0.000 A 
ATOM     26  C   UNL     1       1.228   3.056  18.322  0.00  0.00    +0.000 A 
ATOM     27  C   UNL     1       1.657   2.337  19.430  0.00  0.00    +0.000 A 
ATOM     28  C   UNL     1       2.666   2.876  20.207  0.00  0.00    +0.000 A 
ATOM     29  N   UNL     1       3.265   4.059  19.946  0.00  0.00    +0.000 NA
ENDBRANCH  16  24
ENDBRANCH   1  16
TORSDOF 9
ENDMDL
MODEL 5
REMARK VINA RESULT:      -7.9      4.926      8.066
REMARK  Name = 
REMARK  9 active torsions:
REMARK  status: ('A' for Active; 'I' for Inactive)
REMARK    1  A    between atoms: C_2  and  C_3
REMARK    2  A    between atoms: C_3  and  C_4
REMARK    3  A    between atoms: C_4  and  C_5
REMARK    4  A    between atoms: C_4  and  C_12
REMARK    5  A    between atoms: N_18  and  C_19
REMARK    6  A    between atoms: C_19  and  C_20
REMARK    7  A    between atoms: C_20  and  C_21
REMARK    8  A    between atoms: C_21  and  C_22
REMARK    9  A    between atoms: C_22  and  C_23
REMARK                            x       y       z     vdW  Elec       q    Type
REMARK                         _______ _______ _______ _____ _____    ______ ____
ROOT
ATOM      1  C   UNL     1       2.652   7.241  19.372  0.00  0.00    +0.000 C 
ENDROOT
BRANCH   1   3
ATOM      2  O   UNL     1       1.654   8.661  17.694  0.00  0.00    +0.000 OA
ATOM      3  C   UNL     1       1.890   8.454  18.879  0.00  0.00    +0.000 C 
ATOM      4  N   UNL     1       1.433   9.258  19.901  0.00  0.00    +0.000 N 
ATOM      5  H   UNL     1       1.613   8.989  20.860  0.00  0.00    +0.000 HD
BRANCH   4   6
ATOM      6  C   UNL     1       0.642  10.449  19.670  0.00  0.00    +0.000 C 
BRANCH   6   7
ATOM      7  C   UNL     1      -0.862  10.196  19.792  0.00  0.00    +0.000 C 
BRANCH   7   8
ATOM      8  C   UNL     1      -1.647  10.811  18.632  0.00  0.00    +0.000 C 
BRANCH   8   9
ATOM      9  C   UNL     1      -1.530   9.980  17.353  0.00  0.00    +0.000 C 
BRANCH   9  10
ATOM     10  C   UNL     1      -2.656  10.259  16.417  0.00  0.00    +0.000 A 
ATOM     11  C   UNL     1      -3.795  11.006  16.629  0.00  0.00    +0.000 A 
ATOM     12  N   UNL     1      -4.484  10.952  15.449  0.00  0.00    +0.000 N 
ATOM     13  C   UNL     1      -3.753  10.195  14.580  0.00  0.00    +0.000 A 
ATOM     14  N   UNL     1      -2.642   9.766  15.134  0.00  0.00    +0.000 NA
ATOM     15  H   UNL     1      -5.372  11.391  15.249  0.00  0.00    +0.000 HD
ENDBRANCH   9  10
ENDBRANCH   8   9
ENDBRANCH   7   8
ENDBRANCH   6   7
ENDBRANCH   4   6
ENDBRANCH   1   3
BRANCH   1  16
ATOM     16  C   UNL     1       2.383   5.990  18.517  0.00  0.00    +0.000 C 
BRANCH  16  17
ATOM     17  C   UNL     1       3.574   5.613  17.632  0.00  0.00    +0.000 A 
ATOM     18  C   UNL     1       3.827   4.276  17.282  0.00  0.00    +0.000 A 
ATOM     19  C   UNL     1       4.897   3.946  16.449  0.00  0.00    +0.000 A 
ATOM     20  C   UNL     1       5.720   4.949  15.953  0.00  0.00    +0.000 A 
ATOM     21 CL   UNL     1       7.030   4.541  14.913  0.00  0.00    +0.000 Cl
ATOM     22  C   UNL     1       5.489   6.281  16.286  0.00  0.00    +0.000 A 
ATOM     23  C   UNL     1       4.421   6.612  17.128  0.00  0.00    +0.000 A 
ENDBRANCH  16  17
BRANCH  16  24
ATOM     24  C   UNL     1       1.984   4.806  19.402  0.00  0.00    +0.000 A 
ATOM     25  C   UNL     1       1.191   3.784  18.881  0.00  0.00    +0.000 A 
ATOM     26  C   UNL     1       0.928   2.665  19.669  0.00  0.00    +0.000 A 
ATOM     27  C   UNL     1       1.463   2.590  20.949  0.00  0.00    +0.000 A 
ATOM     28  C   UNL     1       2.234   3.647  21.396  0.00  0.00    +0.000 A 
ATOM     29  N   UNL     1       2.504   4.746  20.657  0.00  0.00    +0.000 NA
ENDBRANCH  16  24
ENDBRANCH   1  16
TORSDOF 9
ENDMDL
MODEL 6
REMARK VINA RESULT:      -7.8      1.268      1.989
REMARK  Name = 
REMARK  9 active torsions:
REMARK  status: ('A' for Active; 'I' for Inactive)
REMARK    1  A    between atoms: C_2  and  C_3
REMARK    2  A    between atoms: C_3  and  C_4
REMARK    3  A    between atoms: C_4  and  C_5
REMARK    4  A    between atoms: C_4  and  C_12
REMARK    5  A    between atoms: N_18  and  C_19
REMARK    6  A    between atoms: C_19  and  C_20
REMARK    7  A    between atoms: C_20  and  C_21
REMARK    8  A    between atoms: C_21  and  C_22
REMARK    9  A    between atoms: C_22  and  C_23
REMARK                            x       y       z     vdW  Elec       q    Type
REMARK                         _______ _______ _______ _____ _____    ______ ____
ROOT
ATOM      1  C   UNL     1       4.045   6.424  17.516  0.00  0.00    +0.000 C 
ENDROOT
BRANCH   1   3
ATOM      2  O   UNL     1       6.089   5.320  18.177  0.00  0.00    +0.000 OA
ATOM      3  C   UNL     1       5.547   6.292  17.662  0.00  0.00    +0.000 C 
ATOM      4  N   UNL     1       6.239   7.341  17.095  0.00  0.00    +0.000 N 
ATOM      5  H   UNL     1       5.726   8.079  16.631  0.00  0.00    +0.000 HD
BRANCH   4   6
ATOM      6  C   UNL     1       7.686   7.409  17.075  0.00  0.00    +0.000 C 
BRANCH   6   7
ATOM      7  C   UNL     1       8.258   8.231  18.231  0.00  0.00    +0.000 C 
BRANCH   7   8
ATOM      8  C   UNL     1       8.087   9.736  18.009  0.00  0.00    +0.000 C 
BRANCH   8   9
ATOM      9  C   UNL     1       9.398  10.499  18.203  0.00  0.00    +0.000 C 
BRANCH   9  10
ATOM     10  C   UNL     1       9.388  11.285  19.468  0.00  0.00    +0.000 A 
ATOM     11  C   UNL     1       9.373  10.833  20.771  0.00  0.00    +0.000 A 
ATOM     12  N   UNL     1       9.384  11.961  21.543  0.00  0.00    +0.000 N 
ATOM     13  C   UNL     1       9.411  13.036  20.701  0.00  0.00    +0.000 A 
ATOM     14  N   UNL     1       9.419  12.660  19.443  0.00  0.00    +0.000 NA
ATOM     15  H   UNL     1       9.376  12.001  22.553  0.00  0.00    +0.000 HD
ENDBRANCH   9  10
ENDBRANCH   8   9
ENDBRANCH   7   8
ENDBRANCH   6   7
ENDBRANCH   4   6
ENDBRANCH   1   3
BRANCH   1  16
ATOM     16  C   UNL     1       3.321   6.439  18.874  0.00  0.00    +0.000 C 
BRANCH  16  17
ATOM     17  C   UNL     1       2.351   7.614  19.012  0.00  0.00    +0.000 A 
ATOM     18  C   UNL     1       1.785   7.950  20.254  0.00  0.00    +0.000 A 
ATOM     19  C   UNL     1       0.926   9.043  20.376  0.00  0.00    +0.000 A 
ATOM     20  C   UNL     1       0.629   9.815  19.259  0.00  0.00    +0.000 A 
ATOM     21 CL   UNL     1      -0.420  11.172  19.413  0.00  0.00    +0.000 Cl
ATOM     22  C   UNL     1       1.177   9.501  18.017  0.00  0.00    +0.000 A 
ATOM     23  C   UNL     1       2.033   8.400  17.894  0.00  0.00    +0.000 A 
ENDBRANCH  16  17
BRANCH  16  24
ATOM     24  C   UNL     1       2.590   5.115  19.111  0.00  0.00    +0.000 A 
ATOM     25  C   UNL     1       1.779   4.580  18.110  0.00  0.00    +0.000 A 
ATOM     26  C   UNL     1       1.207   3.324  18.303  0.00  0.00    +0.000 A 
ATOM     27  C   UNL     1       1.461   2.633  19.481  0.00  0.00    +0.000 A 
ATOM     28  C   UNL     1       2.270   3.233  20.429  0.00  0.00    +0.000 A 
ATOM     29  N   UNL     1       2.835   4.451  20.272  0.00  0.00    +0.000 NA
ENDBRANCH  16  24
ENDBRANCH   1  16
TORSDOF 9
ENDMDL
MODEL 7
REMARK VINA RESULT:      -7.7      3.163      4.898
REMARK  Name = 
REMARK  9 active torsions:
REMARK  status: ('A' for Active; 'I' for Inactive)
REMARK    1  A    between atoms: C_2  and  C_3
REMARK    2  A    between atoms: C_3  and  C_4
REMARK    3  A    between atoms: C_4  and  C_5
REMARK    4  A    between atoms: C_4  and  C_12
REMARK    5  A    between atoms: N_18  and  C_19
REMARK    6  A    between atoms: C_19  and  C_20
REMARK    7  A    between atoms: C_20  and  C_21
REMARK    8  A    between atoms: C_21  and  C_22
REMARK    9  A    between atoms: C_22  and  C_23
REMARK                            x       y       z     vdW  Elec       q    Type
REMARK                         _______ _______ _______ _____ _____    ______ ____
ROOT
ATOM      1  C   UNL     1       5.996   6.523  17.251  0.00  0.00    +0.000 C 
ENDROOT
BRANCH   1   3
ATOM      2  O   UNL     1       7.768   6.147  18.848  0.00  0.00    +0.000 OA
ATOM      3  C   UNL     1       7.188   6.922  18.095  0.00  0.00    +0.000 C 
ATOM      4  N   UNL     1       7.593   8.222  17.877  0.00  0.00    +0.000 N 
ATOM      5  H   UNL     1       7.103   8.785  17.194  0.00  0.00    +0.000 HD
BRANCH   4   6
ATOM      6  C   UNL     1       8.739   8.810  18.541  0.00  0.00    +0.000 C 
BRANCH   6   7
ATOM      7  C   UNL     1       8.783  10.334  18.409  0.00  0.00    +0.000 C 
BRANCH   7   8
ATOM      8  C   UNL     1       9.503  10.994  19.587  0.00  0.00    +0.000 C 
BRANCH   8   9
ATOM      9  C   UNL     1      10.910  11.465  19.211  0.00  0.00    +0.000 C 
BRANCH   9  10
ATOM     10  C   UNL     1      10.866  12.569  18.213  0.00  0.00    +0.000 A 
ATOM     11  C   UNL     1       9.907  13.546  18.041  0.00  0.00    +0.000 A 
ATOM     12  N   UNL     1      10.357  14.312  17.002  0.00  0.00    +0.000 N 
ATOM     13  C   UNL     1      11.549  13.789  16.591  0.00  0.00    +0.000 A 
ATOM     14  N   UNL     1      11.885  12.739  17.306  0.00  0.00    +0.000 NA
ATOM     15  H   UNL     1       9.898  15.120  16.605  0.00  0.00    +0.000 HD
ENDBRANCH   9  10
ENDBRANCH   8   9
ENDBRANCH   7   8
ENDBRANCH   6   7
ENDBRANCH   4   6
ENDBRANCH   1   3
BRANCH   1  16
ATOM     16  C   UNL     1       5.943   5.006  16.988  0.00  0.00    +0.000 C 
BRANCH  16  17
ATOM     17  C   UNL     1       4.603   4.385  17.387  0.00  0.00    +0.000 A 
ATOM     18  C   UNL     1       4.496   3.016  17.691  0.00  0.00    +0.000 A 
ATOM     19  C   UNL     1       3.277   2.465  18.085  0.00  0.00    +0.000 A 
ATOM     20  C   UNL     1       2.153   3.276  18.185  0.00  0.00    +0.000 A 
ATOM     21 CL   UNL     1       0.652   2.598  18.685  0.00  0.00    +0.000 Cl
ATOM     22  C   UNL     1       2.234   4.635  17.888  0.00  0.00    +0.000 A 
ATOM     23  C   UNL     1       3.456   5.187  17.487  0.00  0.00    +0.000 A 
ENDBRANCH  16  17
BRANCH  16  24
ATOM     24  C   UNL     1       6.254   4.702  15.520  0.00  0.00    +0.000 A 
ATOM     25  C   UNL     1       5.335   3.991  14.748  0.00  0.00    +0.000 A 
ATOM     26  C   UNL     1       5.587   3.817  13.388  0.00  0.00    +0.000 A 
ATOM     27  C   UNL     1       6.741   4.357  12.833  0.00  0.00    +0.000 A 
ATOM     28  C   UNL     1       7.606   5.043  13.666  0.00  0.00    +0.000 A 
ATOM     29  N   UNL     1       7.391   5.225  14.988  0.00  0.00    +0.000 NA
ENDBRANCH  16  24
ENDBRANCH   1  16
TORSDOF 9
ENDMDL
MODEL 8
REMARK VINA RESULT:      -7.7      4.847      8.396
REMARK  Name = 
REMARK  9 active torsions:
REMARK  status: ('A' for Active; 'I' for Inactive)
REMARK    1  A    between atoms: C_2  and  C_3
REMARK    2  A    between atoms: C_3  and  C_4
REMARK    3  A    between atoms: C_4  and  C_5
REMARK    4  A    between atoms: C_4  and  C_12
REMARK    5  A    between atoms: N_18  and  C_19
REMARK    6  A    between atoms: C_19  and  C_20
REMARK    7  A    between atoms: C_20  and  C_21
REMARK    8  A    between atoms: C_21  and  C_22
REMARK    9  A    between atoms: C_22  and  C_23
REMARK                            x       y       z     vdW  Elec       q    Type
REMARK                         _______ _______ _______ _____ _____    ______ ____
ROOT
ATOM      1  C   UNL     1       2.628   7.221  19.345  0.00  0.00    +0.000 C 
ENDROOT
BRANCH   1   3
ATOM      2  O   UNL     1       1.674   8.596  17.604  0.00  0.00    +0.000 OA
ATOM      3  C   UNL     1       1.899   8.431  18.798  0.00  0.00    +0.000 C 
ATOM      4  N   UNL     1       1.455   9.285  19.785  0.00  0.00    +0.000 N 
ATOM      5  H   UNL     1       1.623   9.051  20.754  0.00  0.00    +0.000 HD
BRANCH   4   6
ATOM      6  C   UNL     1       0.694  10.485  19.501  0.00  0.00    +0.000 C 
BRANCH   6   7
ATOM      7  C   UNL     1      -0.809  10.223  19.392  0.00  0.00    +0.000 C 
BRANCH   7   8
ATOM      8  C   UNL     1      -1.555  11.393  18.746  0.00  0.00    +0.000 C 
BRANCH   8   9
ATOM      9  C   UNL     1      -2.284  10.974  17.467  0.00  0.00    +0.000 C 
BRANCH   9  10
ATOM     10  C   UNL     1      -3.720  11.368  17.506  0.00  0.00    +0.000 A 
ATOM     11  C   UNL     1      -4.650  11.359  16.488  0.00  0.00    +0.000 A 
ATOM     12  N   UNL     1      -5.811  11.798  17.059  0.00  0.00    +0.000 N 
ATOM     13  C   UNL     1      -5.554  12.048  18.376  0.00  0.00    +0.000 A 
ATOM     14  N   UNL     1      -4.301  11.794  18.677  0.00  0.00    +0.000 NA
ATOM     15  H   UNL     1      -6.703  11.918  16.598  0.00  0.00    +0.000 HD
ENDBRANCH   9  10
ENDBRANCH   8   9
ENDBRANCH   7   8
ENDBRANCH   6   7
ENDBRANCH   4   6
ENDBRANCH   1   3
BRANCH   1  16
ATOM     16  C   UNL     1       2.413   5.965  18.481  0.00  0.00    +0.000 C 
BRANCH  16  17
ATOM     17  C   UNL     1       3.619   5.644  17.596  0.00  0.00    +0.000 A 
ATOM     18  C   UNL     1       3.857   4.339  17.132  0.00  0.00    +0.000 A 
ATOM     19  C   UNL     1       4.942   4.062  16.299  0.00  0.00    +0.000 A 
ATOM     20  C   UNL     1       5.796   5.089  15.916  0.00  0.00    +0.000 A 
ATOM     21 CL   UNL     1       7.126   4.749  14.876  0.00  0.00    +0.000 Cl
ATOM     22  C   UNL     1       5.582   6.390  16.363  0.00  0.00    +0.000 A 
ATOM     23  C   UNL     1       4.498   6.666  17.205  0.00  0.00    +0.000 A 
ENDBRANCH  16  17
BRANCH  16  24
ATOM     24  C   UNL     1       2.064   4.760  19.359  0.00  0.00    +0.000 A 
ATOM     25  C   UNL     1       2.535   4.695  20.670  0.00  0.00    +0.000 A 
ATOM     26  C   UNL     1       2.118   3.644  21.486  0.00  0.00    +0.000 A 
ATOM     27  C   UNL     1       1.243   2.693  20.979  0.00  0.00    +0.000 A 
ATOM     28  C   UNL     1       0.826   2.823  19.667  0.00  0.00    +0.000 A 
ATOM     29  N   UNL     1       1.214   3.827  18.851  0.00  0.00    +0.000 NA
ENDBRANCH  16  24
ENDBRANCH   1  16
TORSDOF 9
ENDMDL
MODEL 9
REMARK VINA RESULT:      -7.7      1.075      1.828
REMARK  Name = 
REMARK  9 active torsions:
REMARK  status: ('A' for Active; 'I' for Inactive)
REMARK    1  A    between atoms: C_2  and  C_3
REMARK    2  A    between atoms: C_3  and  C_4
REMARK    3  A    between atoms: C_4  and  C_5
REMARK    4  A    between atoms: C_4  and  C_12
REMARK    5  A    between atoms: N_18  and  C_19
REMARK    6  A    between atoms: C_19  and  C_20
REMARK    7  A    between atoms: C_20  and  C_21
REMARK    8  A    between atoms: C_21  and  C_22
REMARK    9  A    between atoms: C_22  and  C_23
REMARK                            x       y       z     vdW  Elec       q    Type
REMARK                         _______ _______ _______ _____ _____    ______ ____
ROOT
ATOM      1  C   UNL     1       3.680   5.741  17.412  0.00  0.00    +0.000 C 
ENDROOT
BRANCH   1   3
ATOM      2  O   UNL     1       5.540   6.337  15.994  0.00  0.00    +0.000 OA
ATOM      3  C   UNL     1       5.127   6.075  17.118  0.00  0.00    +0.000 C 
ATOM      4  N   UNL     1       5.912   6.123  18.251  0.00  0.00    +0.000 N 
ATOM      5  H   UNL     1       5.487   5.956  19.154  0.00  0.00    +0.000 HD
BRANCH   4   6
ATOM      6  C   UNL     1       7.319   6.466  18.218  0.00  0.00    +0.000 C 
BRANCH   6   7
ATOM      7  C   UNL     1       7.646   7.528  17.167  0.00  0.00    +0.000 C 
BRANCH   7   8
ATOM      8  C   UNL     1       7.766   8.927  17.776  0.00  0.00    +0.000 C 
BRANCH   8   9
ATOM      9  C   UNL     1       8.862   8.999  18.841  0.00  0.00    +0.000 C 
BRANCH   9  10
ATOM     10  C   UNL     1       9.240  10.408  19.138  0.00  0.00    +0.000 A 
ATOM     11  C   UNL     1       9.424  11.019  20.361  0.00  0.00    +0.000 A 
ATOM     12  N   UNL     1       9.776  12.307  20.070  0.00  0.00    +0.000 N 
ATOM     13  C   UNL     1       9.798  12.431  18.711  0.00  0.00    +0.000 A 
ATOM     14  N   UNL     1       9.484  11.301  18.120  0.00  0.00    +0.000 NA
ATOM     15  H   UNL     1       9.984  13.040  20.734  0.00  0.00    +0.000 HD
ENDBRANCH   9  10
ENDBRANCH   8   9
ENDBRANCH   7   8
ENDBRANCH   6   7
ENDBRANCH   4   6
ENDBRANCH   1   3
BRANCH   1  16
ATOM     16  C   UNL     1       3.271   6.113  18.850  0.00  0.00    +0.000 C 
BRANCH  16  17
ATOM     17  C   UNL     1       2.469   7.414  18.917  0.00  0.00    +0.000 A 
ATOM     18  C   UNL     1       1.837   7.820  20.105  0.00  0.00    +0.000 A 
ATOM     19  C   UNL     1       1.135   9.024  20.166  0.00  0.00    +0.000 A 
ATOM     20  C   UNL     1       1.062   9.837  19.042  0.00  0.00    +0.000 A 
ATOM     21 CL   UNL     1       0.208  11.330  19.122  0.00  0.00    +0.000 Cl
ATOM     22  C   UNL     1       1.680   9.456  17.853  0.00  0.00    +0.000 A 
ATOM     23  C   UNL     1       2.378   8.245  17.790  0.00  0.00    +0.000 A 
ENDBRANCH  16  17
BRANCH  16  24
ATOM     24  C   UNL     1       2.486   4.971  19.500  0.00  0.00    +0.000 A 
ATOM     25  C   UNL     1       1.627   4.189  18.727  0.00  0.00    +0.000 A 
ATOM     26  C   UNL     1       1.004   3.089  19.313  0.00  0.00    +0.000 A 
ATOM     27  C   UNL     1       1.255   2.793  20.647  0.00  0.00    +0.000 A 
ATOM     28  C   UNL     1       2.113   3.620  21.348  0.00  0.00    +0.000 A 
ATOM     29  N   UNL     1       2.729   4.694  20.809  0.00  0.00    +0.000 NA
ENDBRANCH  16  24
ENDBRANCH   1  16
TORSDOF 9
ENDMDL
