MODEL 1
REMARK VINA RESULT:      -7.1      0.000      0.000
REMARK  Name = 
REMARK  11 active torsions:
REMARK  status: ('A' for Active; 'I' for Inactive)
REMARK    1  A    between atoms: C_1  and  O_2
REMARK    2  A    between atoms: O_2  and  C_3
REMARK    3  A    between atoms: C_7  and  C_8
REMARK    4  A    between atoms: N_9  and  C_10
REMARK    5  A    between atoms: C_10  and  C_11
REMARK    6  A    between atoms: C_11  and  N_12
REMARK    7  A    between atoms: C_13  and  C_14
REMARK    8  A    between atoms: C_18  and  O_19
REMARK    9  A    between atoms: O_19  and  C_20
REMARK   10  A    between atoms: C_21  and  O_22
REMARK   11  A    between atoms: C_23  and  O_24
REMARK                            x       y       z     vdW  Elec       q    Type
REMARK                         _______ _______ _______ _____ _____    ______ ____
ROOT
ATOM      1  C   UNL     1       7.629   7.895  17.422  0.00  0.00    +0.000 C 
ENDROOT
BRANCH   1   3
ATOM      2  C   UNL     1       8.482  10.049  17.741  0.00  0.00    +0.000 C 
ATOM      3  N   UNL     1       8.271   8.893  18.272  0.00  0.00    +0.000 NA
BRANCH   2   8
ATOM      4  C   UNL     1       9.656  13.450  18.957  0.00  0.00    +0.000 A 
ATOM      5  C   UNL     1      10.372  13.052  20.096  0.00  0.00    +0.000 A 
ATOM      6  C   UNL     1      10.470  11.706  20.461  0.00  0.00    +0.000 A 
ATOM      7  C   UNL     1       9.851  10.727  19.686  0.00  0.00    +0.000 A 
ATOM      8  C   UNL     1       9.133  11.106  18.550  0.00  0.00    +0.000 A 
ATOM      9  C   UNL     1       9.032  12.466  18.184  0.00  0.00    +0.000 A 
BRANCH   4  11
ATOM     10  C   UNL     1      10.922  15.424  18.478  0.00  0.00    +0.000 C 
ATOM     11  O   UNL     1       9.672  14.805  18.756  0.00  0.00    +0.000 OA
ENDBRANCH   4  11
BRANCH   9  12
ATOM     12  O   UNL     1       8.320  12.828  17.066  0.00  0.00    +0.000 OA
ATOM     13  H   UNL     1       7.389  12.982  17.349  0.00  0.00    +0.000 HD
ENDBRANCH   9  12
ENDBRANCH   2   8
ENDBRANCH   1   3
BRANCH   1  14
ATOM     14  C   UNL     1       7.745   6.540  18.133  0.00  0.00    +0.000 C 
BRANCH  14  15
ATOM     15  N   UNL     1       6.422   6.150  18.613  0.00  0.00    +0.000 NA
ATOM     16  C   UNL     1       5.778   5.361  17.820  0.00  0.00    +0.000 C 
BRANCH  16  17
ATOM     17  C   UNL     1       4.439   4.867  18.191  0.00  0.00    +0.000 A 
ATOM     18  C   UNL     1       3.313   5.483  17.632  0.00  0.00    +0.000 A 
ATOM     19  C   UNL     1       2.034   5.057  17.980  0.00  0.00    +0.000 A 
ATOM     20  C   UNL     1       1.868   4.013  18.891  0.00  0.00    +0.000 A 
ATOM     21  C   UNL     1       2.983   3.387  19.456  0.00  0.00    +0.000 A 
ATOM     22  C   UNL     1       4.270   3.820  19.096  0.00  0.00    +0.000 A 
BRANCH  21  23
ATOM     23  O   UNL     1       2.944   2.359  20.366  0.00  0.00    +0.000 OA
ATOM     24  C   UNL     1       2.079   2.541  21.484  0.00  0.00    +0.000 C 
ENDBRANCH  21  23
BRANCH  22  25
ATOM     25  O   UNL     1       5.359   3.195  19.653  0.00  0.00    +0.000 OA
ATOM     26  H   UNL     1       5.002   2.684  20.409  0.00  0.00    +0.000 HD
ENDBRANCH  22  25
ENDBRANCH  16  17
ENDBRANCH  14  15
ENDBRANCH   1  14
TORSDOF 9
ENDMDL
MODEL 2
REMARK VINA RESULT:      -6.9      4.564      7.383
REMARK  Name = 
REMARK  11 active torsions:
REMARK  status: ('A' for Active; 'I' for Inactive)
REMARK    1  A    between atoms: C_1  and  O_2
REMARK    2  A    between atoms: O_2  and  C_3
REMARK    3  A    between atoms: C_7  and  C_8
REMARK    4  A    between atoms: N_9  and  C_10
REMARK    5  A    between atoms: C_10  and  C_11
REMARK    6  A    between atoms: C_11  and  N_12
REMARK    7  A    between atoms: C_13  and  C_14
REMARK    8  A    between atoms: C_18  and  O_19
REMARK    9  A    between atoms: O_19  and  C_20
REMARK   10  A    between atoms: C_21  and  O_22
REMARK   11  A    between atoms: C_23  and  O_24
REMARK                            x       y       z     vdW  Elec       q    Type
REMARK                         _______ _______ _______ _____ _____    ______ ____
ROOT
ATOM      1  C   UNL     1       1.858   3.575  21.106  0.00  0.00    +0.000 C 
ENDROOT
BRANCH   1   3
ATOM      2  C   UNL     1       2.434   5.740  20.434  0.00  0.00    +0.000 C 
ATOM      3  N   UNL     1       1.556   4.799  20.368  0.00  0.00    +0.000 NA
BRANCH   2   8
ATOM      4  C   UNL     1       1.337   9.290  19.650  0.00  0.00    +0.000 A 
ATOM      5  C   UNL     1       1.742   9.365  18.309  0.00  0.00    +0.000 A 
ATOM      6  C   UNL     1       2.361   8.284  17.674  0.00  0.00    +0.000 A 
ATOM      7  C   UNL     1       2.584   7.099  18.374  0.00  0.00    +0.000 A 
ATOM      8  C   UNL     1       2.187   7.008  19.710  0.00  0.00    +0.000 A 
ATOM      9  C   UNL     1       1.565   8.102  20.351  0.00  0.00    +0.000 A 
BRANCH   4  11
ATOM     10  C   UNL     1      -0.580  10.723  19.675  0.00  0.00    +0.000 C 
ATOM     11  O   UNL     1       0.748  10.442  20.100  0.00  0.00    +0.000 OA
ENDBRANCH   4  11
BRANCH   9  12
ATOM     12  O   UNL     1       1.183   8.003  21.667  0.00  0.00    +0.000 OA
ATOM     13  H   UNL     1       1.818   7.396  22.112  0.00  0.00    +0.000 HD
ENDBRANCH   9  12
ENDBRANCH   2   8
ENDBRANCH   1   3
BRANCH   1  14
ATOM     14  C   UNL     1       2.392   2.549  20.098  0.00  0.00    +0.000 C 
BRANCH  14  15
ATOM     15  N   UNL     1       2.975   3.265  18.967  0.00  0.00    +0.000 NA
ATOM     16  C   UNL     1       4.261   3.376  19.012  0.00  0.00    +0.000 C 
BRANCH  16  17
ATOM     17  C   UNL     1       4.985   4.054  17.922  0.00  0.00    +0.000 A 
ATOM     18  C   UNL     1       4.568   3.848  16.602  0.00  0.00    +0.000 A 
ATOM     19  C   UNL     1       5.246   4.455  15.548  0.00  0.00    +0.000 A 
ATOM     20  C   UNL     1       6.349   5.271  15.803  0.00  0.00    +0.000 A 
ATOM     21  C   UNL     1       6.776   5.488  17.115  0.00  0.00    +0.000 A 
ATOM     22  C   UNL     1       6.084   4.876  18.174  0.00  0.00    +0.000 A 
BRANCH  21  23
ATOM     23  O   UNL     1       7.849   6.261  17.488  0.00  0.00    +0.000 OA
ATOM     24  C   UNL     1       7.623   7.667  17.537  0.00  0.00    +0.000 C 
ENDBRANCH  21  23
BRANCH  22  25
ATOM     25  O   UNL     1       6.509   5.099  19.460  0.00  0.00    +0.000 OA
ATOM     26  H   UNL     1       6.466   6.070  19.580  0.00  0.00    +0.000 HD
ENDBRANCH  22  25
ENDBRANCH  16  17
ENDBRANCH  14  15
ENDBRANCH   1  14
TORSDOF 9
ENDMDL
MODEL 3
REMARK VINA RESULT:      -6.8      1.790      9.782
REMARK  Name = 
REMARK  11 active torsions:
REMARK  status: ('A' for Active; 'I' for Inactive)
REMARK    1  A    between atoms: C_1  and  O_2
REMARK    2  A    between atoms: O_2  and  C_3
REMARK    3  A    between atoms: C_7  and  C_8
REMARK    4  A    between atoms: N_9  and  C_10
REMARK    5  A    between atoms: C_10  and  C_11
REMARK    6  A    between atoms: C_11  and  N_12
REMARK    7  A    between atoms: C_13  and  C_14
REMARK    8  A    between atoms: C_18  and  O_19
REMARK    9  A    between atoms: O_19  and  C_20
REMARK   10  A    between atoms: C_21  and  O_22
REMARK   11  A    between atoms: C_23  and  O_24
REMARK                            x       y       z     vdW  Elec       q    Type
REMARK                         _______ _______ _______ _____ _____    ______ ____
ROOT
ATOM      1  C   UNL     1       6.983   6.915  16.840  0.00  0.00    +0.000 C 
ENDROOT
BRANCH   1   3
ATOM      2  C   UNL     1       5.581   5.114  17.351  0.00  0.00    +0.000 C 
ATOM      3  N   UNL     1       5.712   6.396  17.338  0.00  0.00    +0.000 NA
BRANCH   2   8
ATOM      4  C   UNL     1       2.646   4.232  19.593  0.00  0.00    +0.000 A 
ATOM      5  C   UNL     1       1.937   3.391  18.723  0.00  0.00    +0.000 A 
ATOM      6  C   UNL     1       2.403   3.118  17.433  0.00  0.00    +0.000 A 
ATOM      7  C   UNL     1       3.597   3.683  16.989  0.00  0.00    +0.000 A 
ATOM      8  C   UNL     1       4.315   4.524  17.843  0.00  0.00    +0.000 A 
ATOM      9  C   UNL     1       3.842   4.800  19.145  0.00  0.00    +0.000 A 
BRANCH   4  11
ATOM     10  C   UNL     1       1.870   3.221  21.620  0.00  0.00    +0.000 C 
ATOM     11  O   UNL     1       2.040   4.380  20.813  0.00  0.00    +0.000 OA
ENDBRANCH   4  11
BRANCH   9  12
ATOM     12  O   UNL     1       4.555   5.632  19.975  0.00  0.00    +0.000 OA
ATOM     13  H   UNL     1       4.857   6.397  19.434  0.00  0.00    +0.000 HD
ENDBRANCH   9  12
ENDBRANCH   2   8
ENDBRANCH   1   3
BRANCH   1  14
ATOM     14  C   UNL     1       7.849   7.262  18.059  0.00  0.00    +0.000 C 
BRANCH  14  15
ATOM     15  N   UNL     1       8.146   8.691  18.028  0.00  0.00    +0.000 NA
ATOM     16  C   UNL     1       8.878   9.104  19.008  0.00  0.00    +0.000 C 
BRANCH  16  17
ATOM     17  C   UNL     1       9.277  10.522  19.090  0.00  0.00    +0.000 A 
ATOM     18  C   UNL     1       9.488  11.234  17.904  0.00  0.00    +0.000 A 
ATOM     19  C   UNL     1       9.889  12.566  17.947  0.00  0.00    +0.000 A 
ATOM     20  C   UNL     1      10.085  13.199  19.176  0.00  0.00    +0.000 A 
ATOM     21  C   UNL     1       9.876  12.501  20.368  0.00  0.00    +0.000 A 
ATOM     22  C   UNL     1       9.467  11.158  20.316  0.00  0.00    +0.000 A 
BRANCH  21  23
ATOM     23  O   UNL     1      10.044  13.014  21.631  0.00  0.00    +0.000 OA
ATOM     24  C   UNL     1       9.064  13.954  22.064  0.00  0.00    +0.000 C 
ENDBRANCH  21  23
BRANCH  22  25
ATOM     25  O   UNL     1       9.260  10.483  21.494  0.00  0.00    +0.000 OA
ATOM     26  H   UNL     1       9.325  11.165  22.195  0.00  0.00    +0.000 HD
ENDBRANCH  22  25
ENDBRANCH  16  17
ENDBRANCH  14  15
ENDBRANCH   1  14
TORSDOF 9
ENDMDL
MODEL 4
REMARK VINA RESULT:      -6.8      1.729      2.074
REMARK  Name = 
REMARK  11 active torsions:
REMARK  status: ('A' for Active; 'I' for Inactive)
REMARK    1  A    between atoms: C_1  and  O_2
REMARK    2  A    between atoms: O_2  and  C_3
REMARK    3  A    between atoms: C_7  and  C_8
REMARK    4  A    between atoms: N_9  and  C_10
REMARK    5  A    between atoms: C_10  and  C_11
REMARK    6  A    between atoms: C_11  and  N_12
REMARK    7  A    between atoms: C_13  and  C_14
REMARK    8  A    between atoms: C_18  and  O_19
REMARK    9  A    between atoms: O_19  and  C_20
REMARK   10  A    between atoms: C_21  and  O_22
REMARK   11  A    between atoms: C_23  and  O_24
REMARK                            x       y       z     vdW  Elec       q    Type
REMARK                         _______ _______ _______ _____ _____    ______ ____
ROOT
ATOM      1  C   UNL     1       8.532   8.409  18.552  0.00  0.00    +0.000 C 
ENDROOT
BRANCH   1   3
ATOM      2  C   UNL     1       9.720  10.406  18.284  0.00  0.00    +0.000 C 
ATOM      3  N   UNL     1       8.556   9.855  18.353  0.00  0.00    +0.000 NA
BRANCH   2   8
ATOM      4  C   UNL     1      11.113  13.865  17.571  0.00  0.00    +0.000 A 
ATOM      5  C   UNL     1       9.941  14.621  17.723  0.00  0.00    +0.000 A 
ATOM      6  C   UNL     1       8.723  14.017  18.048  0.00  0.00    +0.000 A 
ATOM      7  C   UNL     1       8.656  12.638  18.232  0.00  0.00    +0.000 A 
ATOM      8  C   UNL     1       9.814  11.870  18.084  0.00  0.00    +0.000 A 
ATOM      9  C   UNL     1      11.043  12.481  17.752  0.00  0.00    +0.000 A 
BRANCH   4  11
ATOM     10  C   UNL     1      12.026  16.029  17.107  0.00  0.00    +0.000 C 
ATOM     11  O   UNL     1      12.208  14.626  17.255  0.00  0.00    +0.000 OA
ENDBRANCH   4  11
BRANCH   9  12
ATOM     12  O   UNL     1      12.175  11.716  17.605  0.00  0.00    +0.000 OA
ATOM     13  H   UNL     1      11.915  10.899  17.120  0.00  0.00    +0.000 HD
ENDBRANCH   9  12
ENDBRANCH   2   8
ENDBRANCH   1   3
BRANCH   1  14
ATOM     14  C   UNL     1       7.706   7.800  17.411  0.00  0.00    +0.000 C 
BRANCH  14  15
ATOM     15  N   UNL     1       6.733   6.873  17.982  0.00  0.00    +0.000 NA
ATOM     16  C   UNL     1       5.648   6.749  17.294  0.00  0.00    +0.000 C 
BRANCH  16  17
ATOM     17  C   UNL     1       4.588   5.827  17.740  0.00  0.00    +0.000 A 
ATOM     18  C   UNL     1       3.256   6.255  17.695  0.00  0.00    +0.000 A 
ATOM     19  C   UNL     1       2.233   5.418  18.132  0.00  0.00    +0.000 A 
ATOM     20  C   UNL     1       2.532   4.145  18.622  0.00  0.00    +0.000 A 
ATOM     21  C   UNL     1       3.856   3.704  18.672  0.00  0.00    +0.000 A 
ATOM     22  C   UNL     1       4.882   4.553  18.224  0.00  0.00    +0.000 A 
BRANCH  21  23
ATOM     23  O   UNL     1       4.271   2.480  19.139  0.00  0.00    +0.000 OA
ATOM     24  C   UNL     1       3.626   1.340  18.577  0.00  0.00    +0.000 C 
ENDBRANCH  21  23
BRANCH  22  25
ATOM     25  O   UNL     1       6.180   4.107  18.274  0.00  0.00    +0.000 OA
ATOM     26  H   UNL     1       6.116   3.130  18.240  0.00  0.00    +0.000 HD
ENDBRANCH  22  25
ENDBRANCH  16  17
ENDBRANCH  14  15
ENDBRANCH   1  14
TORSDOF 9
ENDMDL
MODEL 5
REMARK VINA RESULT:      -6.8      0.926     10.487
REMARK  Name = 
REMARK  11 active torsions:
REMARK  status: ('A' for Active; 'I' for Inactive)
REMARK    1  A    between atoms: C_1  and  O_2
REMARK    2  A    between atoms: O_2  and  C_3
REMARK    3  A    between atoms: C_7  and  C_8
REMARK    4  A    between atoms: N_9  and  C_10
REMARK    5  A    between atoms: C_10  and  C_11
REMARK    6  A    between atoms: C_11  and  N_12
REMARK    7  A    between atoms: C_13  and  C_14
REMARK    8  A    between atoms: C_18  and  O_19
REMARK    9  A    between atoms: O_19  and  C_20
REMARK   10  A    between atoms: C_21  and  O_22
REMARK   11  A    between atoms: C_23  and  O_24
REMARK                            x       y       z     vdW  Elec       q    Type
REMARK                         _______ _______ _______ _____ _____    ______ ____
ROOT
ATOM      1  C   UNL     1       7.740   6.959  18.108  0.00  0.00    +0.000 C 
ENDROOT
BRANCH   1   3
ATOM      2  C   UNL     1       6.010   5.390  18.235  0.00  0.00    +0.000 C 
ATOM      3  N   UNL     1       6.316   6.640  18.166  0.00  0.00    +0.000 NA
BRANCH   2   8
ATOM      4  C   UNL     1       2.845   3.376  18.823  0.00  0.00    +0.000 A 
ATOM      5  C   UNL     1       1.894   4.309  18.383  0.00  0.00    +0.000 A 
ATOM      6  C   UNL     1       2.275   5.567  17.907  0.00  0.00    +0.000 A 
ATOM      7  C   UNL     1       3.623   5.916  17.859  0.00  0.00    +0.000 A 
ATOM      8  C   UNL     1       4.583   4.999  18.294  0.00  0.00    +0.000 A 
ATOM      9  C   UNL     1       4.197   3.729  18.778  0.00  0.00    +0.000 A 
BRANCH   4  11
ATOM     10  C   UNL     1       0.874   2.064  19.175  0.00  0.00    +0.000 C 
ATOM     11  O   UNL     1       2.288   2.200  19.251  0.00  0.00    +0.000 OA
ENDBRANCH   4  11
BRANCH   9  12
ATOM     12  O   UNL     1       5.149   2.837  19.207  0.00  0.00    +0.000 OA
ATOM     13  H   UNL     1       5.075   2.034  18.641  0.00  0.00    +0.000 HD
ENDBRANCH   9  12
ENDBRANCH   2   8
ENDBRANCH   1   3
BRANCH   1  14
ATOM     14  C   UNL     1       7.873   8.365  17.507  0.00  0.00    +0.000 C 
BRANCH  14  15
ATOM     15  N   UNL     1       8.577   9.216  18.463  0.00  0.00    +0.000 NA
ATOM     16  C   UNL     1       8.686  10.449  18.098  0.00  0.00    +0.000 C 
BRANCH  16  17
ATOM     17  C   UNL     1       9.353  11.427  18.978  0.00  0.00    +0.000 A 
ATOM     18  C   UNL     1       9.537  11.105  20.328  0.00  0.00    +0.000 A 
ATOM     19  C   UNL     1      10.141  12.016  21.191  0.00  0.00    +0.000 A 
ATOM     20  C   UNL     1      10.564  13.258  20.714  0.00  0.00    +0.000 A 
ATOM     21  C   UNL     1      10.387  13.592  19.369  0.00  0.00    +0.000 A 
ATOM     22  C   UNL     1       9.782  12.666  18.503  0.00  0.00    +0.000 A 
BRANCH  21  23
ATOM     23  O   UNL     1      10.754  14.782  18.788  0.00  0.00    +0.000 OA
ATOM     24  C   UNL     1      11.731  15.549  19.488  0.00  0.00    +0.000 C 
ENDBRANCH  21  23
BRANCH  22  25
ATOM     25  O   UNL     1       9.617  13.003  17.182  0.00  0.00    +0.000 OA
ATOM     26  H   UNL     1       9.843  13.955  17.131  0.00  0.00    +0.000 HD
ENDBRANCH  22  25
ENDBRANCH  16  17
ENDBRANCH  14  15
ENDBRANCH   1  14
TORSDOF 9
ENDMDL
MODEL 6
REMARK VINA RESULT:      -6.8      6.488      9.482
REMARK  Name = 
REMARK  11 active torsions:
REMARK  status: ('A' for Active; 'I' for Inactive)
REMARK    1  A    between atoms: C_1  and  O_2
REMARK    2  A    between atoms: O_2  and  C_3
REMARK    3  A    between atoms: C_7  and  C_8
REMARK    4  A    between atoms: N_9  and  C_10
REMARK    5  A    between atoms: C_10  and  C_11
REMARK    6  A    between atoms: C_11  and  N_12
REMARK    7  A    between atoms: C_13  and  C_14
REMARK    8  A    between atoms: C_18  and  O_19
REMARK    9  A    between atoms: O_19  and  C_20
REMARK   10  A    between atoms: C_21  and  O_22
REMARK   11  A    between atoms: C_23  and  O_24
REMARK                            x       y       z     vdW  Elec       q    Type
REMARK                         _______ _______ _______ _____ _____    ______ ____
ROOT
ATOM      1  C   UNL     1       1.855   9.804  17.974  0.00  0.00    +0.000 C 
ENDROOT
BRANCH   1   3
ATOM      2  C   UNL     1       2.572   7.609  18.346  0.00  0.00    +0.000 C 
ATOM      3  N   UNL     1       2.356   8.529  17.469  0.00  0.00    +0.000 NA
BRANCH   2   8
ATOM      4  C   UNL     1       4.842   4.912  16.934  0.00  0.00    +0.000 A 
ATOM      5  C   UNL     1       3.994   3.803  17.071  0.00  0.00    +0.000 A 
ATOM      6  C   UNL     1       2.711   3.930  17.613  0.00  0.00    +0.000 A 
ATOM      7  C   UNL     1       2.250   5.178  18.028  0.00  0.00    +0.000 A 
ATOM      8  C   UNL     1       3.082   6.292  17.899  0.00  0.00    +0.000 A 
ATOM      9  C   UNL     1       4.378   6.163  17.354  0.00  0.00    +0.000 A 
BRANCH   4  11
ATOM     10  C   UNL     1       7.180   4.508  17.249  0.00  0.00    +0.000 C 
ATOM     11  O   UNL     1       6.056   4.598  16.382  0.00  0.00    +0.000 OA
ENDBRANCH   4  11
BRANCH   9  12
ATOM     12  O   UNL     1       5.190   7.265  17.236  0.00  0.00    +0.000 OA
ATOM     13  H   UNL     1       5.360   7.402  16.276  0.00  0.00    +0.000 HD
ENDBRANCH   9  12
ENDBRANCH   2   8
ENDBRANCH   1   3
BRANCH   1  14
ATOM     14  C   UNL     1       1.104   9.519  19.280  0.00  0.00    +0.000 C 
BRANCH  14  15
ATOM     15  N   UNL     1      -0.321   9.753  19.060  0.00  0.00    +0.000 NA
ATOM     16  C   UNL     1      -0.591  10.440  18.001  0.00  0.00    +0.000 C 
BRANCH  16  17
ATOM     17  C   UNL     1      -1.991  10.730  17.642  0.00  0.00    +0.000 A 
ATOM     18  C   UNL     1      -2.471  10.308  16.397  0.00  0.00    +0.000 A 
ATOM     19  C   UNL     1      -3.781  10.588  16.017  0.00  0.00    +0.000 A 
ATOM     20  C   UNL     1      -4.624  11.293  16.877  0.00  0.00    +0.000 A 
ATOM     21  C   UNL     1      -4.159  11.720  18.124  0.00  0.00    +0.000 A 
ATOM     22  C   UNL     1      -2.837  11.430  18.502  0.00  0.00    +0.000 A 
BRANCH  21  23
ATOM     23  O   UNL     1      -4.890  12.427  19.048  0.00  0.00    +0.000 OA
ATOM     24  C   UNL     1      -6.077  11.799  19.524  0.00  0.00    +0.000 C 
ENDBRANCH  21  23
BRANCH  22  25
ATOM     25  O   UNL     1      -2.392  11.849  19.731  0.00  0.00    +0.000 OA
ATOM     26  H   UNL     1      -1.932  12.697  19.561  0.00  0.00    +0.000 HD
ENDBRANCH  22  25
ENDBRANCH  16  17
ENDBRANCH  14  15
ENDBRANCH   1  14
TORSDOF 9
ENDMDL
MODEL 7
REMARK VINA RESULT:      -6.7      5.140      7.538
REMARK  Name = 
REMARK  11 active torsions:
REMARK  status: ('A' for Active; 'I' for Inactive)
REMARK    1  A    between atoms: C_1  and  O_2
REMARK    2  A    between atoms: O_2  and  C_3
REMARK    3  A    between atoms: C_7  and  C_8
REMARK    4  A    between atoms: N_9  and  C_10
REMARK    5  A    between atoms: C_10  and  C_11
REMARK    6  A    between atoms: C_11  and  N_12
REMARK    7  A    between atoms: C_13  and  C_14
REMARK    8  A    between atoms: C_18  and  O_19
REMARK    9  A    between atoms: O_19  and  C_20
REMARK   10  A    between atoms: C_21  and  O_22
REMARK   11  A    between atoms: C_23  and  O_24
REMARK                            x       y       z     vdW  Elec       q    Type
REMARK                         _______ _______ _______ _____ _____    ______ ____
ROOT
ATOM      1  C   UNL     1       1.816   3.771  20.742  0.00  0.00    +0.000 C 
ENDROOT
BRANCH   1   3
ATOM      2  C   UNL     1       1.997   6.093  20.517  0.00  0.00    +0.000 C 
ATOM      3  N   UNL     1       1.638   4.989  19.956  0.00  0.00    +0.000 NA
BRANCH   2   8
ATOM      4  C   UNL     1       1.004   9.646  19.621  0.00  0.00    +0.000 A 
ATOM      5  C   UNL     1       1.569   9.727  18.340  0.00  0.00    +0.000 A 
ATOM      6  C   UNL     1       2.260   8.648  17.780  0.00  0.00    +0.000 A 
ATOM      7  C   UNL     1       2.396   7.460  18.496  0.00  0.00    +0.000 A 
ATOM      8  C   UNL     1       1.841   7.364  19.774  0.00  0.00    +0.000 A 
ATOM      9  C   UNL     1       1.145   8.455  20.339  0.00  0.00    +0.000 A 
BRANCH   4  11
ATOM     10  C   UNL     1      -0.969  11.000  19.552  0.00  0.00    +0.000 C 
ATOM     11  O   UNL     1       0.365  10.797  20.002  0.00  0.00    +0.000 OA
ENDBRANCH   4  11
BRANCH   9  12
ATOM     12  O   UNL     1       0.606   8.351  21.599  0.00  0.00    +0.000 OA
ATOM     13  H   UNL     1       1.193   8.852  22.211  0.00  0.00    +0.000 HD
ENDBRANCH   9  12
ENDBRANCH   2   8
ENDBRANCH   1   3
BRANCH   1  14
ATOM     14  C   UNL     1       2.927   2.950  20.074  0.00  0.00    +0.000 C 
BRANCH  14  15
ATOM     15  N   UNL     1       3.647   3.811  19.140  0.00  0.00    +0.000 NA
ATOM     16  C   UNL     1       4.904   3.943  19.397  0.00  0.00    +0.000 C 
BRANCH  16  17
ATOM     17  C   UNL     1       5.759   4.765  18.521  0.00  0.00    +0.000 A 
ATOM     18  C   UNL     1       6.763   5.551  19.099  0.00  0.00    +0.000 A 
ATOM     19  C   UNL     1       7.570   6.357  18.301  0.00  0.00    +0.000 A 
ATOM     20  C   UNL     1       7.381   6.388  16.919  0.00  0.00    +0.000 A 
ATOM     21  C   UNL     1       6.384   5.608  16.327  0.00  0.00    +0.000 A 
ATOM     22  C   UNL     1       5.576   4.794  17.138  0.00  0.00    +0.000 A 
BRANCH  21  23
ATOM     23  O   UNL     1       6.099   5.563  14.984  0.00  0.00    +0.000 OA
ATOM     24  C   UNL     1       7.049   4.889  14.163  0.00  0.00    +0.000 C 
ENDBRANCH  21  23
BRANCH  22  25
ATOM     25  O   UNL     1       4.602   4.028  16.547  0.00  0.00    +0.000 OA
ATOM     26  H   UNL     1       4.209   3.505  17.276  0.00  0.00    +0.000 HD
ENDBRANCH  22  25
ENDBRANCH  16  17
ENDBRANCH  14  15
ENDBRANCH   1  14
TORSDOF 9
ENDMDL
MODEL 8
REMARK VINA RESULT:      -6.7      5.145      7.430
REMARK  Name = 
REMARK  11 active torsions:
REMARK  status: ('A' for Active; 'I' for Inactive)
REMARK    1  A    between atoms: C_1  and  O_2
REMARK    2  A    between atoms: O_2  and  C_3
REMARK    3  A    between atoms: C_7  and  C_8
REMARK    4  A    between atoms: N_9  and  C_10
REMARK    5  A    between atoms: C_10  and  C_11
REMARK    6  A    between atoms: C_11  and  N_12
REMARK    7  A    between atoms: C_13  and  C_14
REMARK    8  A    between atoms: C_18  and  O_19
REMARK    9  A    between atoms: O_19  and  C_20
REMARK   10  A    between atoms: C_21  and  O_22
REMARK   11  A    between atoms: C_23  and  O_24
REMARK                            x       y       z     vdW  Elec       q    Type
REMARK                         _______ _______ _______ _____ _____    ______ ____
ROOT
ATOM      1  C   UNL     1       2.956   3.182  20.492  0.00  0.00    +0.000 C 
ENDROOT
BRANCH   1   3
ATOM      2  C   UNL     1       4.923   3.797  19.386  0.00  0.00    +0.000 C 
ATOM      3  N   UNL     1       3.691   4.096  19.622  0.00  0.00    +0.000 NA
BRANCH   2   8
ATOM      4  C   UNL     1       6.280   5.559  16.308  0.00  0.00    +0.000 A 
ATOM      5  C   UNL     1       7.256   6.363  16.915  0.00  0.00    +0.000 A 
ATOM      6  C   UNL     1       7.467   6.334  18.297  0.00  0.00    +0.000 A 
ATOM      7  C   UNL     1       6.702   5.491  19.101  0.00  0.00    +0.000 A 
ATOM      8  C   UNL     1       5.725   4.685  18.512  0.00  0.00    +0.000 A 
ATOM      9  C   UNL     1       5.511   4.717  17.117  0.00  0.00    +0.000 A 
BRANCH   4  11
ATOM     10  C   UNL     1       6.927   4.792  14.134  0.00  0.00    +0.000 C 
ATOM     11  O   UNL     1       6.219   5.719  14.949  0.00  0.00    +0.000 OA
ENDBRANCH   4  11
BRANCH   9  12
ATOM     12  O   UNL     1       4.545   3.923  16.549  0.00  0.00    +0.000 OA
ATOM     13  H   UNL     1       4.102   3.432  17.279  0.00  0.00    +0.000 HD
ENDBRANCH   9  12
ENDBRANCH   2   8
ENDBRANCH   1   3
BRANCH   1  14
ATOM     14  C   UNL     1       1.765   3.956  21.073  0.00  0.00    +0.000 C 
BRANCH  14  15
ATOM     15  N   UNL     1       1.492   5.105  20.214  0.00  0.00    +0.000 NA
ATOM     16  C   UNL     1       2.048   6.203  20.601  0.00  0.00    +0.000 C 
BRANCH  16  17
ATOM     17  C   UNL     1       1.877   7.438  19.814  0.00  0.00    +0.000 A 
ATOM     18  C   UNL     1       2.405   7.493  18.519  0.00  0.00    +0.000 A 
ATOM     19  C   UNL     1       2.283   8.653  17.759  0.00  0.00    +0.000 A 
ATOM     20  C   UNL     1       1.632   9.770  18.286  0.00  0.00    +0.000 A 
ATOM     21  C   UNL     1       1.098   9.729  19.576  0.00  0.00    +0.000 A 
ATOM     22  C   UNL     1       1.222   8.553  20.335  0.00  0.00    +0.000 A 
BRANCH  21  23
ATOM     23  O   UNL     1       0.446  10.764  20.202  0.00  0.00    +0.000 OA
ATOM     24  C   UNL     1       1.176  11.982  20.330  0.00  0.00    +0.000 C 
ENDBRANCH  21  23
BRANCH  22  25
ATOM     25  O   UNL     1       0.689   8.523  21.600  0.00  0.00    +0.000 OA
ATOM     26  H   UNL     1       1.445   8.325  22.192  0.00  0.00    +0.000 HD
ENDBRANCH  22  25
ENDBRANCH  16  17
ENDBRANCH  14  15
ENDBRANCH   1  14
TORSDOF 9
ENDMDL
MODEL 9
REMARK VINA RESULT:      -6.7      1.249      1.400
REMARK  Name = 
REMARK  11 active torsions:
REMARK  status: ('A' for Active; 'I' for Inactive)
REMARK    1  A    between atoms: C_1  and  O_2
REMARK    2  A    between atoms: O_2  and  C_3
REMARK    3  A    between atoms: C_7  and  C_8
REMARK    4  A    between atoms: N_9  and  C_10
REMARK    5  A    between atoms: C_10  and  C_11
REMARK    6  A    between atoms: C_11  and  N_12
REMARK    7  A    between atoms: C_13  and  C_14
REMARK    8  A    between atoms: C_18  and  O_19
REMARK    9  A    between atoms: O_19  and  C_20
REMARK   10  A    between atoms: C_21  and  O_22
REMARK   11  A    between atoms: C_23  and  O_24
REMARK                            x       y       z     vdW  Elec       q    Type
REMARK                         _______ _______ _______ _____ _____    ______ ____
ROOT
ATOM      1  C   UNL     1       8.259   8.334  18.465  0.00  0.00    +0.000 C 
ENDROOT
BRANCH   1   3
ATOM      2  C   UNL     1       9.258  10.246  19.369  0.00  0.00    +0.000 C 
ATOM      3  N   UNL     1       8.910   9.630  18.291  0.00  0.00    +0.000 NA
BRANCH   2   8
ATOM      4  C   UNL     1      10.068  13.798  18.296  0.00  0.00    +0.000 A 
ATOM      5  C   UNL     1      11.200  14.026  19.092  0.00  0.00    +0.000 A 
ATOM      6  C   UNL     1      11.689  13.045  19.961  0.00  0.00    +0.000 A 
ATOM      7  C   UNL     1      11.051  11.809  20.047  0.00  0.00    +0.000 A 
ATOM      8  C   UNL     1       9.921  11.566  19.262  0.00  0.00    +0.000 A 
ATOM      9  C   UNL     1       9.427  12.559  18.387  0.00  0.00    +0.000 A 
BRANCH   4  11
ATOM     10  C   UNL     1      10.188  16.157  17.909  0.00  0.00    +0.000 C 
ATOM     11  O   UNL     1       9.738  14.869  17.508  0.00  0.00    +0.000 OA
ENDBRANCH   4  11
BRANCH   9  12
ATOM     12  O   UNL     1       8.312  12.311  17.623  0.00  0.00    +0.000 OA
ATOM     13  H   UNL     1       8.080  11.361  17.742  0.00  0.00    +0.000 HD
ENDBRANCH   9  12
ENDBRANCH   2   8
ENDBRANCH   1   3
BRANCH   1  14
ATOM     14  C   UNL     1       7.744   7.889  17.090  0.00  0.00    +0.000 C 
BRANCH  14  15
ATOM     15  N   UNL     1       6.369   7.418  17.236  0.00  0.00    +0.000 NA
ATOM     16  C   UNL     1       6.256   6.288  17.848  0.00  0.00    +0.000 C 
BRANCH  16  17
ATOM     17  C   UNL     1       4.922   5.705  18.088  0.00  0.00    +0.000 A 
ATOM     18  C   UNL     1       3.788   6.473  17.803  0.00  0.00    +0.000 A 
ATOM     19  C   UNL     1       2.515   5.961  18.041  0.00  0.00    +0.000 A 
ATOM     20  C   UNL     1       2.364   4.678  18.569  0.00  0.00    +0.000 A 
ATOM     21  C   UNL     1       3.488   3.899  18.857  0.00  0.00    +0.000 A 
ATOM     22  C   UNL     1       4.769   4.420  18.609  0.00  0.00    +0.000 A 
BRANCH  21  23
ATOM     23  O   UNL     1       3.464   2.631  19.384  0.00  0.00    +0.000 OA
ATOM     24  C   UNL     1       3.070   1.588  18.497  0.00  0.00    +0.000 C 
ENDBRANCH  21  23
BRANCH  22  25
ATOM     25  O   UNL     1       5.866   3.645  18.892  0.00  0.00    +0.000 OA
ATOM     26  H   UNL     1       6.527   3.878  18.208  0.00  0.00    +0.000 HD
ENDBRANCH  22  25
ENDBRANCH  16  17
ENDBRANCH  14  15
ENDBRANCH   1  14
TORSDOF 9
ENDMDL
