MODEL 1
REMARK VINA RESULT:      -7.2      0.000      0.000
REMARK  Name = 
REMARK  8 active torsions:
REMARK  status: ('A' for Active; 'I' for Inactive)
REMARK    1  A    between atoms: C_1  and  C_2
REMARK    2  A    between atoms: C_2  and  O_3
REMARK    3  A    between atoms: O_3  and  C_4
REMARK    4  A    between atoms: C_4  and  C_6
REMARK    5  A    between atoms: C_11  and  S_12
REMARK    6  A    between atoms: S_12  and  C_13
REMARK    7  A    between atoms: C_13  and  C_14
REMARK    8  A    between atoms: C_23  and  O_24
REMARK                            x       y       z     vdW  Elec       q    Type
REMARK                         _______ _______ _______ _____ _____    ______ ____
ROOT
ATOM      1  C   UNL     1       3.451   5.497  18.951  0.00  0.00    +0.000 A 
ATOM      2  C   UNL     1       3.992   6.054  17.672  0.00  0.00    +0.000 A 
ATOM      3  N   UNL     1       3.709   7.208  17.137  0.00  0.00    +0.000 NA
ATOM      4  C   UNL     1       2.830   7.990  17.832  0.00  0.00    +0.000 A 
ATOM      5  N   UNL     1       2.314   9.167  17.538  0.00  0.00    +0.000 NA
ATOM      6  C   UNL     1       1.529   9.452  18.619  0.00  0.00    +0.000 A 
ATOM      7  N   UNL     1       1.521   8.529  19.583  0.00  0.00    +0.000 NA
ATOM      8  N   UNL     1       2.325   7.578  19.062  0.00  0.00    +0.000 N 
ATOM      9  C   UNL     1       2.639   6.336  19.621  0.00  0.00    +0.000 A 
ENDROOT
BRANCH   1  10
ATOM     10  C   UNL     1       3.808   4.168  19.488  0.00  0.00    +0.000 C 
ATOM     11  O   UNL     1       4.944   3.748  19.635  0.00  0.00    +0.000 OA
BRANCH  10  12
ATOM     12  O   UNL     1       2.675   3.459  19.734  0.00  0.00    +0.000 OA
BRANCH  12  14
ATOM     13  C   UNL     1       2.829   2.084  17.784  0.00  0.00    +0.000 C 
ATOM     14  C   UNL     1       1.952   3.053  18.558  0.00  0.00    +0.000 C 
ENDBRANCH  12  14
ENDBRANCH  10  12
ENDBRANCH   1  10
BRANCH   9  15
ATOM     15  O   UNL     1       2.096   6.034  20.861  0.00  0.00    +0.000 OA
ATOM     16  H   UNL     1       2.761   6.285  21.538  0.00  0.00    +0.000 HD
ENDBRANCH   9  15
BRANCH   6  17
ATOM     17  S   UNL     1       0.620  10.924  18.825  0.00  0.00    +0.000 S 
BRANCH  17  18
ATOM     18  C   UNL     1      -1.015  10.270  19.255  0.00  0.00    +0.000 C 
BRANCH  18  19
ATOM     19  C   UNL     1      -2.024  10.495  18.143  0.00  0.00    +0.000 A 
ATOM     20  C   UNL     1      -1.866   9.800  16.930  0.00  0.00    +0.000 A 
ATOM     21  C   UNL     1      -2.769   9.967  15.877  0.00  0.00    +0.000 A 
ATOM     22  C   UNL     1      -3.847  10.837  16.017  0.00  0.00    +0.000 A 
ATOM     23  C   UNL     1      -4.015  11.546  17.207  0.00  0.00    +0.000 A 
ATOM     24  C   UNL     1      -3.107  11.382  18.262  0.00  0.00    +0.000 A 
ATOM     25 CL   UNL     1      -3.385  12.309  19.694  0.00  0.00    +0.000 Cl
ENDBRANCH  18  19
ENDBRANCH  17  18
ENDBRANCH   6  17
TORSDOF 7
ENDMDL
MODEL 2
REMARK VINA RESULT:      -7.2      3.506      7.301
REMARK  Name = 
REMARK  8 active torsions:
REMARK  status: ('A' for Active; 'I' for Inactive)
REMARK    1  A    between atoms: C_1  and  C_2
REMARK    2  A    between atoms: C_2  and  O_3
REMARK    3  A    between atoms: O_3  and  C_4
REMARK    4  A    between atoms: C_4  and  C_6
REMARK    5  A    between atoms: C_11  and  S_12
REMARK    6  A    between atoms: S_12  and  C_13
REMARK    7  A    between atoms: C_13  and  C_14
REMARK    8  A    between atoms: C_23  and  O_24
REMARK                            x       y       z     vdW  Elec       q    Type
REMARK                         _______ _______ _______ _____ _____    ______ ____
ROOT
ATOM      1  C   UNL     1       1.154   9.137  19.521  0.00  0.00    +0.000 A 
ATOM      2  C   UNL     1       1.442   9.378  18.073  0.00  0.00    +0.000 A 
ATOM      3  N   UNL     1       2.280   8.723  17.319  0.00  0.00    +0.000 NA
ATOM      4  C   UNL     1       2.955   7.700  17.924  0.00  0.00    +0.000 A 
ATOM      5  N   UNL     1       3.888   6.896  17.456  0.00  0.00    +0.000 NA
ATOM      6  C   UNL     1       4.157   6.069  18.510  0.00  0.00    +0.000 A 
ATOM      7  N   UNL     1       3.447   6.299  19.616  0.00  0.00    +0.000 NA
ATOM      8  N   UNL     1       2.704   7.365  19.251  0.00  0.00    +0.000 N 
ATOM      9  C   UNL     1       1.803   8.079  20.046  0.00  0.00    +0.000 A 
ENDROOT
BRANCH   1  10
ATOM     10  C   UNL     1       0.199   9.935  20.315  0.00  0.00    +0.000 C 
ATOM     11  O   UNL     1       0.327  10.220  21.494  0.00  0.00    +0.000 OA
BRANCH  10  12
ATOM     12  O   UNL     1      -0.877  10.251  19.547  0.00  0.00    +0.000 OA
BRANCH  12  14
ATOM     13  C   UNL     1      -0.463  12.498  18.845  0.00  0.00    +0.000 C 
ATOM     14  C   UNL     1      -1.347  11.602  19.696  0.00  0.00    +0.000 C 
ENDBRANCH  12  14
ENDBRANCH  10  12
ENDBRANCH   1  10
BRANCH   9  15
ATOM     15  O   UNL     1       1.614   7.648  21.350  0.00  0.00    +0.000 OA
ATOM     16  H   UNL     1       2.457   7.240  21.646  0.00  0.00    +0.000 HD
ENDBRANCH   9  15
BRANCH   6  17
ATOM     17  S   UNL     1       5.292   4.747  18.471  0.00  0.00    +0.000 S 
BRANCH  17  18
ATOM     18  C   UNL     1       4.190   3.348  18.139  0.00  0.00    +0.000 C 
BRANCH  18  19
ATOM     19  C   UNL     1       3.132   3.192  19.217  0.00  0.00    +0.000 A 
ATOM     20  C   UNL     1       3.500   2.634  20.455  0.00  0.00    +0.000 A 
ATOM     21  C   UNL     1       2.567   2.474  21.483  0.00  0.00    +0.000 A 
ATOM     22  C   UNL     1       1.245   2.865  21.289  0.00  0.00    +0.000 A 
ATOM     23  C   UNL     1       0.856   3.408  20.064  0.00  0.00    +0.000 A 
ATOM     24  C   UNL     1       1.791   3.566  19.031  0.00  0.00    +0.000 A 
ATOM     25 CL   UNL     1       1.219   4.235  17.544  0.00  0.00    +0.000 Cl
ENDBRANCH  18  19
ENDBRANCH  17  18
ENDBRANCH   6  17
TORSDOF 7
ENDMDL
MODEL 3
REMARK VINA RESULT:      -7.1      3.794      7.318
REMARK  Name = 
REMARK  8 active torsions:
REMARK  status: ('A' for Active; 'I' for Inactive)
REMARK    1  A    between atoms: C_1  and  C_2
REMARK    2  A    between atoms: C_2  and  O_3
REMARK    3  A    between atoms: O_3  and  C_4
REMARK    4  A    between atoms: C_4  and  C_6
REMARK    5  A    between atoms: C_11  and  S_12
REMARK    6  A    between atoms: S_12  and  C_13
REMARK    7  A    between atoms: C_13  and  C_14
REMARK    8  A    between atoms: C_23  and  O_24
REMARK                            x       y       z     vdW  Elec       q    Type
REMARK                         _______ _______ _______ _____ _____    ______ ____
ROOT
ATOM      1  C   UNL     1       1.135   9.151  19.365  0.00  0.00    +0.000 A 
ATOM      2  C   UNL     1       1.555   9.430  17.957  0.00  0.00    +0.000 A 
ATOM      3  N   UNL     1       2.453   8.789  17.263  0.00  0.00    +0.000 NA
ATOM      4  C   UNL     1       3.065   7.745  17.898  0.00  0.00    +0.000 A 
ATOM      5  N   UNL     1       4.032   6.946  17.494  0.00  0.00    +0.000 NA
ATOM      6  C   UNL     1       4.200   6.088  18.544  0.00  0.00    +0.000 A 
ATOM      7  N   UNL     1       3.393   6.293  19.587  0.00  0.00    +0.000 NA
ATOM      8  N   UNL     1       2.693   7.375  19.187  0.00  0.00    +0.000 N 
ATOM      9  C   UNL     1       1.727   8.074  19.916  0.00  0.00    +0.000 A 
ENDROOT
BRANCH   1  10
ATOM     10  C   UNL     1       0.116   9.935  20.092  0.00  0.00    +0.000 C 
ATOM     11  O   UNL     1      -1.012  10.170  19.693  0.00  0.00    +0.000 OA
BRANCH  10  12
ATOM     12  O   UNL     1       0.650  10.409  21.249  0.00  0.00    +0.000 OA
BRANCH  12  14
ATOM     13  C   UNL     1      -0.834  11.590  22.704  0.00  0.00    +0.000 C 
ATOM     14  C   UNL     1      -0.187  10.248  22.408  0.00  0.00    +0.000 C 
ENDBRANCH  12  14
ENDBRANCH  10  12
ENDBRANCH   1  10
BRANCH   9  15
ATOM     15  O   UNL     1       1.418   7.609  21.186  0.00  0.00    +0.000 OA
ATOM     16  H   UNL     1       1.587   6.641  21.189  0.00  0.00    +0.000 HD
ENDBRANCH   9  15
BRANCH   6  17
ATOM     17  S   UNL     1       5.326   4.759  18.570  0.00  0.00    +0.000 S 
BRANCH  17  18
ATOM     18  C   UNL     1       4.231   3.364  18.198  0.00  0.00    +0.000 C 
BRANCH  18  19
ATOM     19  C   UNL     1       3.162   3.184  19.260  0.00  0.00    +0.000 A 
ATOM     20  C   UNL     1       3.527   2.645  20.508  0.00  0.00    +0.000 A 
ATOM     21  C   UNL     1       2.582   2.464  21.522  0.00  0.00    +0.000 A 
ATOM     22  C   UNL     1       1.253   2.815  21.305  0.00  0.00    +0.000 A 
ATOM     23  C   UNL     1       0.868   3.338  20.071  0.00  0.00    +0.000 A 
ATOM     24  C   UNL     1       1.813   3.517  19.051  0.00  0.00    +0.000 A 
ATOM     25 CL   UNL     1       1.246   4.160  17.551  0.00  0.00    +0.000 Cl
ENDBRANCH  18  19
ENDBRANCH  17  18
ENDBRANCH   6  17
TORSDOF 7
ENDMDL
MODEL 4
REMARK VINA RESULT:      -7.1      4.203      7.936
REMARK  Name = 
REMARK  8 active torsions:
REMARK  status: ('A' for Active; 'I' for Inactive)
REMARK    1  A    between atoms: C_1  and  C_2
REMARK    2  A    between atoms: C_2  and  O_3
REMARK    3  A    between atoms: O_3  and  C_4
REMARK    4  A    between atoms: C_4  and  C_6
REMARK    5  A    between atoms: C_11  and  S_12
REMARK    6  A    between atoms: S_12  and  C_13
REMARK    7  A    between atoms: C_13  and  C_14
REMARK    8  A    between atoms: C_23  and  O_24
REMARK                            x       y       z     vdW  Elec       q    Type
REMARK                         _______ _______ _______ _____ _____    ______ ____
ROOT
ATOM      1  C   UNL     1       1.157   9.634  20.133  0.00  0.00    +0.000 A 
ATOM      2  C   UNL     1       1.269   9.719  18.643  0.00  0.00    +0.000 A 
ATOM      3  N   UNL     1       1.729   8.805  17.836  0.00  0.00    +0.000 NA
ATOM      4  C   UNL     1       2.143   7.642  18.424  0.00  0.00    +0.000 A 
ATOM      5  N   UNL     1       2.692   6.566  17.898  0.00  0.00    +0.000 NA
ATOM      6  C   UNL     1       2.859   5.735  18.969  0.00  0.00    +0.000 A 
ATOM      7  N   UNL     1       2.443   6.218  20.142  0.00  0.00    +0.000 NA
ATOM      8  N   UNL     1       2.018   7.452  19.797  0.00  0.00    +0.000 N 
ATOM      9  C   UNL     1       1.523   8.444  20.648  0.00  0.00    +0.000 A 
ENDROOT
BRANCH   1  10
ATOM     10  C   UNL     1       0.638  10.723  20.985  0.00  0.00    +0.000 C 
ATOM     11  O   UNL     1       1.226  11.759  21.243  0.00  0.00    +0.000 OA
BRANCH  10  12
ATOM     12  O   UNL     1      -0.573  10.364  21.489  0.00  0.00    +0.000 OA
BRANCH  12  14
ATOM     13  C   UNL     1      -1.821  11.785  22.951  0.00  0.00    +0.000 C 
ATOM     14  C   UNL     1      -0.768  10.694  22.876  0.00  0.00    +0.000 C 
ENDBRANCH  12  14
ENDBRANCH  10  12
ENDBRANCH   1  10
BRANCH   9  15
ATOM     15  O   UNL     1       1.423   8.142  21.998  0.00  0.00    +0.000 OA
ATOM     16  H   UNL     1       0.470   8.011  22.196  0.00  0.00    +0.000 HD
ENDBRANCH   9  15
BRANCH   6  17
ATOM     17  S   UNL     1       3.507   4.120  18.881  0.00  0.00    +0.000 S 
BRANCH  17  18
ATOM     18  C   UNL     1       4.635   4.270  17.471  0.00  0.00    +0.000 C 
BRANCH  18  19
ATOM     19  C   UNL     1       5.789   5.211  17.768  0.00  0.00    +0.000 A 
ATOM     20  C   UNL     1       6.558   5.000  18.926  0.00  0.00    +0.000 A 
ATOM     21  C   UNL     1       7.634   5.834  19.243  0.00  0.00    +0.000 A 
ATOM     22  C   UNL     1       7.957   6.899  18.408  0.00  0.00    +0.000 A 
ATOM     23  C   UNL     1       7.199   7.135  17.261  0.00  0.00    +0.000 A 
ATOM     24  C   UNL     1       6.117   6.301  16.944  0.00  0.00    +0.000 A 
ATOM     25 CL   UNL     1       5.226   6.674  15.511  0.00  0.00    +0.000 Cl
ENDBRANCH  18  19
ENDBRANCH  17  18
ENDBRANCH   6  17
TORSDOF 7
ENDMDL
MODEL 5
REMARK VINA RESULT:      -7.1      1.050      1.099
REMARK  Name = 
REMARK  8 active torsions:
REMARK  status: ('A' for Active; 'I' for Inactive)
REMARK    1  A    between atoms: C_1  and  C_2
REMARK    2  A    between atoms: C_2  and  O_3
REMARK    3  A    between atoms: O_3  and  C_4
REMARK    4  A    between atoms: C_4  and  C_6
REMARK    5  A    between atoms: C_11  and  S_12
REMARK    6  A    between atoms: S_12  and  C_13
REMARK    7  A    between atoms: C_13  and  C_14
REMARK    8  A    between atoms: C_23  and  O_24
REMARK                            x       y       z     vdW  Elec       q    Type
REMARK                         _______ _______ _______ _____ _____    ______ ____
ROOT
ATOM      1  C   UNL     1       3.722   5.503  18.760  0.00  0.00    +0.000 A 
ATOM      2  C   UNL     1       3.919   6.454  17.622  0.00  0.00    +0.000 A 
ATOM      3  N   UNL     1       3.360   7.621  17.468  0.00  0.00    +0.000 NA
ATOM      4  C   UNL     1       2.511   8.014  18.466  0.00  0.00    +0.000 A 
ATOM      5  N   UNL     1       1.768   9.096  18.580  0.00  0.00    +0.000 NA
ATOM      6  C   UNL     1       1.163   8.942  19.795  0.00  0.00    +0.000 A 
ATOM      7  N   UNL     1       1.482   7.830  20.460  0.00  0.00    +0.000 NA
ATOM      8  N   UNL     1       2.318   7.220  19.592  0.00  0.00    +0.000 N 
ATOM      9  C   UNL     1       2.925   5.970  19.740  0.00  0.00    +0.000 A 
ENDROOT
BRANCH   1  10
ATOM     10  C   UNL     1       4.382   4.185  18.857  0.00  0.00    +0.000 C 
ATOM     11  O   UNL     1       5.519   3.992  19.252  0.00  0.00    +0.000 OA
BRANCH  10  12
ATOM     12  O   UNL     1       3.547   3.225  18.378  0.00  0.00    +0.000 OA
BRANCH  12  14
ATOM     13  C   UNL     1       1.658   2.073  19.283  0.00  0.00    +0.000 C 
ATOM     14  C   UNL     1       3.169   2.223  19.338  0.00  0.00    +0.000 C 
ENDBRANCH  12  14
ENDBRANCH  10  12
ENDBRANCH   1  10
BRANCH   9  15
ATOM     15  O   UNL     1       2.678   5.270  20.912  0.00  0.00    +0.000 OA
ATOM     16  H   UNL     1       3.339   4.545  20.962  0.00  0.00    +0.000 HD
ENDBRANCH   9  15
BRANCH   6  17
ATOM     17  S   UNL     1       0.083  10.102  20.520  0.00  0.00    +0.000 S 
BRANCH  17  18
ATOM     18  C   UNL     1      -0.172  11.253  19.144  0.00  0.00    +0.000 C 
BRANCH  18  19
ATOM     19  C   UNL     1      -1.517  11.043  18.472  0.00  0.00    +0.000 A 
ATOM     20  C   UNL     1      -1.615  10.110  17.423  0.00  0.00    +0.000 A 
ATOM     21  C   UNL     1      -2.830   9.875  16.774  0.00  0.00    +0.000 A 
ATOM     22  C   UNL     1      -3.971  10.573  17.160  0.00  0.00    +0.000 A 
ATOM     23  C   UNL     1      -3.892  11.512  18.189  0.00  0.00    +0.000 A 
ATOM     24  C   UNL     1      -2.673  11.752  18.838  0.00  0.00    +0.000 A 
ATOM     25 CL   UNL     1      -2.666  12.941  20.092  0.00  0.00    +0.000 Cl
ENDBRANCH  18  19
ENDBRANCH  17  18
ENDBRANCH   6  17
TORSDOF 7
ENDMDL
MODEL 6
REMARK VINA RESULT:      -7.0      3.223      4.071
REMARK  Name = 
REMARK  8 active torsions:
REMARK  status: ('A' for Active; 'I' for Inactive)
REMARK    1  A    between atoms: C_1  and  C_2
REMARK    2  A    between atoms: C_2  and  O_3
REMARK    3  A    between atoms: O_3  and  C_4
REMARK    4  A    between atoms: C_4  and  C_6
REMARK    5  A    between atoms: C_11  and  S_12
REMARK    6  A    between atoms: S_12  and  C_13
REMARK    7  A    between atoms: C_13  and  C_14
REMARK    8  A    between atoms: C_23  and  O_24
REMARK                            x       y       z     vdW  Elec       q    Type
REMARK                         _______ _______ _______ _____ _____    ______ ____
ROOT
ATOM      1  C   UNL     1       5.793   5.087  16.238  0.00  0.00    +0.000 A 
ATOM      2  C   UNL     1       5.546   4.131  17.363  0.00  0.00    +0.000 A 
ATOM      3  N   UNL     1       4.748   4.303  18.379  0.00  0.00    +0.000 NA
ATOM      4  C   UNL     1       4.060   5.484  18.405  0.00  0.00    +0.000 A 
ATOM      5  N   UNL     1       3.229   5.970  19.305  0.00  0.00    +0.000 NA
ATOM      6  C   UNL     1       2.842   7.167  18.771  0.00  0.00    +0.000 A 
ATOM      7  N   UNL     1       3.375   7.465  17.584  0.00  0.00    +0.000 NA
ATOM      8  N   UNL     1       4.181   6.405  17.368  0.00  0.00    +0.000 N 
ATOM      9  C   UNL     1       5.042   6.204  16.286  0.00  0.00    +0.000 A 
ENDROOT
BRANCH   1  10
ATOM     10  C   UNL     1       6.728   4.826  15.125  0.00  0.00    +0.000 C 
ATOM     11  O   UNL     1       7.678   5.529  14.822  0.00  0.00    +0.000 OA
BRANCH  10  12
ATOM     12  O   UNL     1       6.331   3.715  14.450  0.00  0.00    +0.000 OA
BRANCH  12  14
ATOM     13  C   UNL     1       5.932   3.157  12.160  0.00  0.00    +0.000 C 
ATOM     14  C   UNL     1       5.442   3.967  13.348  0.00  0.00    +0.000 C 
ENDBRANCH  12  14
ENDBRANCH  10  12
ENDBRANCH   1  10
BRANCH   9  15
ATOM     15  O   UNL     1       5.071   7.177  15.298  0.00  0.00    +0.000 OA
ATOM     16  H   UNL     1       5.916   7.070  14.810  0.00  0.00    +0.000 HD
ENDBRANCH   9  15
BRANCH   6  17
ATOM     17  S   UNL     1       1.693   8.254  19.501  0.00  0.00    +0.000 S 
BRANCH  17  18
ATOM     18  C   UNL     1       1.420   9.434  18.153  0.00  0.00    +0.000 C 
BRANCH  18  19
ATOM     19  C   UNL     1       0.102  10.171  18.304  0.00  0.00    +0.000 A 
ATOM     20  C   UNL     1      -1.012   9.731  17.565  0.00  0.00    +0.000 A 
ATOM     21  C   UNL     1      -2.250  10.370  17.671  0.00  0.00    +0.000 A 
ATOM     22  C   UNL     1      -2.396  11.466  18.516  0.00  0.00    +0.000 A 
ATOM     23  C   UNL     1      -1.301  11.927  19.248  0.00  0.00    +0.000 A 
ATOM     24  C   UNL     1      -0.058  11.289  19.140  0.00  0.00    +0.000 A 
ATOM     25 CL   UNL     1       1.246  11.935  20.072  0.00  0.00    +0.000 Cl
ENDBRANCH  18  19
ENDBRANCH  17  18
ENDBRANCH   6  17
TORSDOF 7
ENDMDL
MODEL 7
REMARK VINA RESULT:      -7.0      3.945      7.789
REMARK  Name = 
REMARK  8 active torsions:
REMARK  status: ('A' for Active; 'I' for Inactive)
REMARK    1  A    between atoms: C_1  and  C_2
REMARK    2  A    between atoms: C_2  and  O_3
REMARK    3  A    between atoms: O_3  and  C_4
REMARK    4  A    between atoms: C_4  and  C_6
REMARK    5  A    between atoms: C_11  and  S_12
REMARK    6  A    between atoms: S_12  and  C_13
REMARK    7  A    between atoms: C_13  and  C_14
REMARK    8  A    between atoms: C_23  and  O_24
REMARK                            x       y       z     vdW  Elec       q    Type
REMARK                         _______ _______ _______ _____ _____    ______ ____
ROOT
ATOM      1  C   UNL     1      -0.272  10.563  21.152  0.00  0.00    +0.000 A 
ATOM      2  C   UNL     1      -0.622  11.041  19.779  0.00  0.00    +0.000 A 
ATOM      3  N   UNL     1      -0.125  10.619  18.650  0.00  0.00    +0.000 NA
ATOM      4  C   UNL     1       0.809   9.625  18.742  0.00  0.00    +0.000 A 
ATOM      5  N   UNL     1       1.521   9.030  17.806  0.00  0.00    +0.000 NA
ATOM      6  C   UNL     1       2.256   8.110  18.499  0.00  0.00    +0.000 A 
ATOM      7  N   UNL     1       2.049   8.083  19.817  0.00  0.00    +0.000 NA
ATOM      8  N   UNL     1       1.149   9.077  19.976  0.00  0.00    +0.000 N 
ATOM      9  C   UNL     1       0.607   9.543  21.176  0.00  0.00    +0.000 A 
ENDROOT
BRANCH   1  10
ATOM     10  C   UNL     1      -0.869  11.103  22.390  0.00  0.00    +0.000 C 
ATOM     11  O   UNL     1      -0.748  10.618  23.503  0.00  0.00    +0.000 OA
BRANCH  10  12
ATOM     12  O   UNL     1      -1.628  12.191  22.090  0.00  0.00    +0.000 OA
BRANCH  12  14
ATOM     13  C   UNL     1      -3.879  12.964  21.868  0.00  0.00    +0.000 C 
ATOM     14  C   UNL     1      -2.892  12.250  22.775  0.00  0.00    +0.000 C 
ENDBRANCH  12  14
ENDBRANCH  10  12
ENDBRANCH   1  10
BRANCH   9  15
ATOM     15  O   UNL     1       1.001   8.912  22.347  0.00  0.00    +0.000 OA
ATOM     16  H   UNL     1       1.299   8.008  22.104  0.00  0.00    +0.000 HD
ENDBRANCH   9  15
BRANCH   6  17
ATOM     17  S   UNL     1       3.363   6.976  17.775  0.00  0.00    +0.000 S 
BRANCH  17  18
ATOM     18  C   UNL     1       3.626   5.819  19.144  0.00  0.00    +0.000 C 
BRANCH  18  19
ATOM     19  C   UNL     1       2.740   4.592  19.026  0.00  0.00    +0.000 A 
ATOM     20  C   UNL     1       1.671   4.435  19.927  0.00  0.00    +0.000 A 
ATOM     21  C   UNL     1       0.822   3.327  19.859  0.00  0.00    +0.000 A 
ATOM     22  C   UNL     1       1.030   2.351  18.888  0.00  0.00    +0.000 A 
ATOM     23  C   UNL     1       2.092   2.480  17.993  0.00  0.00    +0.000 A 
ATOM     24  C   UNL     1       2.947   3.589  18.063  0.00  0.00    +0.000 A 
ATOM     25 CL   UNL     1       4.243   3.662  16.923  0.00  0.00    +0.000 Cl
ENDBRANCH  18  19
ENDBRANCH  17  18
ENDBRANCH   6  17
TORSDOF 7
ENDMDL
MODEL 8
REMARK VINA RESULT:      -7.0      4.388      8.020
REMARK  Name = 
REMARK  8 active torsions:
REMARK  status: ('A' for Active; 'I' for Inactive)
REMARK    1  A    between atoms: C_1  and  C_2
REMARK    2  A    between atoms: C_2  and  O_3
REMARK    3  A    between atoms: O_3  and  C_4
REMARK    4  A    between atoms: C_4  and  C_6
REMARK    5  A    between atoms: C_11  and  S_12
REMARK    6  A    between atoms: S_12  and  C_13
REMARK    7  A    between atoms: C_13  and  C_14
REMARK    8  A    between atoms: C_23  and  O_24
REMARK                            x       y       z     vdW  Elec       q    Type
REMARK                         _______ _______ _______ _____ _____    ______ ____
ROOT
ATOM      1  C   UNL     1       1.226   9.857  19.688  0.00  0.00    +0.000 A 
ATOM      2  C   UNL     1       1.601   9.856  18.240  0.00  0.00    +0.000 A 
ATOM      3  N   UNL     1       2.127   8.873  17.566  0.00  0.00    +0.000 NA
ATOM      4  C   UNL     1       2.348   7.719  18.265  0.00  0.00    +0.000 A 
ATOM      5  N   UNL     1       2.901   6.584  17.890  0.00  0.00    +0.000 NA
ATOM      6  C   UNL     1       2.819   5.801  19.007  0.00  0.00    +0.000 A 
ATOM      7  N   UNL     1       2.241   6.372  20.066  0.00  0.00    +0.000 NA
ATOM      8  N   UNL     1       1.973   7.610  19.601  0.00  0.00    +0.000 N 
ATOM      9  C   UNL     1       1.410   8.676  20.309  0.00  0.00    +0.000 A 
ENDROOT
BRANCH   1  10
ATOM     10  C   UNL     1       0.646  11.021  20.389  0.00  0.00    +0.000 C 
ATOM     11  O   UNL     1       1.187  12.106  20.522  0.00  0.00    +0.000 OA
BRANCH  10  12
ATOM     12  O   UNL     1      -0.558  10.677  20.918  0.00  0.00    +0.000 OA
BRANCH  12  14
ATOM     13  C   UNL     1      -1.351  11.104  23.132  0.00  0.00    +0.000 C 
ATOM     14  C   UNL     1      -1.163  11.688  21.743  0.00  0.00    +0.000 C 
ENDBRANCH  12  14
ENDBRANCH  10  12
ENDBRANCH   1  10
BRANCH   9  15
ATOM     15  O   UNL     1       1.056   8.453  21.631  0.00  0.00    +0.000 OA
ATOM     16  H   UNL     1       0.846   7.498  21.719  0.00  0.00    +0.000 HD
ENDBRANCH   9  15
BRANCH   6  17
ATOM     17  S   UNL     1       3.354   4.146  19.102  0.00  0.00    +0.000 S 
BRANCH  17  18
ATOM     18  C   UNL     1       5.154   4.357  19.075  0.00  0.00    +0.000 C 
BRANCH  18  19
ATOM     19  C   UNL     1       5.683   4.527  17.663  0.00  0.00    +0.000 A 
ATOM     20  C   UNL     1       5.004   3.899  16.602  0.00  0.00    +0.000 A 
ATOM     21  C   UNL     1       5.446   4.027  15.282  0.00  0.00    +0.000 A 
ATOM     22  C   UNL     1       6.580   4.785  15.000  0.00  0.00    +0.000 A 
ATOM     23  C   UNL     1       7.275   5.405  16.038  0.00  0.00    +0.000 A 
ATOM     24  C   UNL     1       6.835   5.274  17.362  0.00  0.00    +0.000 A 
ATOM     25 CL   UNL     1       7.764   6.065  18.586  0.00  0.00    +0.000 Cl
ENDBRANCH  18  19
ENDBRANCH  17  18
ENDBRANCH   6  17
TORSDOF 7
ENDMDL
MODEL 9
REMARK VINA RESULT:      -6.9      3.336      4.314
REMARK  Name = 
REMARK  8 active torsions:
REMARK  status: ('A' for Active; 'I' for Inactive)
REMARK    1  A    between atoms: C_1  and  C_2
REMARK    2  A    between atoms: C_2  and  O_3
REMARK    3  A    between atoms: O_3  and  C_4
REMARK    4  A    between atoms: C_4  and  C_6
REMARK    5  A    between atoms: C_11  and  S_12
REMARK    6  A    between atoms: S_12  and  C_13
REMARK    7  A    between atoms: C_13  and  C_14
REMARK    8  A    between atoms: C_23  and  O_24
REMARK                            x       y       z     vdW  Elec       q    Type
REMARK                         _______ _______ _______ _____ _____    ______ ____
ROOT
ATOM      1  C   UNL     1       5.438   4.616  16.362  0.00  0.00    +0.000 A 
ATOM      2  C   UNL     1       4.466   3.616  16.904  0.00  0.00    +0.000 A 
ATOM      3  N   UNL     1       3.441   3.855  17.673  0.00  0.00    +0.000 NA
ATOM      4  C   UNL     1       3.235   5.165  18.006  0.00  0.00    +0.000 A 
ATOM      5  N   UNL     1       2.332   5.716  18.791  0.00  0.00    +0.000 NA
ATOM      6  C   UNL     1       2.610   7.052  18.711  0.00  0.00    +0.000 A 
ATOM      7  N   UNL     1       3.633   7.379  17.918  0.00  0.00    +0.000 NA
ATOM      8  N   UNL     1       4.054   6.168  17.496  0.00  0.00    +0.000 N 
ATOM      9  C   UNL     1       5.150   5.894  16.673  0.00  0.00    +0.000 A 
ENDROOT
BRANCH   1  10
ATOM     10  C   UNL     1       6.590   4.265  15.506  0.00  0.00    +0.000 C 
ATOM     11  O   UNL     1       7.731   4.666  15.660  0.00  0.00    +0.000 OA
BRANCH  10  12
ATOM     12  O   UNL     1       6.170   3.476  14.482  0.00  0.00    +0.000 OA
BRANCH  12  14
ATOM     13  C   UNL     1       5.584   3.246  12.176  0.00  0.00    +0.000 C 
ATOM     14  C   UNL     1       6.459   3.989  13.170  0.00  0.00    +0.000 C 
ENDBRANCH  12  14
ENDBRANCH  10  12
ENDBRANCH   1  10
BRANCH   9  15
ATOM     15  O   UNL     1       5.887   6.971  16.204  0.00  0.00    +0.000 OA
ATOM     16  H   UNL     1       6.634   6.606  15.682  0.00  0.00    +0.000 HD
ENDBRANCH   9  15
BRANCH   6  17
ATOM     17  S   UNL     1       1.703   8.304  19.513  0.00  0.00    +0.000 S 
BRANCH  17  18
ATOM     18  C   UNL     1       1.605   9.557  18.207  0.00  0.00    +0.000 C 
BRANCH  18  19
ATOM     19  C   UNL     1       0.635  10.670  18.562  0.00  0.00    +0.000 A 
ATOM     20  C   UNL     1      -0.694  10.336  18.884  0.00  0.00    +0.000 A 
ATOM     21  C   UNL     1      -1.626  11.321  19.222  0.00  0.00    +0.000 A 
ATOM     22  C   UNL     1      -1.246  12.660  19.242  0.00  0.00    +0.000 A 
ATOM     23  C   UNL     1       0.063  13.014  18.913  0.00  0.00    +0.000 A 
ATOM     24  C   UNL     1       0.997  12.027  18.569  0.00  0.00    +0.000 A 
ATOM     25 CL   UNL     1       2.592  12.556  18.164  0.00  0.00    +0.000 Cl
ENDBRANCH  18  19
ENDBRANCH  17  18
ENDBRANCH   6  17
TORSDOF 7
ENDMDL
