MODEL 1
REMARK VINA RESULT:      -8.4      0.000      0.000
REMARK  Name = 
REMARK  4 active torsions:
REMARK  status: ('A' for Active; 'I' for Inactive)
REMARK    1  A    between atoms: C_1  and  C_2
REMARK    2  A    between atoms: C_2  and  C_3
REMARK    3  A    between atoms: C_2  and  C_18
REMARK    4  A    between atoms: N_5  and  N_6
REMARK                            x       y       z     vdW  Elec       q    Type
REMARK                         _______ _______ _______ _____ _____    ______ ____
ROOT
ATOM      1  C   UNL     1       1.989   9.407  18.222  0.00  0.00    +0.000 C 
ATOM      2  O   UNL     1       2.257  10.271  17.389  0.00  0.00    +0.000 OA
ATOM      3  N   UNL     1       2.556   8.139  18.267  0.00  0.00    +0.000 N 
ATOM      4  H   UNL     1       2.036   7.388  18.700  0.00  0.00    +0.000 HD
ENDROOT
BRANCH   3   5
ATOM      5  N   UNL     1       3.570   7.813  17.420  0.00  0.00    +0.000 NA
ATOM      6  C   UNL     1       3.881   6.563  17.273  0.00  0.00    +0.000 C 
ATOM      7  C   UNL     1       5.088   6.135  16.408  0.00  0.00    +0.000 C 
ATOM      8  O   UNL     1       5.730   6.835  15.659  0.00  0.00    +0.000 OA
ATOM      9  N   UNL     1       5.273   4.797  16.677  0.00  0.00    +0.000 N 
ATOM     10  C   UNL     1       4.299   4.322  17.546  0.00  0.00    +0.000 A 
ATOM     11  C   UNL     1       4.192   3.031  18.026  0.00  0.00    +0.000 A 
ATOM     12  C   UNL     1       3.127   2.746  18.884  0.00  0.00    +0.000 A 
ATOM     13  C   UNL     1       2.201   3.747  19.224  0.00  0.00    +0.000 A 
ATOM     14 BR   UNL     1       0.761   3.332  20.381  0.00  0.00    +0.000 Br
ATOM     15  C   UNL     1       2.323   5.050  18.735  0.00  0.00    +0.000 A 
ATOM     16  C   UNL     1       3.395   5.325  17.906  0.00  0.00    +0.000 A 
ATOM     17  H   UNL     1       6.027   4.260  16.270  0.00  0.00    +0.000 HD
ENDBRANCH   3   5
BRANCH   1  19
ATOM     18  C   UNL     1       0.995   8.500  20.344  0.00  0.00    +0.000 C 
ATOM     19  C   UNL     1       1.082   9.720  19.417  0.00  0.00    +0.000 C 
BRANCH  19  20
ATOM     20  C   UNL     1      -0.268  10.296  19.020  0.00  0.00    +0.000 A 
ATOM     21  C   UNL     1      -0.838  11.311  19.829  0.00  0.00    +0.000 A 
ATOM     22  C   UNL     1      -2.091  11.860  19.535  0.00  0.00    +0.000 A 
ATOM     23  C   UNL     1      -2.750  11.392  18.423  0.00  0.00    +0.000 A 
ATOM     24  C   UNL     1      -2.208  10.417  17.623  0.00  0.00    +0.000 A 
ATOM     25  C   UNL     1      -0.981   9.848  17.894  0.00  0.00    +0.000 A 
ATOM     26  O   UNL     1      -3.012  10.091  16.577  0.00  0.00    +0.000 OA
ATOM     27  C   UNL     1      -4.131  10.971  16.815  0.00  0.00    +0.000 C 
ATOM     28  O   UNL     1      -3.970  11.802  17.983  0.00  0.00    +0.000 OA
ENDBRANCH  19  20
ENDBRANCH   1  19
TORSDOF 3
ENDMDL
MODEL 2
REMARK VINA RESULT:      -8.2      3.590      8.459
REMARK  Name = 
REMARK  4 active torsions:
REMARK  status: ('A' for Active; 'I' for Inactive)
REMARK    1  A    between atoms: C_1  and  C_2
REMARK    2  A    between atoms: C_2  and  C_3
REMARK    3  A    between atoms: C_2  and  C_18
REMARK    4  A    between atoms: N_5  and  N_6
REMARK                            x       y       z     vdW  Elec       q    Type
REMARK                         _______ _______ _______ _____ _____    ______ ____
ROOT
ATOM      1  C   UNL     1       1.734   6.262  19.909  0.00  0.00    +0.000 C 
ATOM      2  O   UNL     1       1.541   5.440  20.803  0.00  0.00    +0.000 OA
ATOM      3  N   UNL     1       1.664   7.641  20.066  0.00  0.00    +0.000 N 
ATOM      4  H   UNL     1       1.450   8.213  19.261  0.00  0.00    +0.000 HD
ENDROOT
BRANCH   3   5
ATOM      5  N   UNL     1       1.485   8.180  21.303  0.00  0.00    +0.000 NA
ATOM      6  C   UNL     1       0.590   9.106  21.454  0.00  0.00    +0.000 C 
ATOM      7  C   UNL     1       0.409   9.831  22.807  0.00  0.00    +0.000 C 
ATOM      8  O   UNL     1       0.902   9.523  23.869  0.00  0.00    +0.000 OA
ATOM      9  N   UNL     1      -0.423  10.895  22.542  0.00  0.00    +0.000 N 
ATOM     10  C   UNL     1      -0.836  10.889  21.217  0.00  0.00    +0.000 A 
ATOM     11  C   UNL     1      -1.670  11.813  20.616  0.00  0.00    +0.000 A 
ATOM     12  C   UNL     1      -1.981  11.624  19.267  0.00  0.00    +0.000 A 
ATOM     13  C   UNL     1      -1.467  10.520  18.568  0.00  0.00    +0.000 A 
ATOM     14 BR   UNL     1      -1.912  10.280  16.744  0.00  0.00    +0.000 Br
ATOM     15  C   UNL     1      -0.623   9.594  19.186  0.00  0.00    +0.000 A 
ATOM     16  C   UNL     1      -0.302   9.805  20.514  0.00  0.00    +0.000 A 
ATOM     17  H   UNL     1      -0.685  11.569  23.250  0.00  0.00    +0.000 HD
ENDBRANCH   3   5
BRANCH   1  19
ATOM     18  C   UNL     1       1.682   4.430  18.191  0.00  0.00    +0.000 C 
ATOM     19  C   UNL     1       2.233   5.822  18.528  0.00  0.00    +0.000 C 
BRANCH  19  20
ATOM     20  C   UNL     1       3.738   5.954  18.356  0.00  0.00    +0.000 A 
ATOM     21  C   UNL     1       4.235   6.602  17.197  0.00  0.00    +0.000 A 
ATOM     22  C   UNL     1       5.609   6.728  16.965  0.00  0.00    +0.000 A 
ATOM     23  C   UNL     1       6.467   6.213  17.908  0.00  0.00    +0.000 A 
ATOM     24  C   UNL     1       6.003   5.591  19.040  0.00  0.00    +0.000 A 
ATOM     25  C   UNL     1       4.654   5.441  19.290  0.00  0.00    +0.000 A 
ATOM     26  O   UNL     1       7.006   5.152  19.844  0.00  0.00    +0.000 OA
ATOM     27  C   UNL     1       8.161   5.562  19.082  0.00  0.00    +0.000 C 
ATOM     28  O   UNL     1       7.826   6.239  17.853  0.00  0.00    +0.000 OA
ENDBRANCH  19  20
ENDBRANCH   1  19
TORSDOF 3
ENDMDL
MODEL 3
REMARK VINA RESULT:      -8.1      3.510      8.491
REMARK  Name = 
REMARK  4 active torsions:
REMARK  status: ('A' for Active; 'I' for Inactive)
REMARK    1  A    between atoms: C_1  and  C_2
REMARK    2  A    between atoms: C_2  and  C_3
REMARK    3  A    between atoms: C_2  and  C_18
REMARK    4  A    between atoms: N_5  and  N_6
REMARK                            x       y       z     vdW  Elec       q    Type
REMARK                         _______ _______ _______ _____ _____    ______ ____
ROOT
ATOM      1  C   UNL     1       1.750   8.069  20.004  0.00  0.00    +0.000 C 
ATOM      2  O   UNL     1       1.660   7.388  21.025  0.00  0.00    +0.000 OA
ATOM      3  N   UNL     1       1.296   9.376  19.875  0.00  0.00    +0.000 N 
ATOM      4  H   UNL     1       1.052   9.718  18.956  0.00  0.00    +0.000 HD
ENDROOT
BRANCH   3   5
ATOM      5  N   UNL     1       0.810  10.041  20.958  0.00  0.00    +0.000 NA
ATOM      6  C   UNL     1      -0.344  10.625  20.864  0.00  0.00    +0.000 C 
ATOM      7  C   UNL     1      -0.904  11.483  22.021  0.00  0.00    +0.000 C 
ATOM      8  O   UNL     1      -0.467  11.559  23.147  0.00  0.00    +0.000 OA
ATOM      9  N   UNL     1      -1.994  12.138  21.494  0.00  0.00    +0.000 N 
ATOM     10  C   UNL     1      -2.224  11.750  20.181  0.00  0.00    +0.000 A 
ATOM     11  C   UNL     1      -3.231  12.215  19.356  0.00  0.00    +0.000 A 
ATOM     12  C   UNL     1      -3.305  11.687  18.064  0.00  0.00    +0.000 A 
ATOM     13  C   UNL     1      -2.388  10.711  17.643  0.00  0.00    +0.000 A 
ATOM     14 BR   UNL     1      -2.515  10.004  15.891  0.00  0.00    +0.000 Br
ATOM     15  C   UNL     1      -1.372  10.252  18.486  0.00  0.00    +0.000 A 
ATOM     16  C   UNL     1      -1.294  10.798  19.753  0.00  0.00    +0.000 A 
ATOM     17  H   UNL     1      -2.538  12.803  22.028  0.00  0.00    +0.000 HD
ENDBRANCH   3   5
BRANCH   1  19
ATOM     18  C   UNL     1       1.960   8.176  17.503  0.00  0.00    +0.000 C 
ATOM     19  C   UNL     1       2.534   7.564  18.788  0.00  0.00    +0.000 C 
BRANCH  19  20
ATOM     20  C   UNL     1       2.679   6.051  18.745  0.00  0.00    +0.000 A 
ATOM     21  C   UNL     1       1.679   5.291  18.086  0.00  0.00    +0.000 A 
ATOM     22  C   UNL     1       1.738   3.894  18.038  0.00  0.00    +0.000 A 
ATOM     23  C   UNL     1       2.810   3.277  18.639  0.00  0.00    +0.000 A 
ATOM     24  C   UNL     1       3.792   3.998  19.272  0.00  0.00    +0.000 A 
ATOM     25  C   UNL     1       3.755   5.376  19.347  0.00  0.00    +0.000 A 
ATOM     26  O   UNL     1       4.762   3.208  19.801  0.00  0.00    +0.000 OA
ATOM     27  C   UNL     1       4.272   1.900  19.436  0.00  0.00    +0.000 C 
ATOM     28  O   UNL     1       3.035   1.938  18.695  0.00  0.00    +0.000 OA
ENDBRANCH  19  20
ENDBRANCH   1  19
TORSDOF 3
ENDMDL
MODEL 4
REMARK VINA RESULT:      -8.1      0.661      1.367
REMARK  Name = 
REMARK  4 active torsions:
REMARK  status: ('A' for Active; 'I' for Inactive)
REMARK    1  A    between atoms: C_1  and  C_2
REMARK    2  A    between atoms: C_2  and  C_3
REMARK    3  A    between atoms: C_2  and  C_18
REMARK    4  A    between atoms: N_5  and  N_6
REMARK                            x       y       z     vdW  Elec       q    Type
REMARK                         _______ _______ _______ _____ _____    ______ ____
ROOT
ATOM      1  C   UNL     1       1.965   9.574  18.142  0.00  0.00    +0.000 C 
ATOM      2  O   UNL     1       2.384  10.500  17.448  0.00  0.00    +0.000 OA
ATOM      3  N   UNL     1       2.365   8.248  18.027  0.00  0.00    +0.000 N 
ATOM      4  H   UNL     1       1.732   7.521  18.332  0.00  0.00    +0.000 HD
ENDROOT
BRANCH   3   5
ATOM      5  N   UNL     1       3.373   7.909  17.179  0.00  0.00    +0.000 NA
ATOM      6  C   UNL     1       3.797   6.683  17.175  0.00  0.00    +0.000 C 
ATOM      7  C   UNL     1       5.007   6.258  16.313  0.00  0.00    +0.000 C 
ATOM      8  O   UNL     1       5.551   6.910  15.451  0.00  0.00    +0.000 OA
ATOM      9  N   UNL     1       5.329   4.988  16.738  0.00  0.00    +0.000 N 
ATOM     10  C   UNL     1       4.438   4.544  17.705  0.00  0.00    +0.000 A 
ATOM     11  C   UNL     1       4.472   3.321  18.347  0.00  0.00    +0.000 A 
ATOM     12  C   UNL     1       3.472   3.054  19.286  0.00  0.00    +0.000 A 
ATOM     13  C   UNL     1       2.468   4.002  19.543  0.00  0.00    +0.000 A 
ATOM     14 BR   UNL     1       1.118   3.613  20.811  0.00  0.00    +0.000 Br
ATOM     15  C   UNL     1       2.447   5.237  18.889  0.00  0.00    +0.000 A 
ATOM     16  C   UNL     1       3.455   5.499  17.981  0.00  0.00    +0.000 A 
ATOM     17  H   UNL     1       6.116   4.474  16.364  0.00  0.00    +0.000 HD
ENDBRANCH   3   5
BRANCH   1  19
ATOM     18  C   UNL     1       1.098   8.660  20.315  0.00  0.00    +0.000 C 
ATOM     19  C   UNL     1       1.042   9.840  19.336  0.00  0.00    +0.000 C 
BRANCH  19  20
ATOM     20  C   UNL     1      -0.367  10.250  18.936  0.00  0.00    +0.000 A 
ATOM     21  C   UNL     1      -0.915   9.717  17.741  0.00  0.00    +0.000 A 
ATOM     22  C   UNL     1      -2.194  10.078  17.302  0.00  0.00    +0.000 A 
ATOM     23  C   UNL     1      -2.912  10.959  18.077  0.00  0.00    +0.000 A 
ATOM     24  C   UNL     1      -2.400  11.475  19.241  0.00  0.00    +0.000 A 
ATOM     25  C   UNL     1      -1.138  11.148  19.694  0.00  0.00    +0.000 A 
ATOM     26  O   UNL     1      -3.261  12.324  19.861  0.00  0.00    +0.000 OA
ATOM     27  C   UNL     1      -4.376  12.291  18.944  0.00  0.00    +0.000 C 
ATOM     28  O   UNL     1      -4.162  11.423  17.812  0.00  0.00    +0.000 OA
ENDBRANCH  19  20
ENDBRANCH   1  19
TORSDOF 3
ENDMDL
MODEL 5
REMARK VINA RESULT:      -7.9      3.521      8.363
REMARK  Name = 
REMARK  4 active torsions:
REMARK  status: ('A' for Active; 'I' for Inactive)
REMARK    1  A    between atoms: C_1  and  C_2
REMARK    2  A    between atoms: C_2  and  C_3
REMARK    3  A    between atoms: C_2  and  C_18
REMARK    4  A    between atoms: N_5  and  N_6
REMARK                            x       y       z     vdW  Elec       q    Type
REMARK                         _______ _______ _______ _____ _____    ______ ____
ROOT
ATOM      1  C   UNL     1       1.738   8.285  19.949  0.00  0.00    +0.000 C 
ATOM      2  O   UNL     1       1.684   7.578  20.955  0.00  0.00    +0.000 OA
ATOM      3  N   UNL     1       1.236   9.577  19.856  0.00  0.00    +0.000 N 
ATOM      4  H   UNL     1       0.969   9.931  18.947  0.00  0.00    +0.000 HD
ENDROOT
BRANCH   3   5
ATOM      5  N   UNL     1       0.739  10.200  20.959  0.00  0.00    +0.000 NA
ATOM      6  C   UNL     1      -0.432  10.752  20.888  0.00  0.00    +0.000 C 
ATOM      7  C   UNL     1      -1.008  11.563  22.070  0.00  0.00    +0.000 C 
ATOM      8  O   UNL     1      -0.566  11.621  23.195  0.00  0.00    +0.000 OA
ATOM      9  N   UNL     1      -2.120  12.200  21.568  0.00  0.00    +0.000 N 
ATOM     10  C   UNL     1      -2.349  11.840  20.247  0.00  0.00    +0.000 A 
ATOM     11  C   UNL     1      -3.375  12.296  19.441  0.00  0.00    +0.000 A 
ATOM     12  C   UNL     1      -3.443  11.801  18.136  0.00  0.00    +0.000 A 
ATOM     13  C   UNL     1      -2.501  10.863  17.683  0.00  0.00    +0.000 A 
ATOM     14 BR   UNL     1      -2.620  10.199  15.914  0.00  0.00    +0.000 Br
ATOM     15  C   UNL     1      -1.466  10.412  18.507  0.00  0.00    +0.000 A 
ATOM     16  C   UNL     1      -1.395  10.927  19.787  0.00  0.00    +0.000 A 
ATOM     17  H   UNL     1      -2.679  12.835  22.123  0.00  0.00    +0.000 HD
ENDBRANCH   3   5
BRANCH   1  19
ATOM     18  C   UNL     1       1.840   8.350  17.440  0.00  0.00    +0.000 C 
ATOM     19  C   UNL     1       2.526   7.837  18.714  0.00  0.00    +0.000 C 
BRANCH  19  20
ATOM     20  C   UNL     1       2.834   6.347  18.697  0.00  0.00    +0.000 A 
ATOM     21  C   UNL     1       4.045   5.897  19.281  0.00  0.00    +0.000 A 
ATOM     22  C   UNL     1       4.400   4.544  19.271  0.00  0.00    +0.000 A 
ATOM     23  C   UNL     1       3.527   3.657  18.686  0.00  0.00    +0.000 A 
ATOM     24  C   UNL     1       2.346   4.075  18.125  0.00  0.00    +0.000 A 
ATOM     25  C   UNL     1       1.974   5.404  18.109  0.00  0.00    +0.000 A 
ATOM     26  O   UNL     1       1.625   3.050  17.600  0.00  0.00    +0.000 OA
ATOM     27  C   UNL     1       2.495   1.934  17.888  0.00  0.00    +0.000 C 
ATOM     28  O   UNL     1       3.702   2.313  18.580  0.00  0.00    +0.000 OA
ENDBRANCH  19  20
ENDBRANCH   1  19
TORSDOF 3
ENDMDL
MODEL 6
REMARK VINA RESULT:      -7.8      4.785      7.801
REMARK  Name = 
REMARK  4 active torsions:
REMARK  status: ('A' for Active; 'I' for Inactive)
REMARK    1  A    between atoms: C_1  and  C_2
REMARK    2  A    between atoms: C_2  and  C_3
REMARK    3  A    between atoms: C_2  and  C_18
REMARK    4  A    between atoms: N_5  and  N_6
REMARK                            x       y       z     vdW  Elec       q    Type
REMARK                         _______ _______ _______ _____ _____    ______ ____
ROOT
ATOM      1  C   UNL     1       0.477  10.110  18.932  0.00  0.00    +0.000 C 
ATOM      2  O   UNL     1       1.337   9.989  18.060  0.00  0.00    +0.000 OA
ATOM      3  N   UNL     1      -0.887  10.230  18.695  0.00  0.00    +0.000 N 
ATOM      4  H   UNL     1      -1.461  10.699  19.383  0.00  0.00    +0.000 HD
ENDROOT
BRANCH   3   5
ATOM      5  N   UNL     1      -1.376  10.096  17.433  0.00  0.00    +0.000 NA
ATOM      6  C   UNL     1      -2.510  10.653  17.143  0.00  0.00    +0.000 C 
ATOM      7  C   UNL     1      -3.170  10.453  15.760  0.00  0.00    +0.000 C 
ATOM      8  O   UNL     1      -2.666   9.953  14.779  0.00  0.00    +0.000 OA
ATOM      9  N   UNL     1      -4.444  10.958  15.887  0.00  0.00    +0.000 N 
ATOM     10  C   UNL     1      -4.642  11.506  17.148  0.00  0.00    +0.000 A 
ATOM     11  C   UNL     1      -5.804  12.092  17.611  0.00  0.00    +0.000 A 
ATOM     12  C   UNL     1      -5.798  12.601  18.913  0.00  0.00    +0.000 A 
ATOM     13  C   UNL     1      -4.638  12.521  19.701  0.00  0.00    +0.000 A 
ATOM     14 BR   UNL     1      -4.653  13.226  21.458  0.00  0.00    +0.000 Br
ATOM     15  C   UNL     1      -3.470  11.923  19.221  0.00  0.00    +0.000 A 
ATOM     16  C   UNL     1      -3.495  11.402  17.941  0.00  0.00    +0.000 A 
ATOM     17  H   UNL     1      -5.120  10.925  15.135  0.00  0.00    +0.000 HD
ENDBRANCH   3   5
BRANCH   1  19
ATOM     18  C   UNL     1       0.655   8.533  20.880  0.00  0.00    +0.000 C 
ATOM     19  C   UNL     1       0.838   9.985  20.416  0.00  0.00    +0.000 C 
BRANCH  19  20
ATOM     20  C   UNL     1       0.145  11.010  21.299  0.00  0.00    +0.000 A 
ATOM     21  C   UNL     1      -0.791  10.556  22.263  0.00  0.00    +0.000 A 
ATOM     22  C   UNL     1      -1.485  11.451  23.084  0.00  0.00    +0.000 A 
ATOM     23  C   UNL     1      -1.219  12.792  22.937  0.00  0.00    +0.000 A 
ATOM     24  C   UNL     1      -0.309  13.248  22.016  0.00  0.00    +0.000 A 
ATOM     25  C   UNL     1       0.381  12.391  21.184  0.00  0.00    +0.000 A 
ATOM     26  O   UNL     1      -0.189  14.602  22.025  0.00  0.00    +0.000 OA
ATOM     27  C   UNL     1      -1.139  14.949  23.056  0.00  0.00    +0.000 C 
ATOM     28  O   UNL     1      -1.794  13.804  23.641  0.00  0.00    +0.000 OA
ENDBRANCH  19  20
ENDBRANCH   1  19
TORSDOF 3
ENDMDL
MODEL 7
REMARK VINA RESULT:      -7.8      3.521      8.281
REMARK  Name = 
REMARK  4 active torsions:
REMARK  status: ('A' for Active; 'I' for Inactive)
REMARK    1  A    between atoms: C_1  and  C_2
REMARK    2  A    between atoms: C_2  and  C_3
REMARK    3  A    between atoms: C_2  and  C_18
REMARK    4  A    between atoms: N_5  and  N_6
REMARK                            x       y       z     vdW  Elec       q    Type
REMARK                         _______ _______ _______ _____ _____    ______ ____
ROOT
ATOM      1  C   UNL     1       2.110   6.091  19.570  0.00  0.00    +0.000 C 
ATOM      2  O   UNL     1       2.704   5.477  20.455  0.00  0.00    +0.000 OA
ATOM      3  N   UNL     1       1.435   7.292  19.748  0.00  0.00    +0.000 N 
ATOM      4  H   UNL     1       0.680   7.525  19.117  0.00  0.00    +0.000 HD
ENDROOT
BRANCH   3   5
ATOM      5  N   UNL     1       1.498   7.941  20.943  0.00  0.00    +0.000 NA
ATOM      6  C   UNL     1       0.745   8.981  21.126  0.00  0.00    +0.000 C 
ATOM      7  C   UNL     1       0.844   9.822  22.419  0.00  0.00    +0.000 C 
ATOM      8  O   UNL     1       1.445   9.535  23.429  0.00  0.00    +0.000 OA
ATOM      9  N   UNL     1       0.110  10.960  22.170  0.00  0.00    +0.000 N 
ATOM     10  C   UNL     1      -0.486  10.907  20.917  0.00  0.00    +0.000 A 
ATOM     11  C   UNL     1      -1.285  11.881  20.350  0.00  0.00    +0.000 A 
ATOM     12  C   UNL     1      -1.805  11.633  19.077  0.00  0.00    +0.000 A 
ATOM     13  C   UNL     1      -1.526  10.423  18.420  0.00  0.00    +0.000 A 
ATOM     14 BR   UNL     1      -2.251  10.105  16.701  0.00  0.00    +0.000 Br
ATOM     15  C   UNL     1      -0.714   9.447  19.003  0.00  0.00    +0.000 A 
ATOM     16  C   UNL     1      -0.186   9.714  20.252  0.00  0.00    +0.000 A 
ATOM     17  H   UNL     1       0.031  11.713  22.841  0.00  0.00    +0.000 HD
ENDBRANCH   3   5
BRANCH   1  19
ATOM     18  C   UNL     1       1.517   4.273  17.939  0.00  0.00    +0.000 C 
ATOM     19  C   UNL     1       2.195   5.640  18.107  0.00  0.00    +0.000 C 
BRANCH  19  20
ATOM     20  C   UNL     1       3.600   5.712  17.530  0.00  0.00    +0.000 A 
ATOM     21  C   UNL     1       4.314   6.933  17.630  0.00  0.00    +0.000 A 
ATOM     22  C   UNL     1       5.598   7.073  17.092  0.00  0.00    +0.000 A 
ATOM     23  C   UNL     1       6.155   5.979  16.472  0.00  0.00    +0.000 A 
ATOM     24  C   UNL     1       5.482   4.787  16.376  0.00  0.00    +0.000 A 
ATOM     25  C   UNL     1       4.210   4.622  16.885  0.00  0.00    +0.000 A 
ATOM     26  O   UNL     1       6.200   3.832  15.729  0.00  0.00    +0.000 OA
ATOM     27  C   UNL     1       7.405   4.564  15.421  0.00  0.00    +0.000 C 
ATOM     28  O   UNL     1       7.384   5.927  15.893  0.00  0.00    +0.000 OA
ENDBRANCH  19  20
ENDBRANCH   1  19
TORSDOF 3
ENDMDL
MODEL 8
REMARK VINA RESULT:      -7.7      1.997      2.922
REMARK  Name = 
REMARK  4 active torsions:
REMARK  status: ('A' for Active; 'I' for Inactive)
REMARK    1  A    between atoms: C_1  and  C_2
REMARK    2  A    between atoms: C_2  and  C_3
REMARK    3  A    between atoms: C_2  and  C_18
REMARK    4  A    between atoms: N_5  and  N_6
REMARK                            x       y       z     vdW  Elec       q    Type
REMARK                         _______ _______ _______ _____ _____    ______ ____
ROOT
ATOM      1  C   UNL     1       1.600   9.286  17.801  0.00  0.00    +0.000 C 
ATOM      2  O   UNL     1       2.159  10.374  17.667  0.00  0.00    +0.000 OA
ATOM      3  N   UNL     1       2.213   8.050  17.636  0.00  0.00    +0.000 N 
ATOM      4  H   UNL     1       1.644   7.255  17.381  0.00  0.00    +0.000 HD
ENDROOT
BRANCH   3   5
ATOM      5  N   UNL     1       3.555   7.976  17.422  0.00  0.00    +0.000 NA
ATOM      6  C   UNL     1       4.154   6.841  17.615  0.00  0.00    +0.000 C 
ATOM      7  C   UNL     1       5.689   6.715  17.491  0.00  0.00    +0.000 C 
ATOM      8  O   UNL     1       6.452   7.541  17.044  0.00  0.00    +0.000 OA
ATOM      9  N   UNL     1       5.995   5.472  17.997  0.00  0.00    +0.000 N 
ATOM     10  C   UNL     1       4.845   4.783  18.360  0.00  0.00    +0.000 A 
ATOM     11  C   UNL     1       4.790   3.515  18.905  0.00  0.00    +0.000 A 
ATOM     12  C   UNL     1       3.528   2.986  19.190  0.00  0.00    +0.000 A 
ATOM     13  C   UNL     1       2.369   3.728  18.911  0.00  0.00    +0.000 A 
ATOM     14 BR   UNL     1       0.670   2.985  19.295  0.00  0.00    +0.000 Br
ATOM     15  C   UNL     1       2.438   5.011  18.361  0.00  0.00    +0.000 A 
ATOM     16  C   UNL     1       3.692   5.532  18.107  0.00  0.00    +0.000 A 
ATOM     17  H   UNL     1       6.945   5.136  18.073  0.00  0.00    +0.000 HD
ENDBRANCH   3   5
BRANCH   1  19
ATOM     18  C   UNL     1      -0.815   9.733  17.271  0.00  0.00    +0.000 C 
ATOM     19  C   UNL     1       0.163   9.199  18.326  0.00  0.00    +0.000 C 
BRANCH  19  20
ATOM     20  C   UNL     1      -0.017   9.810  19.707  0.00  0.00    +0.000 A 
ATOM     21  C   UNL     1       0.565   9.155  20.821  0.00  0.00    +0.000 A 
ATOM     22  C   UNL     1       0.409   9.650  22.121  0.00  0.00    +0.000 A 
ATOM     23  C   UNL     1      -0.318  10.807  22.282  0.00  0.00    +0.000 A 
ATOM     24  C   UNL     1      -0.879  11.459  21.213  0.00  0.00    +0.000 A 
ATOM     25  C   UNL     1      -0.753  10.988  19.922  0.00  0.00    +0.000 A 
ATOM     26  O   UNL     1      -1.556  12.579  21.580  0.00  0.00    +0.000 OA
ATOM     27  C   UNL     1      -1.363  12.552  23.010  0.00  0.00    +0.000 C 
ATOM     28  O   UNL     1      -0.575  11.432  23.462  0.00  0.00    +0.000 OA
ENDBRANCH  19  20
ENDBRANCH   1  19
TORSDOF 3
ENDMDL
MODEL 9
REMARK VINA RESULT:      -7.7      3.494      8.324
REMARK  Name = 
REMARK  4 active torsions:
REMARK  status: ('A' for Active; 'I' for Inactive)
REMARK    1  A    between atoms: C_1  and  C_2
REMARK    2  A    between atoms: C_2  and  C_3
REMARK    3  A    between atoms: C_2  and  C_18
REMARK    4  A    between atoms: N_5  and  N_6
REMARK                            x       y       z     vdW  Elec       q    Type
REMARK                         _______ _______ _______ _____ _____    ______ ____
ROOT
ATOM      1  C   UNL     1       1.669   6.299  19.932  0.00  0.00    +0.000 C 
ATOM      2  O   UNL     1       1.440   5.481  20.823  0.00  0.00    +0.000 OA
ATOM      3  N   UNL     1       1.628   7.679  20.089  0.00  0.00    +0.000 N 
ATOM      4  H   UNL     1       1.442   8.255  19.279  0.00  0.00    +0.000 HD
ENDROOT
BRANCH   3   5
ATOM      5  N   UNL     1       1.439   8.222  21.322  0.00  0.00    +0.000 NA
ATOM      6  C   UNL     1       0.538   9.144  21.464  0.00  0.00    +0.000 C 
ATOM      7  C   UNL     1       0.345   9.874  22.812  0.00  0.00    +0.000 C 
ATOM      8  O   UNL     1       0.832   9.573  23.878  0.00  0.00    +0.000 OA
ATOM      9  N   UNL     1      -0.492  10.932  22.538  0.00  0.00    +0.000 N 
ATOM     10  C   UNL     1      -0.897  10.918  21.209  0.00  0.00    +0.000 A 
ATOM     11  C   UNL     1      -1.731  11.835  20.600  0.00  0.00    +0.000 A 
ATOM     12  C   UNL     1      -2.033  11.639  19.250  0.00  0.00    +0.000 A 
ATOM     13  C   UNL     1      -1.509  10.534  18.558  0.00  0.00    +0.000 A 
ATOM     14 BR   UNL     1      -1.941  10.284  16.733  0.00  0.00    +0.000 Br
ATOM     15  C   UNL     1      -0.663   9.616  19.186  0.00  0.00    +0.000 A 
ATOM     16  C   UNL     1      -0.353   9.834  20.515  0.00  0.00    +0.000 A 
ATOM     17  H   UNL     1      -0.762  11.608  23.240  0.00  0.00    +0.000 HD
ENDBRANCH   3   5
BRANCH   1  19
ATOM     18  C   UNL     1       1.581   4.482  18.199  0.00  0.00    +0.000 C 
ATOM     19  C   UNL     1       2.183   5.847  18.561  0.00  0.00    +0.000 C 
BRANCH  19  20
ATOM     20  C   UNL     1       3.696   5.913  18.428  0.00  0.00    +0.000 A 
ATOM     21  C   UNL     1       4.489   5.078  19.256  0.00  0.00    +0.000 A 
ATOM     22  C   UNL     1       5.886   5.114  19.203  0.00  0.00    +0.000 A 
ATOM     23  C   UNL     1       6.471   5.979  18.308  0.00  0.00    +0.000 A 
ATOM     24  C   UNL     1       5.719   6.787  17.493  0.00  0.00    +0.000 A 
ATOM     25  C   UNL     1       4.339   6.783  17.530  0.00  0.00    +0.000 A 
ATOM     26  O   UNL     1       6.481   7.567  16.682  0.00  0.00    +0.000 OA
ATOM     27  C   UNL     1       7.806   7.163  17.089  0.00  0.00    +0.000 C 
ATOM     28  O   UNL     1       7.806   6.153  18.118  0.00  0.00    +0.000 OA
ENDBRANCH  19  20
ENDBRANCH   1  19
TORSDOF 3
ENDMDL
