MODEL 1
REMARK VINA RESULT:      -8.6      0.000      0.000
REMARK  Name = 
REMARK  4 active torsions:
REMARK  status: ('A' for Active; 'I' for Inactive)
REMARK    1  A    between atoms: S_2  and  N_4
REMARK    2  A    between atoms: S_2  and  C_12
REMARK    3  A    between atoms: N_4  and  C_5
REMARK    4  A    between atoms: C_17  and  C_18
REMARK                            x       y       z     vdW  Elec       q    Type
REMARK                         _______ _______ _______ _____ _____    ______ ____
ROOT
ATOM      1  C   UNL     1       6.443   5.482  16.954  0.00  0.00    +0.000 A 
ATOM      2  C   UNL     1       7.093   4.886  18.045  0.00  0.00    +0.000 A 
ATOM      3  C   UNL     1       7.930   5.628  18.882  0.00  0.00    +0.000 A 
ATOM      4  C   UNL     1       8.075   6.980  18.569  0.00  0.00    +0.000 A 
ATOM      5  N   UNL     1       8.773   7.989  19.175  0.00  0.00    +0.000 N 
ATOM      6  C   UNL     1       8.597   9.150  18.459  0.00  0.00    +0.000 A 
ATOM      7  N   UNL     1       7.786   8.929  17.437  0.00  0.00    +0.000 NA
ATOM      8  C   UNL     1       7.463   7.592  17.484  0.00  0.00    +0.000 A 
ATOM      9  C   UNL     1       6.638   6.835  16.636  0.00  0.00    +0.000 A 
ATOM     10  H   UNL     1       9.306   7.907  20.028  0.00  0.00    +0.000 HD
ENDROOT
BRANCH   6  11
ATOM     11  C   UNL     1       9.215  10.422  18.841  0.00  0.00    +0.000 A 
ATOM     12  C   UNL     1       9.625  11.354  17.873  0.00  0.00    +0.000 A 
ATOM     13  C   UNL     1      10.225  12.558  18.250  0.00  0.00    +0.000 A 
ATOM     14  C   UNL     1      10.424  12.845  19.597  0.00  0.00    +0.000 A 
ATOM     15  C   UNL     1      10.016  11.933  20.569  0.00  0.00    +0.000 A 
ATOM     16  C   UNL     1       9.409  10.731  20.193  0.00  0.00    +0.000 A 
ENDBRANCH   6  11
BRANCH   1  18
ATOM     17  O   UNL     1       5.540   3.095  16.469  0.00  0.00    +0.000 OA
ATOM     18  S   UNL     1       5.336   4.452  16.020  0.00  0.00    +0.000 S 
ATOM     19  O   UNL     1       5.505   4.829  14.634  0.00  0.00    +0.000 OA
BRANCH  18  20
ATOM     20  N   UNL     1       3.776   4.978  16.428  0.00  0.00    +0.000 N 
ATOM     21  H   UNL     1       3.187   4.842  15.606  0.00  0.00    +0.000 HD
BRANCH  20  22
ATOM     22  C   UNL     1       3.205   4.477  17.638  0.00  0.00    +0.000 A 
ATOM     23  C   UNL     1       2.395   3.343  17.601  0.00  0.00    +0.000 A 
ATOM     24  C   UNL     1       1.894   2.805  18.790  0.00  0.00    +0.000 A 
ATOM     25  C   UNL     1       2.187   3.419  20.006  0.00  0.00    +0.000 A 
ATOM     26 BR   UNL     1       1.559   2.654  21.617  0.00  0.00    +0.000 Br
ATOM     27  C   UNL     1       2.952   4.584  20.043  0.00  0.00    +0.000 A 
ATOM     28  C   UNL     1       3.457   5.121  18.854  0.00  0.00    +0.000 A 
ENDBRANCH  20  22
ENDBRANCH  18  20
ENDBRANCH   1  18
TORSDOF 4
ENDMDL
MODEL 2
REMARK VINA RESULT:      -8.5      0.359      1.001
REMARK  Name = 
REMARK  4 active torsions:
REMARK  status: ('A' for Active; 'I' for Inactive)
REMARK    1  A    between atoms: S_2  and  N_4
REMARK    2  A    between atoms: S_2  and  C_12
REMARK    3  A    between atoms: N_4  and  C_5
REMARK    4  A    between atoms: C_17  and  C_18
REMARK                            x       y       z     vdW  Elec       q    Type
REMARK                         _______ _______ _______ _____ _____    ______ ____
ROOT
ATOM      1  C   UNL     1       6.439   5.822  17.093  0.00  0.00    +0.000 A 
ATOM      2  C   UNL     1       7.140   5.203  18.138  0.00  0.00    +0.000 A 
ATOM      3  C   UNL     1       8.029   5.924  18.940  0.00  0.00    +0.000 A 
ATOM      4  C   UNL     1       8.172   7.279  18.638  0.00  0.00    +0.000 A 
ATOM      5  N   UNL     1       8.911   8.272  19.221  0.00  0.00    +0.000 N 
ATOM      6  C   UNL     1       8.710   9.445  18.531  0.00  0.00    +0.000 A 
ATOM      7  N   UNL     1       7.842   9.247  17.553  0.00  0.00    +0.000 NA
ATOM      8  C   UNL     1       7.509   7.914  17.597  0.00  0.00    +0.000 A 
ATOM      9  C   UNL     1       6.630   7.177  16.785  0.00  0.00    +0.000 A 
ATOM     10  H   UNL     1       9.490   8.172  20.042  0.00  0.00    +0.000 HD
ENDROOT
BRANCH   6  11
ATOM     11  C   UNL     1       9.362  10.705  18.898  0.00  0.00    +0.000 A 
ATOM     12  C   UNL     1       9.829  10.932  20.202  0.00  0.00    +0.000 A 
ATOM     13  C   UNL     1      10.438  12.143  20.543  0.00  0.00    +0.000 A 
ATOM     14  C   UNL     1      10.587  13.141  19.584  0.00  0.00    +0.000 A 
ATOM     15  C   UNL     1      10.135  12.927  18.283  0.00  0.00    +0.000 A 
ATOM     16  C   UNL     1       9.531  11.713  17.940  0.00  0.00    +0.000 A 
ENDBRANCH   6  11
BRANCH   1  18
ATOM     17  O   UNL     1       5.467   3.455  16.643  0.00  0.00    +0.000 OA
ATOM     18  S   UNL     1       5.272   4.817  16.205  0.00  0.00    +0.000 S 
ATOM     19  O   UNL     1       5.388   5.194  14.814  0.00  0.00    +0.000 OA
BRANCH  18  20
ATOM     20  N   UNL     1       3.742   5.373  16.682  0.00  0.00    +0.000 N 
ATOM     21  H   UNL     1       3.141   5.348  15.857  0.00  0.00    +0.000 HD
BRANCH  20  22
ATOM     22  C   UNL     1       3.154   4.782  17.843  0.00  0.00    +0.000 A 
ATOM     23  C   UNL     1       2.235   3.745  17.698  0.00  0.00    +0.000 A 
ATOM     24  C   UNL     1       1.714   3.113  18.831  0.00  0.00    +0.000 A 
ATOM     25  C   UNL     1       2.098   3.540  20.100  0.00  0.00    +0.000 A 
ATOM     26 BR   UNL     1       1.438   2.642  21.629  0.00  0.00    +0.000 Br
ATOM     27  C   UNL     1       2.975   4.613  20.250  0.00  0.00    +0.000 A 
ATOM     28  C   UNL     1       3.500   5.242  19.117  0.00  0.00    +0.000 A 
ENDBRANCH  20  22
ENDBRANCH  18  20
ENDBRANCH   1  18
TORSDOF 4
ENDMDL
MODEL 3
REMARK VINA RESULT:      -8.3      4.337      6.958
REMARK  Name = 
REMARK  4 active torsions:
REMARK  status: ('A' for Active; 'I' for Inactive)
REMARK    1  A    between atoms: S_2  and  N_4
REMARK    2  A    between atoms: S_2  and  C_12
REMARK    3  A    between atoms: N_4  and  C_5
REMARK    4  A    between atoms: C_17  and  C_18
REMARK                            x       y       z     vdW  Elec       q    Type
REMARK                         _______ _______ _______ _____ _____    ______ ____
ROOT
ATOM      1  C   UNL     1       3.518   4.726  18.577  0.00  0.00    +0.000 A 
ATOM      2  C   UNL     1       3.125   4.023  19.727  0.00  0.00    +0.000 A 
ATOM      3  C   UNL     1       2.395   4.647  20.742  0.00  0.00    +0.000 A 
ATOM      4  C   UNL     1       2.086   5.993  20.542  0.00  0.00    +0.000 A 
ATOM      5  N   UNL     1       1.374   6.888  21.293  0.00  0.00    +0.000 N 
ATOM      6  C   UNL     1       1.370   8.107  20.654  0.00  0.00    +0.000 A 
ATOM      7  N   UNL     1       2.022   8.014  19.507  0.00  0.00    +0.000 NA
ATOM      8  C   UNL     1       2.480   6.720  19.427  0.00  0.00    +0.000 A 
ATOM      9  C   UNL     1       3.229   6.090  18.419  0.00  0.00    +0.000 A 
ATOM     10  H   UNL     1       0.901   6.686  22.161  0.00  0.00    +0.000 HD
ENDROOT
BRANCH   6  11
ATOM     11  C   UNL     1       0.694   9.287  21.197  0.00  0.00    +0.000 A 
ATOM     12  C   UNL     1       0.755  10.529  20.544  0.00  0.00    +0.000 A 
ATOM     13  C   UNL     1       0.117  11.651  21.079  0.00  0.00    +0.000 A 
ATOM     14  C   UNL     1      -0.589  11.545  22.274  0.00  0.00    +0.000 A 
ATOM     15  C   UNL     1      -0.665  10.318  22.930  0.00  0.00    +0.000 A 
ATOM     16  C   UNL     1      -0.032   9.194  22.392  0.00  0.00    +0.000 A 
ENDBRANCH   6  11
BRANCH   1  18
ATOM     17  O   UNL     1       4.171   4.498  16.073  0.00  0.00    +0.000 OA
ATOM     18  S   UNL     1       4.364   3.797  17.320  0.00  0.00    +0.000 S 
ATOM     19  O   UNL     1       3.956   2.420  17.492  0.00  0.00    +0.000 OA
BRANCH  18  20
ATOM     20  N   UNL     1       6.001   3.825  17.763  0.00  0.00    +0.000 N 
ATOM     21  H   UNL     1       6.485   3.144  17.175  0.00  0.00    +0.000 HD
BRANCH  20  22
ATOM     22  C   UNL     1       6.649   5.097  17.825  0.00  0.00    +0.000 A 
ATOM     23  C   UNL     1       6.458   6.018  16.796  0.00  0.00    +0.000 A 
ATOM     24  C   UNL     1       7.028   7.292  16.887  0.00  0.00    +0.000 A 
ATOM     25  C   UNL     1       7.804   7.626  17.995  0.00  0.00    +0.000 A 
ATOM     26 BR   UNL     1       8.522   9.369  18.143  0.00  0.00    +0.000 Br
ATOM     27  C   UNL     1       8.042   6.689  19.000  0.00  0.00    +0.000 A 
ATOM     28  C   UNL     1       7.468   5.417  18.911  0.00  0.00    +0.000 A 
ENDBRANCH  20  22
ENDBRANCH  18  20
ENDBRANCH   1  18
TORSDOF 4
ENDMDL
MODEL 4
REMARK VINA RESULT:      -8.2      1.044      1.709
REMARK  Name = 
REMARK  4 active torsions:
REMARK  status: ('A' for Active; 'I' for Inactive)
REMARK    1  A    between atoms: S_2  and  N_4
REMARK    2  A    between atoms: S_2  and  C_12
REMARK    3  A    between atoms: N_4  and  C_5
REMARK    4  A    between atoms: C_17  and  C_18
REMARK                            x       y       z     vdW  Elec       q    Type
REMARK                         _______ _______ _______ _____ _____    ______ ____
ROOT
ATOM      1  C   UNL     1       6.163   5.460  17.040  0.00  0.00    +0.000 A 
ATOM      2  C   UNL     1       6.970   4.814  17.989  0.00  0.00    +0.000 A 
ATOM      3  C   UNL     1       7.912   5.521  18.740  0.00  0.00    +0.000 A 
ATOM      4  C   UNL     1       7.998   6.891  18.489  0.00  0.00    +0.000 A 
ATOM      5  N   UNL     1       8.767   7.876  19.048  0.00  0.00    +0.000 N 
ATOM      6  C   UNL     1       8.478   9.073  18.434  0.00  0.00    +0.000 A 
ATOM      7  N   UNL     1       7.530   8.896  17.529  0.00  0.00    +0.000 NA
ATOM      8  C   UNL     1       7.230   7.554  17.542  0.00  0.00    +0.000 A 
ATOM      9  C   UNL     1       6.297   6.832  16.779  0.00  0.00    +0.000 A 
ATOM     10  H   UNL     1       9.419   7.755  19.808  0.00  0.00    +0.000 HD
ENDROOT
BRANCH   6  11
ATOM     11  C   UNL     1       9.134  10.331  18.798  0.00  0.00    +0.000 A 
ATOM     12  C   UNL     1       9.622  10.552  20.096  0.00  0.00    +0.000 A 
ATOM     13  C   UNL     1      10.235  11.761  20.434  0.00  0.00    +0.000 A 
ATOM     14  C   UNL     1      10.366  12.765  19.479  0.00  0.00    +0.000 A 
ATOM     15  C   UNL     1       9.893  12.559  18.185  0.00  0.00    +0.000 A 
ATOM     16  C   UNL     1       9.286  11.346  17.844  0.00  0.00    +0.000 A 
ENDBRANCH   6  11
BRANCH   1  18
ATOM     17  O   UNL     1       5.379   4.304  14.849  0.00  0.00    +0.000 OA
ATOM     18  S   UNL     1       4.942   4.466  16.216  0.00  0.00    +0.000 S 
ATOM     19  O   UNL     1       3.659   5.047  16.542  0.00  0.00    +0.000 OA
BRANCH  18  20
ATOM     20  N   UNL     1       4.960   2.971  17.019  0.00  0.00    +0.000 N 
ATOM     21  H   UNL     1       5.937   2.742  17.209  0.00  0.00    +0.000 HD
BRANCH  20  22
ATOM     22  C   UNL     1       4.100   2.817  18.149  0.00  0.00    +0.000 A 
ATOM     23  C   UNL     1       4.582   3.099  19.426  0.00  0.00    +0.000 A 
ATOM     24  C   UNL     1       3.724   3.022  20.527  0.00  0.00    +0.000 A 
ATOM     25  C   UNL     1       2.396   2.640  20.346  0.00  0.00    +0.000 A 
ATOM     26 BR   UNL     1       1.223   2.596  21.828  0.00  0.00    +0.000 Br
ATOM     27  C   UNL     1       1.924   2.305  19.077  0.00  0.00    +0.000 A 
ATOM     28  C   UNL     1       2.781   2.386  17.975  0.00  0.00    +0.000 A 
ENDBRANCH  20  22
ENDBRANCH  18  20
ENDBRANCH   1  18
TORSDOF 4
ENDMDL
MODEL 5
REMARK VINA RESULT:      -8.0      1.088      1.133
REMARK  Name = 
REMARK  4 active torsions:
REMARK  status: ('A' for Active; 'I' for Inactive)
REMARK    1  A    between atoms: S_2  and  N_4
REMARK    2  A    between atoms: S_2  and  C_12
REMARK    3  A    between atoms: N_4  and  C_5
REMARK    4  A    between atoms: C_17  and  C_18
REMARK                            x       y       z     vdW  Elec       q    Type
REMARK                         _______ _______ _______ _____ _____    ______ ____
ROOT
ATOM      1  C   UNL     1       6.972   5.888  16.911  0.00  0.00    +0.000 A 
ATOM      2  C   UNL     1       7.487   5.329  18.091  0.00  0.00    +0.000 A 
ATOM      3  C   UNL     1       8.173   6.113  19.023  0.00  0.00    +0.000 A 
ATOM      4  C   UNL     1       8.310   7.465  18.710  0.00  0.00    +0.000 A 
ATOM      5  N   UNL     1       8.879   8.508  19.390  0.00  0.00    +0.000 N 
ATOM      6  C   UNL     1       8.761   9.653  18.637  0.00  0.00    +0.000 A 
ATOM      7  N   UNL     1       8.107   9.389  17.518  0.00  0.00    +0.000 NA
ATOM      8  C   UNL     1       7.831   8.041  17.542  0.00  0.00    +0.000 A 
ATOM      9  C   UNL     1       7.159   7.243  16.601  0.00  0.00    +0.000 A 
ATOM     10  H   UNL     1       9.293   8.457  20.309  0.00  0.00    +0.000 HD
ENDROOT
BRANCH   6  11
ATOM     11  C   UNL     1       9.273  10.952  19.079  0.00  0.00    +0.000 A 
ATOM     12  C   UNL     1       9.458  12.010  18.174  0.00  0.00    +0.000 A 
ATOM     13  C   UNL     1       9.960  13.241  18.606  0.00  0.00    +0.000 A 
ATOM     14  C   UNL     1      10.283  13.428  19.947  0.00  0.00    +0.000 A 
ATOM     15  C   UNL     1      10.098  12.390  20.858  0.00  0.00    +0.000 A 
ATOM     16  C   UNL     1       9.590  11.161  20.427  0.00  0.00    +0.000 A 
ENDBRANCH   6  11
BRANCH   1  18
ATOM     17  O   UNL     1       6.922   4.409  14.775  0.00  0.00    +0.000 OA
ATOM     18  S   UNL     1       6.044   4.804  15.851  0.00  0.00    +0.000 S 
ATOM     19  O   UNL     1       4.783   5.466  15.601  0.00  0.00    +0.000 OA
BRANCH  18  20
ATOM     20  N   UNL     1       5.649   3.462  16.811  0.00  0.00    +0.000 N 
ATOM     21  H   UNL     1       6.493   3.197  17.320  0.00  0.00    +0.000 HD
BRANCH  20  22
ATOM     22  C   UNL     1       4.484   3.556  17.633  0.00  0.00    +0.000 A 
ATOM     23  C   UNL     1       3.222   3.409  17.060  0.00  0.00    +0.000 A 
ATOM     24  C   UNL     1       2.083   3.424  17.869  0.00  0.00    +0.000 A 
ATOM     25  C   UNL     1       2.212   3.613  19.244  0.00  0.00    +0.000 A 
ATOM     26 BR   UNL     1       0.674   3.573  20.343  0.00  0.00    +0.000 Br
ATOM     27  C   UNL     1       3.469   3.815  19.815  0.00  0.00    +0.000 A 
ATOM     28  C   UNL     1       4.609   3.795  19.005  0.00  0.00    +0.000 A 
ENDBRANCH  20  22
ENDBRANCH  18  20
ENDBRANCH   1  18
TORSDOF 4
ENDMDL
MODEL 6
REMARK VINA RESULT:      -8.0      4.100      6.989
REMARK  Name = 
REMARK  4 active torsions:
REMARK  status: ('A' for Active; 'I' for Inactive)
REMARK    1  A    between atoms: S_2  and  N_4
REMARK    2  A    between atoms: S_2  and  C_12
REMARK    3  A    between atoms: N_4  and  C_5
REMARK    4  A    between atoms: C_17  and  C_18
REMARK                            x       y       z     vdW  Elec       q    Type
REMARK                         _______ _______ _______ _____ _____    ______ ____
ROOT
ATOM      1  C   UNL     1       4.104   4.850  17.999  0.00  0.00    +0.000 A 
ATOM      2  C   UNL     1       3.878   4.078  19.150  0.00  0.00    +0.000 A 
ATOM      3  C   UNL     1       3.122   4.574  20.215  0.00  0.00    +0.000 A 
ATOM      4  C   UNL     1       2.613   5.864  20.064  0.00  0.00    +0.000 A 
ATOM      5  N   UNL     1       1.822   6.635  20.871  0.00  0.00    +0.000 N 
ATOM      6  C   UNL     1       1.609   7.851  20.262  0.00  0.00    +0.000 A 
ATOM      7  N   UNL     1       2.206   7.872  19.082  0.00  0.00    +0.000 NA
ATOM      8  C   UNL     1       2.839   6.658  18.948  0.00  0.00    +0.000 A 
ATOM      9  C   UNL     1       3.616   6.160  17.889  0.00  0.00    +0.000 A 
ATOM     10  H   UNL     1       1.430   6.352  21.757  0.00  0.00    +0.000 HD
ENDROOT
BRANCH   6  11
ATOM     11  C   UNL     1       0.802   8.913  20.868  0.00  0.00    +0.000 A 
ATOM     12  C   UNL     1       0.586   8.964  22.255  0.00  0.00    +0.000 A 
ATOM     13  C   UNL     1      -0.197   9.975  22.819  0.00  0.00    +0.000 A 
ATOM     14  C   UNL     1      -0.772  10.946  22.004  0.00  0.00    +0.000 A 
ATOM     15  C   UNL     1      -0.560  10.912  20.627  0.00  0.00    +0.000 A 
ATOM     16  C   UNL     1       0.228   9.905  20.063  0.00  0.00    +0.000 A 
ENDBRANCH   6  11
BRANCH   1  18
ATOM     17  O   UNL     1       4.760   4.846  15.485  0.00  0.00    +0.000 OA
ATOM     18  S   UNL     1       5.006   4.072  16.679  0.00  0.00    +0.000 S 
ATOM     19  O   UNL     1       4.693   2.662  16.751  0.00  0.00    +0.000 OA
BRANCH  18  20
ATOM     20  N   UNL     1       6.640   4.180  17.123  0.00  0.00    +0.000 N 
ATOM     21  H   UNL     1       7.185   3.756  16.371  0.00  0.00    +0.000 HD
BRANCH  20  22
ATOM     22  C   UNL     1       7.128   5.455  17.544  0.00  0.00    +0.000 A 
ATOM     23  C   UNL     1       7.697   5.593  18.809  0.00  0.00    +0.000 A 
ATOM     24  C   UNL     1       8.245   6.819  19.197  0.00  0.00    +0.000 A 
ATOM     25  C   UNL     1       8.197   7.906  18.326  0.00  0.00    +0.000 A 
ATOM     26 BR   UNL     1       8.992   9.545  18.831  0.00  0.00    +0.000 Br
ATOM     27  C   UNL     1       7.580   7.788  17.081  0.00  0.00    +0.000 A 
ATOM     28  C   UNL     1       7.036   6.559  16.691  0.00  0.00    +0.000 A 
ENDBRANCH  20  22
ENDBRANCH  18  20
ENDBRANCH   1  18
TORSDOF 4
ENDMDL
MODEL 7
REMARK VINA RESULT:      -8.0      1.322      1.835
REMARK  Name = 
REMARK  4 active torsions:
REMARK  status: ('A' for Active; 'I' for Inactive)
REMARK    1  A    between atoms: S_2  and  N_4
REMARK    2  A    between atoms: S_2  and  C_12
REMARK    3  A    between atoms: N_4  and  C_5
REMARK    4  A    between atoms: C_17  and  C_18
REMARK                            x       y       z     vdW  Elec       q    Type
REMARK                         _______ _______ _______ _____ _____    ______ ____
ROOT
ATOM      1  C   UNL     1       6.579   5.431  16.986  0.00  0.00    +0.000 A 
ATOM      2  C   UNL     1       7.204   4.886  18.118  0.00  0.00    +0.000 A 
ATOM      3  C   UNL     1       7.989   5.676  18.961  0.00  0.00    +0.000 A 
ATOM      4  C   UNL     1       8.110   7.021  18.610  0.00  0.00    +0.000 A 
ATOM      5  N   UNL     1       8.757   8.067  19.210  0.00  0.00    +0.000 N 
ATOM      6  C   UNL     1       8.577   9.201  18.450  0.00  0.00    +0.000 A 
ATOM      7  N   UNL     1       7.811   8.926  17.408  0.00  0.00    +0.000 NA
ATOM      8  C   UNL     1       7.522   7.583  17.486  0.00  0.00    +0.000 A 
ATOM      9  C   UNL     1       6.749   6.778  16.633  0.00  0.00    +0.000 A 
ATOM     10  H   UNL     1       9.261   8.027  20.083  0.00  0.00    +0.000 HD
ENDROOT
BRANCH   6  11
ATOM     11  C   UNL     1       9.148  10.500  18.814  0.00  0.00    +0.000 A 
ATOM     12  C   UNL     1       9.743  10.711  20.069  0.00  0.00    +0.000 A 
ATOM     13  C   UNL     1      10.272  11.958  20.410  0.00  0.00    +0.000 A 
ATOM     14  C   UNL     1      10.212  13.010  19.500  0.00  0.00    +0.000 A 
ATOM     15  C   UNL     1       9.631  12.815  18.248  0.00  0.00    +0.000 A 
ATOM     16  C   UNL     1       9.107  11.565  17.905  0.00  0.00    +0.000 A 
ENDBRANCH   6  11
BRANCH   1  18
ATOM     17  O   UNL     1       6.380   3.297  15.516  0.00  0.00    +0.000 OA
ATOM     18  S   UNL     1       5.535   4.342  16.045  0.00  0.00    +0.000 S 
ATOM     19  O   UNL     1       4.739   5.188  15.184  0.00  0.00    +0.000 OA
BRANCH  18  20
ATOM     20  N   UNL     1       4.433   3.697  17.162  0.00  0.00    +0.000 N 
ATOM     21  H   UNL     1       4.922   2.969  17.684  0.00  0.00    +0.000 HD
BRANCH  20  22
ATOM     22  C   UNL     1       3.714   4.615  17.988  0.00  0.00    +0.000 A 
ATOM     23  C   UNL     1       3.415   4.270  19.305  0.00  0.00    +0.000 A 
ATOM     24  C   UNL     1       2.779   5.193  20.140  0.00  0.00    +0.000 A 
ATOM     25  C   UNL     1       2.424   6.446  19.644  0.00  0.00    +0.000 A 
ATOM     26 BR   UNL     1       1.618   7.713  20.794  0.00  0.00    +0.000 Br
ATOM     27  C   UNL     1       2.672   6.775  18.313  0.00  0.00    +0.000 A 
ATOM     28  C   UNL     1       3.313   5.854  17.478  0.00  0.00    +0.000 A 
ENDBRANCH  20  22
ENDBRANCH  18  20
ENDBRANCH   1  18
TORSDOF 4
ENDMDL
MODEL 8
REMARK VINA RESULT:      -8.0      1.727      2.151
REMARK  Name = 
REMARK  4 active torsions:
REMARK  status: ('A' for Active; 'I' for Inactive)
REMARK    1  A    between atoms: S_2  and  N_4
REMARK    2  A    between atoms: S_2  and  C_12
REMARK    3  A    between atoms: N_4  and  C_5
REMARK    4  A    between atoms: C_17  and  C_18
REMARK                            x       y       z     vdW  Elec       q    Type
REMARK                         _______ _______ _______ _____ _____    ______ ____
ROOT
ATOM      1  C   UNL     1       6.279   5.430  17.708  0.00  0.00    +0.000 A 
ATOM      2  C   UNL     1       7.129   5.046  18.758  0.00  0.00    +0.000 A 
ATOM      3  C   UNL     1       8.059   5.938  19.297  0.00  0.00    +0.000 A 
ATOM      4  C   UNL     1       8.088   7.215  18.735  0.00  0.00    +0.000 A 
ATOM      5  N   UNL     1       8.831   8.326  19.029  0.00  0.00    +0.000 N 
ATOM      6  C   UNL     1       8.485   9.338  18.163  0.00  0.00    +0.000 A 
ATOM      7  N   UNL     1       7.526   8.927  17.351  0.00  0.00    +0.000 NA
ATOM      8  C   UNL     1       7.277   7.615  17.683  0.00  0.00    +0.000 A 
ATOM      9  C   UNL     1       6.356   6.707  17.134  0.00  0.00    +0.000 A 
ATOM     10  H   UNL     1       9.502   8.406  19.778  0.00  0.00    +0.000 HD
ENDROOT
BRANCH   6  11
ATOM     11  C   UNL     1       9.100  10.667  18.208  0.00  0.00    +0.000 A 
ATOM     12  C   UNL     1       8.449  11.792  17.676  0.00  0.00    +0.000 A 
ATOM     13  C   UNL     1       9.051  13.052  17.712  0.00  0.00    +0.000 A 
ATOM     14  C   UNL     1      10.313  13.203  18.281  0.00  0.00    +0.000 A 
ATOM     15  C   UNL     1      10.969  12.098  18.820  0.00  0.00    +0.000 A 
ATOM     16  C   UNL     1      10.363  10.838  18.789  0.00  0.00    +0.000 A 
ENDBRANCH   6  11
BRANCH   1  18
ATOM     17  O   UNL     1       4.879   3.313  18.267  0.00  0.00    +0.000 OA
ATOM     18  S   UNL     1       5.080   4.233  17.172  0.00  0.00    +0.000 S 
ATOM     19  O   UNL     1       5.514   3.781  15.868  0.00  0.00    +0.000 OA
BRANCH  18  20
ATOM     20  N   UNL     1       3.661   5.115  16.877  0.00  0.00    +0.000 N 
ATOM     21  H   UNL     1       2.988   4.473  16.457  0.00  0.00    +0.000 HD
BRANCH  20  22
ATOM     22  C   UNL     1       3.127   5.889  17.954  0.00  0.00    +0.000 A 
ATOM     23  C   UNL     1       2.953   7.262  17.796  0.00  0.00    +0.000 A 
ATOM     24  C   UNL     1       2.362   8.011  18.817  0.00  0.00    +0.000 A 
ATOM     25  C   UNL     1       1.973   7.385  20.000  0.00  0.00    +0.000 A 
ATOM     26 BR   UNL     1       1.119   8.391  21.354  0.00  0.00    +0.000 Br
ATOM     27  C   UNL     1       2.195   6.021  20.183  0.00  0.00    +0.000 A 
ATOM     28  C   UNL     1       2.782   5.270  19.159  0.00  0.00    +0.000 A 
ENDBRANCH  20  22
ENDBRANCH  18  20
ENDBRANCH   1  18
TORSDOF 4
ENDMDL
MODEL 9
REMARK VINA RESULT:      -8.0      4.675      6.375
REMARK  Name = 
REMARK  4 active torsions:
REMARK  status: ('A' for Active; 'I' for Inactive)
REMARK    1  A    between atoms: S_2  and  N_4
REMARK    2  A    between atoms: S_2  and  C_12
REMARK    3  A    between atoms: N_4  and  C_5
REMARK    4  A    between atoms: C_17  and  C_18
REMARK                            x       y       z     vdW  Elec       q    Type
REMARK                         _______ _______ _______ _____ _____    ______ ____
ROOT
ATOM      1  C   UNL     1       2.428   4.831  18.722  0.00  0.00    +0.000 A 
ATOM      2  C   UNL     1       2.236   4.955  20.106  0.00  0.00    +0.000 A 
ATOM      3  C   UNL     1       1.935   6.190  20.687  0.00  0.00    +0.000 A 
ATOM      4  C   UNL     1       1.840   7.275  19.816  0.00  0.00    +0.000 A 
ATOM      5  N   UNL     1       1.536   8.592  20.026  0.00  0.00    +0.000 N 
ATOM      6  C   UNL     1       1.587   9.262  18.826  0.00  0.00    +0.000 A 
ATOM      7  N   UNL     1       1.877   8.416  17.851  0.00  0.00    +0.000 NA
ATOM      8  C   UNL     1       2.047   7.188  18.446  0.00  0.00    +0.000 A 
ATOM      9  C   UNL     1       2.367   5.946  17.872  0.00  0.00    +0.000 A 
ATOM     10  H   UNL     1       1.285   9.005  20.912  0.00  0.00    +0.000 HD
ENDROOT
BRANCH   6  11
ATOM     11  C   UNL     1       1.314  10.697  18.703  0.00  0.00    +0.000 A 
ATOM     12  C   UNL     1       0.041  11.224  18.974  0.00  0.00    +0.000 A 
ATOM     13  C   UNL     1      -0.210  12.591  18.841  0.00  0.00    +0.000 A 
ATOM     14  C   UNL     1       0.809  13.449  18.437  0.00  0.00    +0.000 A 
ATOM     15  C   UNL     1       2.080  12.942  18.172  0.00  0.00    +0.000 A 
ATOM     16  C   UNL     1       2.333  11.574  18.310  0.00  0.00    +0.000 A 
ENDBRANCH   6  11
BRANCH   1  18
ATOM     17  O   UNL     1       2.304   3.188  16.713  0.00  0.00    +0.000 OA
ATOM     18  S   UNL     1       2.716   3.193  18.097  0.00  0.00    +0.000 S 
ATOM     19  O   UNL     1       2.144   2.284  19.065  0.00  0.00    +0.000 OA
BRANCH  18  20
ATOM     20  N   UNL     1       4.392   2.953  18.211  0.00  0.00    +0.000 N 
ATOM     21  H   UNL     1       4.629   2.178  17.591  0.00  0.00    +0.000 HD
BRANCH  20  22
ATOM     22  C   UNL     1       5.236   4.096  18.055  0.00  0.00    +0.000 A 
ATOM     23  C   UNL     1       5.443   4.633  16.786  0.00  0.00    +0.000 A 
ATOM     24  C   UNL     1       6.206   5.795  16.637  0.00  0.00    +0.000 A 
ATOM     25  C   UNL     1       6.777   6.397  17.756  0.00  0.00    +0.000 A 
ATOM     26 BR   UNL     1       7.757   8.002  17.558  0.00  0.00    +0.000 Br
ATOM     27  C   UNL     1       6.617   5.833  19.021  0.00  0.00    +0.000 A 
ATOM     28  C   UNL     1       5.850   4.673  19.171  0.00  0.00    +0.000 A 
ENDBRANCH  20  22
ENDBRANCH  18  20
ENDBRANCH   1  18
TORSDOF 4
ENDMDL
