MODEL 1
REMARK VINA RESULT:      -9.4      0.000      0.000
REMARK  Name = 
REMARK  6 active torsions:
REMARK  status: ('A' for Active; 'I' for Inactive)
REMARK    1  A    between atoms: C_2  and  C_3
REMARK    2  A    between atoms: C_3  and  N_4
REMARK    3  A    between atoms: N_14  and  C_15
REMARK    4  A    between atoms: C_15  and  C_16
REMARK    5  A    between atoms: N_25  and  C_26
REMARK    6  A    between atoms: C_26  and  C_27
REMARK                            x       y       z     vdW  Elec       q    Type
REMARK                         _______ _______ _______ _____ _____    ______ ____
ROOT
ATOM      1  N   UNL     1       2.022   9.037  19.049  0.00  0.00    +0.000 N 
ATOM      2  N   UNL     1       1.469   8.776  20.314  0.00  0.00    +0.000 NA
ATOM      3  C   UNL     1       1.465   7.553  20.772  0.00  0.00    +0.000 A 
ATOM      4  C   UNL     1       2.074   6.488  20.030  0.00  0.00    +0.000 A 
ATOM      5  C   UNL     1       2.272   5.113  20.311  0.00  0.00    +0.000 A 
ATOM      6  C   UNL     1       1.901   4.257  21.370  0.00  0.00    +0.000 A 
ATOM      7  C   UNL     1       2.297   2.914  21.346  0.00  0.00    +0.000 A 
ATOM      8  C   UNL     1       3.062   2.420  20.295  0.00  0.00    +0.000 A 
ATOM      9  C   UNL     1       3.442   3.246  19.235  0.00  0.00    +0.000 A 
ATOM     10  C   UNL     1       3.030   4.589  19.255  0.00  0.00    +0.000 A 
ATOM     11  N   UNL     1       3.284   5.633  18.374  0.00  0.00    +0.000 N 
ATOM     12  C   UNL     1       2.609   6.754  18.790  0.00  0.00    +0.000 A 
ATOM     13  C   UNL     1       2.498   8.045  18.168  0.00  0.00    +0.000 A 
ATOM     14  O   UNL     1       2.793   8.269  16.999  0.00  0.00    +0.000 OA
ENDROOT
BRANCH   1  15
ATOM     15  C   UNL     1       1.926  10.406  18.556  0.00  0.00    +0.000 C 
BRANCH  15  17
ATOM     16  O   UNL     1       0.359  12.230  18.780  0.00  0.00    +0.000 OA
ATOM     17  C   UNL     1       0.532  11.011  18.756  0.00  0.00    +0.000 C 
ATOM     18  N   UNL     1      -0.517  10.122  18.764  0.00  0.00    +0.000 N 
ATOM     19  H   UNL     1      -0.333   9.133  18.635  0.00  0.00    +0.000 HD
BRANCH  18  20
ATOM     20  C   UNL     1      -1.893  10.535  18.942  0.00  0.00    +0.000 C 
BRANCH  20  21
ATOM     21  C   UNL     1      -2.640  10.601  17.631  0.00  0.00    +0.000 A 
ATOM     22  C   UNL     1      -2.192   9.877  16.528  0.00  0.00    +0.000 A 
ATOM     23  C   UNL     1      -2.896   9.970  15.330  0.00  0.00    +0.000 A 
ATOM     24  C   UNL     1      -4.029  10.769  15.266  0.00  0.00    +0.000 A 
ATOM     25  C   UNL     1      -4.419  11.444  16.411  0.00  0.00    +0.000 A 
ATOM     26  N   UNL     1      -3.757  11.374  17.588  0.00  0.00    +0.000 NA
ENDBRANCH  20  21
ENDBRANCH  18  20
ENDBRANCH  15  17
ENDBRANCH   1  15
BRANCH  11  27
ATOM     27  C   UNL     1       4.232   5.583  17.262  0.00  0.00    +0.000 C 
BRANCH  27  28
ATOM     28  C   UNL     1       5.613   6.023  17.701  0.00  0.00    +0.000 A 
ATOM     29  C   UNL     1       6.297   5.354  18.730  0.00  0.00    +0.000 A 
ATOM     30  C   UNL     1       7.544   5.800  19.169  0.00  0.00    +0.000 A 
ATOM     31  C   UNL     1       8.136   6.909  18.572  0.00  0.00    +0.000 A 
ATOM     32  C   UNL     1       7.490   7.558  17.522  0.00  0.00    +0.000 A 
ATOM     33  C   UNL     1       6.235   7.121  17.090  0.00  0.00    +0.000 A 
ENDBRANCH  27  28
ENDBRANCH  11  27
TORSDOF 6
ENDMDL
MODEL 2
REMARK VINA RESULT:      -9.2      0.695      1.188
REMARK  Name = 
REMARK  6 active torsions:
REMARK  status: ('A' for Active; 'I' for Inactive)
REMARK    1  A    between atoms: C_2  and  C_3
REMARK    2  A    between atoms: C_3  and  N_4
REMARK    3  A    between atoms: N_14  and  C_15
REMARK    4  A    between atoms: C_15  and  C_16
REMARK    5  A    between atoms: N_25  and  C_26
REMARK    6  A    between atoms: C_26  and  C_27
REMARK                            x       y       z     vdW  Elec       q    Type
REMARK                         _______ _______ _______ _____ _____    ______ ____
ROOT
ATOM      1  N   UNL     1       2.118   8.814  18.725  0.00  0.00    +0.000 N 
ATOM      2  N   UNL     1       1.487   8.629  19.968  0.00  0.00    +0.000 NA
ATOM      3  C   UNL     1       1.486   7.444  20.516  0.00  0.00    +0.000 A 
ATOM      4  C   UNL     1       2.173   6.348  19.900  0.00  0.00    +0.000 A 
ATOM      5  C   UNL     1       2.389   5.004  20.298  0.00  0.00    +0.000 A 
ATOM      6  C   UNL     1       1.970   4.218  21.392  0.00  0.00    +0.000 A 
ATOM      7  C   UNL     1       2.404   2.890  21.498  0.00  0.00    +0.000 A 
ATOM      8  C   UNL     1       3.252   2.345  20.539  0.00  0.00    +0.000 A 
ATOM      9  C   UNL     1       3.680   3.102  19.446  0.00  0.00    +0.000 A 
ATOM     10  C   UNL     1       3.231   4.428  19.336  0.00  0.00    +0.000 A 
ATOM     11  N   UNL     1       3.515   5.411  18.397  0.00  0.00    +0.000 N 
ATOM     12  C   UNL     1       2.783   6.537  18.681  0.00  0.00    +0.000 A 
ATOM     13  C   UNL     1       2.679   7.774  17.956  0.00  0.00    +0.000 A 
ATOM     14  O   UNL     1       3.046   7.920  16.795  0.00  0.00    +0.000 OA
ENDROOT
BRANCH   1  15
ATOM     15  C   UNL     1       2.017  10.138  18.124  0.00  0.00    +0.000 C 
BRANCH  15  17
ATOM     16  O   UNL     1       1.382  11.967  19.568  0.00  0.00    +0.000 OA
ATOM     17  C   UNL     1       1.011  11.041  18.845  0.00  0.00    +0.000 C 
ATOM     18  N   UNL     1      -0.313  10.847  18.525  0.00  0.00    +0.000 N 
ATOM     19  H   UNL     1      -0.561  10.141  17.842  0.00  0.00    +0.000 HD
BRANCH  18  20
ATOM     20  C   UNL     1      -1.384  11.619  19.118  0.00  0.00    +0.000 C 
BRANCH  20  21
ATOM     21  C   UNL     1      -2.651  11.555  18.299  0.00  0.00    +0.000 A 
ATOM     22  C   UNL     1      -2.610  11.136  16.971  0.00  0.00    +0.000 A 
ATOM     23  C   UNL     1      -3.795  11.100  16.239  0.00  0.00    +0.000 A 
ATOM     24  C   UNL     1      -4.984  11.469  16.851  0.00  0.00    +0.000 A 
ATOM     25  C   UNL     1      -4.944  11.857  18.180  0.00  0.00    +0.000 A 
ATOM     26  N   UNL     1      -3.811  11.902  18.917  0.00  0.00    +0.000 NA
ENDBRANCH  20  21
ENDBRANCH  18  20
ENDBRANCH  15  17
ENDBRANCH   1  15
BRANCH  11  27
ATOM     27  C   UNL     1       4.537   5.309  17.356  0.00  0.00    +0.000 C 
BRANCH  27  28
ATOM     28  C   UNL     1       5.839   5.937  17.806  0.00  0.00    +0.000 A 
ATOM     29  C   UNL     1       6.353   7.082  17.173  0.00  0.00    +0.000 A 
ATOM     30  C   UNL     1       7.581   7.622  17.554  0.00  0.00    +0.000 A 
ATOM     31  C   UNL     1       8.306   7.038  18.588  0.00  0.00    +0.000 A 
ATOM     32  C   UNL     1       7.793   5.927  19.254  0.00  0.00    +0.000 A 
ATOM     33  C   UNL     1       6.569   5.377  18.865  0.00  0.00    +0.000 A 
ENDBRANCH  27  28
ENDBRANCH  11  27
TORSDOF 6
ENDMDL
MODEL 3
REMARK VINA RESULT:      -9.2      2.198      8.187
REMARK  Name = 
REMARK  6 active torsions:
REMARK  status: ('A' for Active; 'I' for Inactive)
REMARK    1  A    between atoms: C_2  and  C_3
REMARK    2  A    between atoms: C_3  and  N_4
REMARK    3  A    between atoms: N_14  and  C_15
REMARK    4  A    between atoms: C_15  and  C_16
REMARK    5  A    between atoms: N_25  and  C_26
REMARK    6  A    between atoms: C_26  and  C_27
REMARK                            x       y       z     vdW  Elec       q    Type
REMARK                         _______ _______ _______ _____ _____    ______ ____
ROOT
ATOM      1  N   UNL     1       2.393   8.009  18.533  0.00  0.00    +0.000 N 
ATOM      2  N   UNL     1       2.305   7.254  19.716  0.00  0.00    +0.000 NA
ATOM      3  C   UNL     1       1.648   7.736  20.736  0.00  0.00    +0.000 A 
ATOM      4  C   UNL     1       0.964   8.993  20.643  0.00  0.00    +0.000 A 
ATOM      5  C   UNL     1       0.138   9.705  21.548  0.00  0.00    +0.000 A 
ATOM      6  C   UNL     1      -0.273   9.500  22.883  0.00  0.00    +0.000 A 
ATOM      7  C   UNL     1      -1.146  10.414  23.487  0.00  0.00    +0.000 A 
ATOM      8  C   UNL     1      -1.619  11.514  22.780  0.00  0.00    +0.000 A 
ATOM      9  C   UNL     1      -1.227  11.740  21.459  0.00  0.00    +0.000 A 
ATOM     10  C   UNL     1      -0.340  10.829  20.861  0.00  0.00    +0.000 A 
ATOM     11  N   UNL     1       0.183  10.778  19.574  0.00  0.00    +0.000 N 
ATOM     12  C   UNL     1       1.060   9.726  19.483  0.00  0.00    +0.000 A 
ATOM     13  C   UNL     1       1.900   9.321  18.388  0.00  0.00    +0.000 A 
ATOM     14  O   UNL     1       2.157  10.033  17.423  0.00  0.00    +0.000 OA
ENDROOT
BRANCH   1  15
ATOM     15  C   UNL     1       3.207   7.456  17.457  0.00  0.00    +0.000 C 
BRANCH  15  17
ATOM     16  O   UNL     1       4.626   5.564  17.941  0.00  0.00    +0.000 OA
ATOM     17  C   UNL     1       3.501   5.964  17.642  0.00  0.00    +0.000 C 
ATOM     18  N   UNL     1       2.414   5.124  17.595  0.00  0.00    +0.000 N 
ATOM     19  H   UNL     1       1.489   5.513  17.451  0.00  0.00    +0.000 HD
BRANCH  18  20
ATOM     20  C   UNL     1       2.524   3.689  17.752  0.00  0.00    +0.000 C 
BRANCH  20  21
ATOM     21  C   UNL     1       2.388   3.263  19.194  0.00  0.00    +0.000 A 
ATOM     22  C   UNL     1       1.157   3.355  19.842  0.00  0.00    +0.000 A 
ATOM     23  C   UNL     1       1.068   2.966  21.176  0.00  0.00    +0.000 A 
ATOM     24  C   UNL     1       2.198   2.487  21.823  0.00  0.00    +0.000 A 
ATOM     25  C   UNL     1       3.380   2.410  21.105  0.00  0.00    +0.000 A 
ATOM     26  N   UNL     1       3.499   2.780  19.810  0.00  0.00    +0.000 NA
ENDBRANCH  20  21
ENDBRANCH  18  20
ENDBRANCH  15  17
ENDBRANCH   1  15
BRANCH  11  27
ATOM     27  C   UNL     1      -0.242  11.623  18.460  0.00  0.00    +0.000 C 
BRANCH  27  28
ATOM     28  C   UNL     1      -1.591  11.187  17.927  0.00  0.00    +0.000 A 
ATOM     29  C   UNL     1      -1.715  10.065  17.091  0.00  0.00    +0.000 A 
ATOM     30  C   UNL     1      -2.952   9.703  16.557  0.00  0.00    +0.000 A 
ATOM     31  C   UNL     1      -4.088  10.445  16.868  0.00  0.00    +0.000 A 
ATOM     32  C   UNL     1      -3.989  11.536  17.728  0.00  0.00    +0.000 A 
ATOM     33  C   UNL     1      -2.749  11.908  18.253  0.00  0.00    +0.000 A 
ENDBRANCH  27  28
ENDBRANCH  11  27
TORSDOF 6
ENDMDL
MODEL 4
REMARK VINA RESULT:      -9.1      0.485      1.203
REMARK  Name = 
REMARK  6 active torsions:
REMARK  status: ('A' for Active; 'I' for Inactive)
REMARK    1  A    between atoms: C_2  and  C_3
REMARK    2  A    between atoms: C_3  and  N_4
REMARK    3  A    between atoms: N_14  and  C_15
REMARK    4  A    between atoms: C_15  and  C_16
REMARK    5  A    between atoms: N_25  and  C_26
REMARK    6  A    between atoms: C_26  and  C_27
REMARK                            x       y       z     vdW  Elec       q    Type
REMARK                         _______ _______ _______ _____ _____    ______ ____
ROOT
ATOM      1  N   UNL     1       1.976   9.063  19.106  0.00  0.00    +0.000 N 
ATOM      2  N   UNL     1       1.417   8.785  20.365  0.00  0.00    +0.000 NA
ATOM      3  C   UNL     1       1.417   7.557  20.809  0.00  0.00    +0.000 A 
ATOM      4  C   UNL     1       2.033   6.504  20.058  0.00  0.00    +0.000 A 
ATOM      5  C   UNL     1       2.235   5.126  20.325  0.00  0.00    +0.000 A 
ATOM      6  C   UNL     1       1.863   4.256  21.372  0.00  0.00    +0.000 A 
ATOM      7  C   UNL     1       2.265   2.915  21.335  0.00  0.00    +0.000 A 
ATOM      8  C   UNL     1       3.037   2.437  20.282  0.00  0.00    +0.000 A 
ATOM      9  C   UNL     1       3.418   3.276  19.233  0.00  0.00    +0.000 A 
ATOM     10  C   UNL     1       3.000   4.617  19.266  0.00  0.00    +0.000 A 
ATOM     11  N   UNL     1       3.255   5.672  18.398  0.00  0.00    +0.000 N 
ATOM     12  C   UNL     1       2.573   6.785  18.824  0.00  0.00    +0.000 A 
ATOM     13  C   UNL     1       2.460   8.082  18.216  0.00  0.00    +0.000 A 
ATOM     14  O   UNL     1       2.759   8.321  17.051  0.00  0.00    +0.000 OA
ENDROOT
BRANCH   1  15
ATOM     15  C   UNL     1       1.875  10.436  18.628  0.00  0.00    +0.000 C 
BRANCH  15  17
ATOM     16  O   UNL     1       0.288  12.245  18.837  0.00  0.00    +0.000 OA
ATOM     17  C   UNL     1       0.474  11.027  18.811  0.00  0.00    +0.000 C 
ATOM     18  N   UNL     1      -0.567  10.129  18.801  0.00  0.00    +0.000 N 
ATOM     19  H   UNL     1      -0.372   9.142  18.670  0.00  0.00    +0.000 HD
BRANCH  18  20
ATOM     20  C   UNL     1      -1.949  10.528  18.962  0.00  0.00    +0.000 C 
BRANCH  20  21
ATOM     21  C   UNL     1      -2.674  10.608  17.639  0.00  0.00    +0.000 A 
ATOM     22  C   UNL     1      -3.827  11.381  17.514  0.00  0.00    +0.000 A 
ATOM     23  C   UNL     1      -4.479  11.424  16.284  0.00  0.00    +0.000 A 
ATOM     24  C   UNL     1      -3.960  10.710  15.213  0.00  0.00    +0.000 A 
ATOM     25  C   UNL     1      -2.801   9.980  15.414  0.00  0.00    +0.000 A 
ATOM     26  N   UNL     1      -2.145   9.917  16.595  0.00  0.00    +0.000 NA
ENDBRANCH  20  21
ENDBRANCH  18  20
ENDBRANCH  15  17
ENDBRANCH   1  15
BRANCH  11  27
ATOM     27  C   UNL     1       4.208   5.638  17.290  0.00  0.00    +0.000 C 
BRANCH  27  28
ATOM     28  C   UNL     1       5.575   6.117  17.731  0.00  0.00    +0.000 A 
ATOM     29  C   UNL     1       6.168   7.254  17.157  0.00  0.00    +0.000 A 
ATOM     30  C   UNL     1       7.452   7.657  17.526  0.00  0.00    +0.000 A 
ATOM     31  C   UNL     1       8.155   6.941  18.491  0.00  0.00    +0.000 A 
ATOM     32  C   UNL     1       7.565   5.836  19.100  0.00  0.00    +0.000 A 
ATOM     33  C   UNL     1       6.285   5.423  18.722  0.00  0.00    +0.000 A 
ENDBRANCH  27  28
ENDBRANCH  11  27
TORSDOF 6
ENDMDL
MODEL 5
REMARK VINA RESULT:      -9.0      1.861      2.898
REMARK  Name = 
REMARK  6 active torsions:
REMARK  status: ('A' for Active; 'I' for Inactive)
REMARK    1  A    between atoms: C_2  and  C_3
REMARK    2  A    between atoms: C_3  and  N_4
REMARK    3  A    between atoms: N_14  and  C_15
REMARK    4  A    between atoms: C_15  and  C_16
REMARK    5  A    between atoms: N_25  and  C_26
REMARK    6  A    between atoms: C_26  and  C_27
REMARK                            x       y       z     vdW  Elec       q    Type
REMARK                         _______ _______ _______ _____ _____    ______ ____
ROOT
ATOM      1  N   UNL     1       1.866   8.868  19.011  0.00  0.00    +0.000 N 
ATOM      2  N   UNL     1       1.317   8.604  20.278  0.00  0.00    +0.000 NA
ATOM      3  C   UNL     1       1.384   7.394  20.766  0.00  0.00    +0.000 A 
ATOM      4  C   UNL     1       2.066   6.352  20.057  0.00  0.00    +0.000 A 
ATOM      5  C   UNL     1       2.345   4.999  20.375  0.00  0.00    +0.000 A 
ATOM      6  C   UNL     1       2.017   4.148  21.451  0.00  0.00    +0.000 A 
ATOM      7  C   UNL     1       2.496   2.832  21.465  0.00  0.00    +0.000 A 
ATOM      8  C   UNL     1       3.301   2.361  20.434  0.00  0.00    +0.000 A 
ATOM      9  C   UNL     1       3.640   3.183  19.357  0.00  0.00    +0.000 A 
ATOM     10  C   UNL     1       3.145   4.497  19.339  0.00  0.00    +0.000 A 
ATOM     11  N   UNL     1       3.344   5.533  18.434  0.00  0.00    +0.000 N 
ATOM     12  C   UNL     1       2.596   6.619  18.816  0.00  0.00    +0.000 A 
ATOM     13  C   UNL     1       2.412   7.885  18.160  0.00  0.00    +0.000 A 
ATOM     14  O   UNL     1       2.705   8.099  16.989  0.00  0.00    +0.000 OA
ENDROOT
BRANCH   1  15
ATOM     15  C   UNL     1       1.690  10.215  18.483  0.00  0.00    +0.000 C 
BRANCH  15  17
ATOM     16  O   UNL     1      -0.631  10.036  17.841  0.00  0.00    +0.000 OA
ATOM     17  C   UNL     1       0.224  10.660  18.471  0.00  0.00    +0.000 C 
ATOM     18  N   UNL     1      -0.099  11.701  19.309  0.00  0.00    +0.000 N 
ATOM     19  H   UNL     1       0.623  12.115  19.889  0.00  0.00    +0.000 HD
BRANCH  18  20
ATOM     20  C   UNL     1      -1.439  12.238  19.413  0.00  0.00    +0.000 C 
BRANCH  20  21
ATOM     21  C   UNL     1      -1.955  12.206  20.832  0.00  0.00    +0.000 A 
ATOM     22  C   UNL     1      -1.221  11.574  21.833  0.00  0.00    +0.000 A 
ATOM     23  C   UNL     1      -1.731  11.552  23.130  0.00  0.00    +0.000 A 
ATOM     24  C   UNL     1      -2.946  12.167  23.394  0.00  0.00    +0.000 A 
ATOM     25  C   UNL     1      -3.606  12.789  22.347  0.00  0.00    +0.000 A 
ATOM     26  N   UNL     1      -3.138  12.828  21.079  0.00  0.00    +0.000 NA
ENDBRANCH  20  21
ENDBRANCH  18  20
ENDBRANCH  15  17
ENDBRANCH   1  15
BRANCH  11  27
ATOM     27  C   UNL     1       4.305   5.514  17.332  0.00  0.00    +0.000 C 
BRANCH  27  28
ATOM     28  C   UNL     1       5.654   6.039  17.775  0.00  0.00    +0.000 A 
ATOM     29  C   UNL     1       6.237   7.160  17.162  0.00  0.00    +0.000 A 
ATOM     30  C   UNL     1       7.506   7.604  17.535  0.00  0.00    +0.000 A 
ATOM     31  C   UNL     1       8.204   6.945  18.543  0.00  0.00    +0.000 A 
ATOM     32  C   UNL     1       7.623   5.856  19.190  0.00  0.00    +0.000 A 
ATOM     33  C   UNL     1       6.358   5.403  18.808  0.00  0.00    +0.000 A 
ENDBRANCH  27  28
ENDBRANCH  11  27
TORSDOF 6
ENDMDL
MODEL 6
REMARK VINA RESULT:      -9.0      1.881      2.862
REMARK  Name = 
REMARK  6 active torsions:
REMARK  status: ('A' for Active; 'I' for Inactive)
REMARK    1  A    between atoms: C_2  and  C_3
REMARK    2  A    between atoms: C_3  and  N_4
REMARK    3  A    between atoms: N_14  and  C_15
REMARK    4  A    between atoms: C_15  and  C_16
REMARK    5  A    between atoms: N_25  and  C_26
REMARK    6  A    between atoms: C_26  and  C_27
REMARK                            x       y       z     vdW  Elec       q    Type
REMARK                         _______ _______ _______ _____ _____    ______ ____
ROOT
ATOM      1  N   UNL     1       1.866   8.883  19.025  0.00  0.00    +0.000 N 
ATOM      2  N   UNL     1       1.337   8.615  20.299  0.00  0.00    +0.000 NA
ATOM      3  C   UNL     1       1.408   7.403  20.781  0.00  0.00    +0.000 A 
ATOM      4  C   UNL     1       2.074   6.362  20.055  0.00  0.00    +0.000 A 
ATOM      5  C   UNL     1       2.354   5.006  20.362  0.00  0.00    +0.000 A 
ATOM      6  C   UNL     1       2.041   4.151  21.440  0.00  0.00    +0.000 A 
ATOM      7  C   UNL     1       2.516   2.833  21.440  0.00  0.00    +0.000 A 
ATOM      8  C   UNL     1       3.302   2.365  20.393  0.00  0.00    +0.000 A 
ATOM      9  C   UNL     1       3.626   3.190  19.314  0.00  0.00    +0.000 A 
ATOM     10  C   UNL     1       3.136   4.507  19.311  0.00  0.00    +0.000 A 
ATOM     11  N   UNL     1       3.323   5.546  18.408  0.00  0.00    +0.000 N 
ATOM     12  C   UNL     1       2.585   6.633  18.807  0.00  0.00    +0.000 A 
ATOM     13  C   UNL     1       2.394   7.903  18.161  0.00  0.00    +0.000 A 
ATOM     14  O   UNL     1       2.669   8.121  16.985  0.00  0.00    +0.000 OA
ENDROOT
BRANCH   1  15
ATOM     15  C   UNL     1       1.686  10.233  18.507  0.00  0.00    +0.000 C 
BRANCH  15  17
ATOM     16  O   UNL     1      -0.642  10.031  17.895  0.00  0.00    +0.000 OA
ATOM     17  C   UNL     1       0.218  10.674  18.498  0.00  0.00    +0.000 C 
ATOM     18  N   UNL     1      -0.098  11.737  19.311  0.00  0.00    +0.000 N 
ATOM     19  H   UNL     1       0.628  12.168  19.872  0.00  0.00    +0.000 HD
BRANCH  18  20
ATOM     20  C   UNL     1      -1.439  12.273  19.416  0.00  0.00    +0.000 C 
BRANCH  20  21
ATOM     21  C   UNL     1      -1.965  12.217  20.830  0.00  0.00    +0.000 A 
ATOM     22  C   UNL     1      -3.206  12.767  21.142  0.00  0.00    +0.000 A 
ATOM     23  C   UNL     1      -3.656  12.710  22.459  0.00  0.00    +0.000 A 
ATOM     24  C   UNL     1      -2.867  12.097  23.423  0.00  0.00    +0.000 A 
ATOM     25  C   UNL     1      -1.654  11.559  23.028  0.00  0.00    +0.000 A 
ATOM     26  N   UNL     1      -1.189  11.598  21.759  0.00  0.00    +0.000 NA
ENDBRANCH  20  21
ENDBRANCH  18  20
ENDBRANCH  15  17
ENDBRANCH   1  15
BRANCH  11  27
ATOM     27  C   UNL     1       4.265   5.530  17.290  0.00  0.00    +0.000 C 
BRANCH  27  28
ATOM     28  C   UNL     1       5.637   5.998  17.726  0.00  0.00    +0.000 A 
ATOM     29  C   UNL     1       6.351   5.325  18.731  0.00  0.00    +0.000 A 
ATOM     30  C   UNL     1       7.590   5.794  19.169  0.00  0.00    +0.000 A 
ATOM     31  C   UNL     1       8.144   6.934  18.593  0.00  0.00    +0.000 A 
ATOM     32  C   UNL     1       7.468   7.590  17.567  0.00  0.00    +0.000 A 
ATOM     33  C   UNL     1       6.222   7.129  17.137  0.00  0.00    +0.000 A 
ENDBRANCH  27  28
ENDBRANCH  11  27
TORSDOF 6
ENDMDL
MODEL 7
REMARK VINA RESULT:      -8.9      1.097      1.517
REMARK  Name = 
REMARK  6 active torsions:
REMARK  status: ('A' for Active; 'I' for Inactive)
REMARK    1  A    between atoms: C_2  and  C_3
REMARK    2  A    between atoms: C_3  and  N_4
REMARK    3  A    between atoms: N_14  and  C_15
REMARK    4  A    between atoms: C_15  and  C_16
REMARK    5  A    between atoms: N_25  and  C_26
REMARK    6  A    between atoms: C_26  and  C_27
REMARK                            x       y       z     vdW  Elec       q    Type
REMARK                         _______ _______ _______ _____ _____    ______ ____
ROOT
ATOM      1  N   UNL     1       1.847   8.174  19.870  0.00  0.00    +0.000 N 
ATOM      2  N   UNL     1       1.285   7.350  20.861  0.00  0.00    +0.000 NA
ATOM      3  C   UNL     1       1.364   6.053  20.736  0.00  0.00    +0.000 A 
ATOM      4  C   UNL     1       2.070   5.461  19.638  0.00  0.00    +0.000 A 
ATOM      5  C   UNL     1       2.365   4.116  19.300  0.00  0.00    +0.000 A 
ATOM      6  C   UNL     1       2.036   2.862  19.856  0.00  0.00    +0.000 A 
ATOM      7  C   UNL     1       2.534   1.692  19.269  0.00  0.00    +0.000 A 
ATOM      8  C   UNL     1       3.359   1.757  18.151  0.00  0.00    +0.000 A 
ATOM      9  C   UNL     1       3.700   2.986  17.582  0.00  0.00    +0.000 A 
ATOM     10  C   UNL     1       3.186   4.156  18.164  0.00  0.00    +0.000 A 
ATOM     11  N   UNL     1       3.381   5.494  17.844  0.00  0.00    +0.000 N 
ATOM     12  C   UNL     1       2.612   6.276  18.671  0.00  0.00    +0.000 A 
ATOM     13  C   UNL     1       2.418   7.700  18.671  0.00  0.00    +0.000 A 
ATOM     14  O   UNL     1       2.722   8.433  17.736  0.00  0.00    +0.000 OA
ENDROOT
BRANCH   1  15
ATOM     15  C   UNL     1       1.657   9.611  20.021  0.00  0.00    +0.000 C 
BRANCH  15  17
ATOM     16  O   UNL     1      -0.327   9.945  21.356  0.00  0.00    +0.000 OA
ATOM     17  C   UNL     1       0.190   9.996  20.240  0.00  0.00    +0.000 C 
ATOM     18  N   UNL     1      -0.463  10.531  19.155  0.00  0.00    +0.000 N 
ATOM     19  H   UNL     1       0.039  10.652  18.282  0.00  0.00    +0.000 HD
BRANCH  18  20
ATOM     20  C   UNL     1      -1.849  10.945  19.199  0.00  0.00    +0.000 C 
BRANCH  20  21
ATOM     21  C   UNL     1      -2.530  10.794  17.860  0.00  0.00    +0.000 A 
ATOM     22  C   UNL     1      -1.992   9.954  16.887  0.00  0.00    +0.000 A 
ATOM     23  C   UNL     1      -2.637   9.846  15.658  0.00  0.00    +0.000 A 
ATOM     24  C   UNL     1      -3.803  10.565  15.436  0.00  0.00    +0.000 A 
ATOM     25  C   UNL     1      -4.283  11.364  16.459  0.00  0.00    +0.000 A 
ATOM     26  N   UNL     1      -3.680  11.490  17.663  0.00  0.00    +0.000 NA
ENDBRANCH  20  21
ENDBRANCH  18  20
ENDBRANCH  15  17
ENDBRANCH   1  15
BRANCH  11  27
ATOM     27  C   UNL     1       4.356   5.994  16.876  0.00  0.00    +0.000 C 
BRANCH  27  28
ATOM     28  C   UNL     1       5.681   6.295  17.542  0.00  0.00    +0.000 A 
ATOM     29  C   UNL     1       6.461   7.396  17.148  0.00  0.00    +0.000 A 
ATOM     30  C   UNL     1       7.708   7.636  17.726  0.00  0.00    +0.000 A 
ATOM     31  C   UNL     1       8.187   6.789  18.721  0.00  0.00    +0.000 A 
ATOM     32  C   UNL     1       7.409   5.717  19.152  0.00  0.00    +0.000 A 
ATOM     33  C   UNL     1       6.166   5.468  18.565  0.00  0.00    +0.000 A 
ENDBRANCH  27  28
ENDBRANCH  11  27
TORSDOF 6
ENDMDL
MODEL 8
REMARK VINA RESULT:      -8.6      1.234      1.901
REMARK  Name = 
REMARK  6 active torsions:
REMARK  status: ('A' for Active; 'I' for Inactive)
REMARK    1  A    between atoms: C_2  and  C_3
REMARK    2  A    between atoms: C_3  and  N_4
REMARK    3  A    between atoms: N_14  and  C_15
REMARK    4  A    between atoms: C_15  and  C_16
REMARK    5  A    between atoms: N_25  and  C_26
REMARK    6  A    between atoms: C_26  and  C_27
REMARK                            x       y       z     vdW  Elec       q    Type
REMARK                         _______ _______ _______ _____ _____    ______ ____
ROOT
ATOM      1  N   UNL     1       1.774   8.976  18.960  0.00  0.00    +0.000 N 
ATOM      2  N   UNL     1       1.218   8.713  20.224  0.00  0.00    +0.000 NA
ATOM      3  C   UNL     1       1.285   7.505  20.715  0.00  0.00    +0.000 A 
ATOM      4  C   UNL     1       1.971   6.462  20.011  0.00  0.00    +0.000 A 
ATOM      5  C   UNL     1       2.251   5.110  20.333  0.00  0.00    +0.000 A 
ATOM      6  C   UNL     1       1.918   4.261  21.409  0.00  0.00    +0.000 A 
ATOM      7  C   UNL     1       2.399   2.945  21.428  0.00  0.00    +0.000 A 
ATOM      8  C   UNL     1       3.210   2.474  20.402  0.00  0.00    +0.000 A 
ATOM      9  C   UNL     1       3.554   3.294  19.325  0.00  0.00    +0.000 A 
ATOM     10  C   UNL     1       3.057   4.607  19.302  0.00  0.00    +0.000 A 
ATOM     11  N   UNL     1       3.259   5.642  18.396  0.00  0.00    +0.000 N 
ATOM     12  C   UNL     1       2.508   6.728  18.772  0.00  0.00    +0.000 A 
ATOM     13  C   UNL     1       2.326   7.993  18.113  0.00  0.00    +0.000 A 
ATOM     14  O   UNL     1       2.624   8.204  16.943  0.00  0.00    +0.000 OA
ENDROOT
BRANCH   1  15
ATOM     15  C   UNL     1       1.599  10.322  18.428  0.00  0.00    +0.000 C 
BRANCH  15  17
ATOM     16  O   UNL     1       1.386  11.833  20.300  0.00  0.00    +0.000 OA
ATOM     17  C   UNL     1       0.823  11.239  19.380  0.00  0.00    +0.000 C 
ATOM     18  N   UNL     1      -0.495  11.466  19.060  0.00  0.00    +0.000 N 
ATOM     19  H   UNL     1      -0.887  11.036  18.229  0.00  0.00    +0.000 HD
BRANCH  18  20
ATOM     20  C   UNL     1      -1.362  12.308  19.857  0.00  0.00    +0.000 C 
BRANCH  20  21
ATOM     21  C   UNL     1      -2.814  12.150  19.475  0.00  0.00    +0.000 A 
ATOM     22  C   UNL     1      -3.814  12.724  20.257  0.00  0.00    +0.000 A 
ATOM     23  C   UNL     1      -5.145  12.549  19.884  0.00  0.00    +0.000 A 
ATOM     24  C   UNL     1      -5.441  11.821  18.740  0.00  0.00    +0.000 A 
ATOM     25  C   UNL     1      -4.389  11.298  18.007  0.00  0.00    +0.000 A 
ATOM     26  N   UNL     1      -3.089  11.449  18.343  0.00  0.00    +0.000 NA
ENDBRANCH  20  21
ENDBRANCH  18  20
ENDBRANCH  15  17
ENDBRANCH   1  15
BRANCH  11  27
ATOM     27  C   UNL     1       4.226   5.623  17.300  0.00  0.00    +0.000 C 
BRANCH  27  28
ATOM     28  C   UNL     1       5.590   6.083  17.766  0.00  0.00    +0.000 A 
ATOM     29  C   UNL     1       6.229   7.186  17.175  0.00  0.00    +0.000 A 
ATOM     30  C   UNL     1       7.510   7.570  17.570  0.00  0.00    +0.000 A 
ATOM     31  C   UNL     1       8.166   6.869  18.577  0.00  0.00    +0.000 A 
ATOM     32  C   UNL     1       7.532   5.798  19.203  0.00  0.00    +0.000 A 
ATOM     33  C   UNL     1       6.253   5.405  18.799  0.00  0.00    +0.000 A 
ENDBRANCH  27  28
ENDBRANCH  11  27
TORSDOF 6
ENDMDL
MODEL 9
REMARK VINA RESULT:      -8.6      2.717      7.966
REMARK  Name = 
REMARK  6 active torsions:
REMARK  status: ('A' for Active; 'I' for Inactive)
REMARK    1  A    between atoms: C_2  and  C_3
REMARK    2  A    between atoms: C_3  and  N_4
REMARK    3  A    between atoms: N_14  and  C_15
REMARK    4  A    between atoms: C_15  and  C_16
REMARK    5  A    between atoms: N_25  and  C_26
REMARK    6  A    between atoms: C_26  and  C_27
REMARK                            x       y       z     vdW  Elec       q    Type
REMARK                         _______ _______ _______ _____ _____    ______ ____
ROOT
ATOM      1  N   UNL     1       2.408   8.033  18.540  0.00  0.00    +0.000 N 
ATOM      2  N   UNL     1       2.257   7.278  19.715  0.00  0.00    +0.000 NA
ATOM      3  C   UNL     1       1.581   7.775  20.715  0.00  0.00    +0.000 A 
ATOM      4  C   UNL     1       0.939   9.052  20.605  0.00  0.00    +0.000 A 
ATOM      5  C   UNL     1       0.105   9.786  21.486  0.00  0.00    +0.000 A 
ATOM      6  C   UNL     1      -0.357   9.588  22.805  0.00  0.00    +0.000 A 
ATOM      7  C   UNL     1      -1.221  10.526  23.384  0.00  0.00    +0.000 A 
ATOM      8  C   UNL     1      -1.637  11.642  22.667  0.00  0.00    +0.000 A 
ATOM      9  C   UNL     1      -1.195  11.861  21.361  0.00  0.00    +0.000 A 
ATOM     10  C   UNL     1      -0.316  10.927  20.789  0.00  0.00    +0.000 A 
ATOM     11  N   UNL     1       0.248  10.864  19.520  0.00  0.00    +0.000 N 
ATOM     12  C   UNL     1       1.096   9.786  19.453  0.00  0.00    +0.000 A 
ATOM     13  C   UNL     1       1.959   9.361  18.385  0.00  0.00    +0.000 A 
ATOM     14  O   UNL     1       2.269  10.068  17.432  0.00  0.00    +0.000 OA
ENDROOT
BRANCH   1  15
ATOM     15  C   UNL     1       3.240   7.461  17.489  0.00  0.00    +0.000 C 
BRANCH  15  17
ATOM     16  O   UNL     1       4.646   5.614  18.153  0.00  0.00    +0.000 OA
ATOM     17  C   UNL     1       3.553   5.979  17.721  0.00  0.00    +0.000 C 
ATOM     18  N   UNL     1       2.503   5.106  17.555  0.00  0.00    +0.000 N 
ATOM     19  H   UNL     1       1.591   5.468  17.301  0.00  0.00    +0.000 HD
BRANCH  18  20
ATOM     20  C   UNL     1       2.635   3.676  17.738  0.00  0.00    +0.000 C 
BRANCH  20  21
ATOM     21  C   UNL     1       2.436   3.267  19.178  0.00  0.00    +0.000 A 
ATOM     22  C   UNL     1       1.183   3.385  19.776  0.00  0.00    +0.000 A 
ATOM     23  C   UNL     1       1.036   3.010  21.110  0.00  0.00    +0.000 A 
ATOM     24  C   UNL     1       2.133   2.520  21.804  0.00  0.00    +0.000 A 
ATOM     25  C   UNL     1       3.339   2.417  21.133  0.00  0.00    +0.000 A 
ATOM     26  N   UNL     1       3.515   2.772  19.841  0.00  0.00    +0.000 NA
ENDBRANCH  20  21
ENDBRANCH  18  20
ENDBRANCH  15  17
ENDBRANCH   1  15
BRANCH  11  27
ATOM     27  C   UNL     1      -0.114  11.726  18.396  0.00  0.00    +0.000 C 
BRANCH  27  28
ATOM     28  C   UNL     1       0.509  13.098  18.538  0.00  0.00    +0.000 A 
ATOM     29  C   UNL     1      -0.283  14.240  18.745  0.00  0.00    +0.000 A 
ATOM     30  C   UNL     1       0.292  15.509  18.818  0.00  0.00    +0.000 A 
ATOM     31  C   UNL     1       1.672  15.654  18.704  0.00  0.00    +0.000 A 
ATOM     32  C   UNL     1       2.476  14.529  18.539  0.00  0.00    +0.000 A 
ATOM     33  C   UNL     1       1.900  13.259  18.453  0.00  0.00    +0.000 A 
ENDBRANCH  27  28
ENDBRANCH  11  27
TORSDOF 6
ENDMDL
