MODEL 1
REMARK VINA RESULT:      -8.9      0.000      0.000
REMARK  Name = 
REMARK  10 active torsions:
REMARK  status: ('A' for Active; 'I' for Inactive)
REMARK    1  A    between atoms: C_1  and  C_2
REMARK    2  A    between atoms: C_5  and  C_6
REMARK    3  A    between atoms: C_6  and  N_7
REMARK    4  A    between atoms: C_9  and  C_10
REMARK    5  A    between atoms: N_12  and  C_13
REMARK    6  A    between atoms: C_18  and  C_19
REMARK    7  A    between atoms: C_20  and  C_21
REMARK    8  A    between atoms: C_20  and  C_22
REMARK    9  A    between atoms: C_24  and  C_25
REMARK   10  A    between atoms: C_30  and  C_31
REMARK                            x       y       z     vdW  Elec       q    Type
REMARK                         _______ _______ _______ _____ _____    ______ ____
ROOT
ATOM      1  N   UNL     1       1.219  11.233  18.865  0.00  0.00    +0.000 N 
ATOM      2  N   UNL     1       2.039  10.448  18.115  0.00  0.00    +0.000 NA
ATOM      3  C   UNL     1       1.777   9.195  18.523  0.00  0.00    +0.000 A 
ATOM      4  C   UNL     1       0.789   9.200  19.537  0.00  0.00    +0.000 A 
ATOM      5  C   UNL     1       0.449  10.525  19.775  0.00  0.00    +0.000 A 
ENDROOT
BRANCH   5   6
ATOM      6  C   UNL     1      -0.513  11.071  20.753  0.00  0.00    +0.000 A 
ATOM      7  C   UNL     1      -0.381  10.787  22.116  0.00  0.00    +0.000 A 
ATOM      8  C   UNL     1      -1.263  11.338  23.055  0.00  0.00    +0.000 A 
ATOM      9  C   UNL     1      -2.305  12.178  22.651  0.00  0.00    +0.000 A 
ATOM     10 CL   UNL     1      -3.334  12.830  23.873  0.00  0.00    +0.000 Cl
ATOM     11  C   UNL     1      -2.469  12.483  21.301  0.00  0.00    +0.000 A 
ATOM     12  C   UNL     1      -3.550  13.367  20.744  0.00  0.00    +0.000 C 
ATOM     13  C   UNL     1      -1.554  11.935  20.384  0.00  0.00    +0.000 A 
ENDBRANCH   5   6
BRANCH   3  14
ATOM     14  C   UNL     1       2.454   8.020  17.944  0.00  0.00    +0.000 C 
ATOM     15  O   UNL     1       3.321   8.121  17.073  0.00  0.00    +0.000 OA
ATOM     16  N   UNL     1       2.023   6.812  18.452  0.00  0.00    +0.000 N 
ATOM     17  H   UNL     1       1.358   6.885  19.216  0.00  0.00    +0.000 HD
BRANCH  16  18
ATOM     18  C   UNL     1       2.591   5.534  18.069  0.00  0.00    +0.000 C 
ATOM     19  C   UNL     1       1.511   4.483  17.725  0.00  0.00    +0.000 C 
ATOM     20  C   UNL     1       1.875   3.290  18.641  0.00  0.00    +0.000 C 
ATOM     21  C   UNL     1       1.457   3.692  20.071  0.00  0.00    +0.000 C 
ATOM     22  C   UNL     1       2.528   4.723  20.465  0.00  0.00    +0.000 C 
ATOM     23  C   UNL     1       3.415   4.809  19.189  0.00  0.00    +0.000 C 
ATOM     24  C   UNL     1       4.781   5.416  19.453  0.00  0.00    +0.000 C 
ATOM     25  C   UNL     1       3.423   3.325  18.692  0.00  0.00    +0.000 C 
ATOM     26  C   UNL     1       4.049   2.305  19.667  0.00  0.00    +0.000 C 
ATOM     27  C   UNL     1       4.103   3.078  17.330  0.00  0.00    +0.000 C 
ENDBRANCH  16  18
ENDBRANCH   3  14
BRANCH   1  28
ATOM     28  C   UNL     1       1.197  12.669  18.565  0.00  0.00    +0.000 C 
BRANCH  28  33
ATOM     29  C   UNL     1       5.523  15.749  21.000  0.00  0.00    +0.000 C 
ATOM     30  C   UNL     1       4.451  14.916  20.364  0.00  0.00    +0.000 A 
ATOM     31  C   UNL     1       4.333  14.844  18.974  0.00  0.00    +0.000 A 
ATOM     32  C   UNL     1       3.292  14.125  18.388  0.00  0.00    +0.000 A 
ATOM     33  C   UNL     1       2.350  13.445  19.175  0.00  0.00    +0.000 A 
ATOM     34  C   UNL     1       2.484  13.505  20.574  0.00  0.00    +0.000 A 
ATOM     35  C   UNL     1       3.528  14.228  21.159  0.00  0.00    +0.000 A 
ENDBRANCH  28  33
ENDBRANCH   1  28
TORSDOF 5
ENDMDL
MODEL 2
REMARK VINA RESULT:      -8.8      2.458      4.478
REMARK  Name = 
REMARK  10 active torsions:
REMARK  status: ('A' for Active; 'I' for Inactive)
REMARK    1  A    between atoms: C_1  and  C_2
REMARK    2  A    between atoms: C_5  and  C_6
REMARK    3  A    between atoms: C_6  and  N_7
REMARK    4  A    between atoms: C_9  and  C_10
REMARK    5  A    between atoms: N_12  and  C_13
REMARK    6  A    between atoms: C_18  and  C_19
REMARK    7  A    between atoms: C_20  and  C_21
REMARK    8  A    between atoms: C_20  and  C_22
REMARK    9  A    between atoms: C_24  and  C_25
REMARK   10  A    between atoms: C_30  and  C_31
REMARK                            x       y       z     vdW  Elec       q    Type
REMARK                         _______ _______ _______ _____ _____    ______ ____
ROOT
ATOM      1  N   UNL     1       0.718   9.872  19.517  0.00  0.00    +0.000 N 
ATOM      2  N   UNL     1       1.211   8.627  19.277  0.00  0.00    +0.000 NA
ATOM      3  C   UNL     1       1.372   8.085  20.496  0.00  0.00    +0.000 A 
ATOM      4  C   UNL     1       0.981   9.001  21.502  0.00  0.00    +0.000 A 
ATOM      5  C   UNL     1       0.582  10.168  20.864  0.00  0.00    +0.000 A 
ENDROOT
BRANCH   5   6
ATOM      6  C   UNL     1       0.109  11.433  21.462  0.00  0.00    +0.000 A 
ATOM      7  C   UNL     1       0.800  12.628  21.238  0.00  0.00    +0.000 A 
ATOM      8  C   UNL     1       0.332  13.839  21.764  0.00  0.00    +0.000 A 
ATOM      9  C   UNL     1      -0.833  13.882  22.537  0.00  0.00    +0.000 A 
ATOM     10 CL   UNL     1      -1.350  15.417  23.131  0.00  0.00    +0.000 Cl
ATOM     11  C   UNL     1      -1.547  12.710  22.784  0.00  0.00    +0.000 A 
ATOM     12  C   UNL     1      -2.806  12.626  23.601  0.00  0.00    +0.000 C 
ATOM     13  C   UNL     1      -1.066  11.513  22.222  0.00  0.00    +0.000 A 
ENDBRANCH   5   6
BRANCH   3  14
ATOM     14  C   UNL     1       1.883   6.715  20.688  0.00  0.00    +0.000 C 
ATOM     15  O   UNL     1       1.415   5.949  21.532  0.00  0.00    +0.000 OA
ATOM     16  N   UNL     1       2.929   6.380  19.853  0.00  0.00    +0.000 N 
ATOM     17  H   UNL     1       3.161   7.083  19.158  0.00  0.00    +0.000 HD
BRANCH  16  18
ATOM     18  C   UNL     1       3.546   5.068  19.829  0.00  0.00    +0.000 C 
ATOM     19  C   UNL     1       4.960   5.087  19.203  0.00  0.00    +0.000 C 
ATOM     20  C   UNL     1       4.869   4.013  18.094  0.00  0.00    +0.000 C 
ATOM     21  C   UNL     1       4.028   4.628  16.955  0.00  0.00    +0.000 C 
ATOM     22  C   UNL     1       2.602   4.602  17.529  0.00  0.00    +0.000 C 
ATOM     23  C   UNL     1       2.808   4.001  18.949  0.00  0.00    +0.000 C 
ATOM     24  C   UNL     1       1.527   3.464  19.560  0.00  0.00    +0.000 C 
ATOM     25  C   UNL     1       3.930   2.939  18.698  0.00  0.00    +0.000 C 
ATOM     26  C   UNL     1       3.556   1.801  17.724  0.00  0.00    +0.000 C 
ATOM     27  C   UNL     1       4.492   2.248  19.957  0.00  0.00    +0.000 C 
ENDBRANCH  16  18
ENDBRANCH   3  14
BRANCH   1  28
ATOM     28  C   UNL     1       0.330  10.681  18.355  0.00  0.00    +0.000 C 
BRANCH  28  33
ATOM     29  C   UNL     1      -5.420  11.206  17.474  0.00  0.00    +0.000 C 
ATOM     30  C   UNL     1      -3.956  11.048  17.753  0.00  0.00    +0.000 A 
ATOM     31  C   UNL     1      -3.281  11.964  18.563  0.00  0.00    +0.000 A 
ATOM     32  C   UNL     1      -1.905  11.853  18.762  0.00  0.00    +0.000 A 
ATOM     33  C   UNL     1      -1.169  10.816  18.169  0.00  0.00    +0.000 A 
ATOM     34  C   UNL     1      -1.857   9.886  17.370  0.00  0.00    +0.000 A 
ATOM     35  C   UNL     1      -3.236   9.999  17.171  0.00  0.00    +0.000 A 
ENDBRANCH  28  33
ENDBRANCH   1  28
TORSDOF 5
ENDMDL
MODEL 3
REMARK VINA RESULT:      -8.7      1.219      1.865
REMARK  Name = 
REMARK  10 active torsions:
REMARK  status: ('A' for Active; 'I' for Inactive)
REMARK    1  A    between atoms: C_1  and  C_2
REMARK    2  A    between atoms: C_5  and  C_6
REMARK    3  A    between atoms: C_6  and  N_7
REMARK    4  A    between atoms: C_9  and  C_10
REMARK    5  A    between atoms: N_12  and  C_13
REMARK    6  A    between atoms: C_18  and  C_19
REMARK    7  A    between atoms: C_20  and  C_21
REMARK    8  A    between atoms: C_20  and  C_22
REMARK    9  A    between atoms: C_24  and  C_25
REMARK   10  A    between atoms: C_30  and  C_31
REMARK                            x       y       z     vdW  Elec       q    Type
REMARK                         _______ _______ _______ _____ _____    ______ ____
ROOT
ATOM      1  N   UNL     1       1.712  11.208  18.287  0.00  0.00    +0.000 N 
ATOM      2  N   UNL     1       2.606  10.300  17.812  0.00  0.00    +0.000 NA
ATOM      3  C   UNL     1       2.091   9.106  18.153  0.00  0.00    +0.000 A 
ATOM      4  C   UNL     1       0.870   9.274  18.849  0.00  0.00    +0.000 A 
ATOM      5  C   UNL     1       0.641  10.639  18.957  0.00  0.00    +0.000 A 
ENDROOT
BRANCH   5   6
ATOM      6  C   UNL     1      -0.481  11.338  19.616  0.00  0.00    +0.000 A 
ATOM      7  C   UNL     1      -1.631  11.675  18.895  0.00  0.00    +0.000 A 
ATOM      8  C   UNL     1      -2.718  12.297  19.523  0.00  0.00    +0.000 A 
ATOM      9  C   UNL     1      -2.675  12.608  20.886  0.00  0.00    +0.000 A 
ATOM     10 CL   UNL     1      -4.063  13.356  21.586  0.00  0.00    +0.000 Cl
ATOM     11  C   UNL     1      -1.545  12.289  21.637  0.00  0.00    +0.000 A 
ATOM     12  C   UNL     1      -1.377  12.574  23.103  0.00  0.00    +0.000 C 
ATOM     13  C   UNL     1      -0.479  11.642  20.984  0.00  0.00    +0.000 A 
ENDBRANCH   5   6
BRANCH   3  14
ATOM     14  C   UNL     1       2.755   7.835  17.810  0.00  0.00    +0.000 C 
ATOM     15  O   UNL     1       3.831   7.794  17.210  0.00  0.00    +0.000 OA
ATOM     16  N   UNL     1       2.061   6.711  18.205  0.00  0.00    +0.000 N 
ATOM     17  H   UNL     1       1.227   6.896  18.754  0.00  0.00    +0.000 HD
BRANCH  16  18
ATOM     18  C   UNL     1       2.555   5.359  18.022  0.00  0.00    +0.000 C 
ATOM     19  C   UNL     1       1.419   4.341  17.767  0.00  0.00    +0.000 C 
ATOM     20  C   UNL     1       1.663   3.262  18.848  0.00  0.00    +0.000 C 
ATOM     21  C   UNL     1       1.217   3.879  20.191  0.00  0.00    +0.000 C 
ATOM     22  C   UNL     1       2.340   4.883  20.497  0.00  0.00    +0.000 C 
ATOM     23  C   UNL     1       3.281   4.741  19.266  0.00  0.00    +0.000 C 
ATOM     24  C   UNL     1       4.674   5.291  19.514  0.00  0.00    +0.000 C 
ATOM     25  C   UNL     1       3.207   3.206  18.970  0.00  0.00    +0.000 C 
ATOM     26  C   UNL     1       3.722   2.289  20.100  0.00  0.00    +0.000 C 
ATOM     27  C   UNL     1       3.922   2.736  17.687  0.00  0.00    +0.000 C 
ENDBRANCH  16  18
ENDBRANCH   3  14
BRANCH   1  28
ATOM     28  C   UNL     1       1.948  12.621  17.966  0.00  0.00    +0.000 C 
BRANCH  28  33
ATOM     29  C   UNL     1       0.990  16.132  22.534  0.00  0.00    +0.000 C 
ATOM     30  C   UNL     1       1.263  15.275  21.335  0.00  0.00    +0.000 A 
ATOM     31  C   UNL     1       0.472  15.380  20.189  0.00  0.00    +0.000 A 
ATOM     32  C   UNL     1       0.685  14.532  19.102  0.00  0.00    +0.000 A 
ATOM     33  C   UNL     1       1.704  13.567  19.126  0.00  0.00    +0.000 A 
ATOM     34  C   UNL     1       2.510  13.479  20.276  0.00  0.00    +0.000 A 
ATOM     35  C   UNL     1       2.294  14.330  21.364  0.00  0.00    +0.000 A 
ENDBRANCH  28  33
ENDBRANCH   1  28
TORSDOF 5
ENDMDL
MODEL 4
REMARK VINA RESULT:      -8.7      2.259      4.518
REMARK  Name = 
REMARK  10 active torsions:
REMARK  status: ('A' for Active; 'I' for Inactive)
REMARK    1  A    between atoms: C_1  and  C_2
REMARK    2  A    between atoms: C_5  and  C_6
REMARK    3  A    between atoms: C_6  and  N_7
REMARK    4  A    between atoms: C_9  and  C_10
REMARK    5  A    between atoms: N_12  and  C_13
REMARK    6  A    between atoms: C_18  and  C_19
REMARK    7  A    between atoms: C_20  and  C_21
REMARK    8  A    between atoms: C_20  and  C_22
REMARK    9  A    between atoms: C_24  and  C_25
REMARK   10  A    between atoms: C_30  and  C_31
REMARK                            x       y       z     vdW  Elec       q    Type
REMARK                         _______ _______ _______ _____ _____    ______ ____
ROOT
ATOM      1  N   UNL     1       0.758   9.922  19.524  0.00  0.00    +0.000 N 
ATOM      2  N   UNL     1       1.228   8.669  19.283  0.00  0.00    +0.000 NA
ATOM      3  C   UNL     1       1.397   8.129  20.502  0.00  0.00    +0.000 A 
ATOM      4  C   UNL     1       1.034   9.056  21.509  0.00  0.00    +0.000 A 
ATOM      5  C   UNL     1       0.645  10.226  20.871  0.00  0.00    +0.000 A 
ENDROOT
BRANCH   5   6
ATOM      6  C   UNL     1       0.201  11.501  21.470  0.00  0.00    +0.000 A 
ATOM      7  C   UNL     1      -0.844  11.524  22.399  0.00  0.00    +0.000 A 
ATOM      8  C   UNL     1      -1.241  12.724  23.006  0.00  0.00    +0.000 A 
ATOM      9  C   UNL     1      -0.609  13.930  22.689  0.00  0.00    +0.000 A 
ATOM     10 CL   UNL     1      -1.145  15.358  23.496  0.00  0.00    +0.000 Cl
ATOM     11  C   UNL     1       0.436  13.946  21.766  0.00  0.00    +0.000 A 
ATOM     12  C   UNL     1       1.189  15.176  21.340  0.00  0.00    +0.000 C 
ATOM     13  C   UNL     1       0.829  12.723  21.191  0.00  0.00    +0.000 A 
ENDBRANCH   5   6
BRANCH   3  14
ATOM     14  C   UNL     1       1.888   6.752  20.693  0.00  0.00    +0.000 C 
ATOM     15  O   UNL     1       1.403   5.989  21.530  0.00  0.00    +0.000 OA
ATOM     16  N   UNL     1       2.938   6.407  19.867  0.00  0.00    +0.000 N 
ATOM     17  H   UNL     1       3.186   7.110  19.177  0.00  0.00    +0.000 HD
BRANCH  16  18
ATOM     18  C   UNL     1       3.539   5.087  19.843  0.00  0.00    +0.000 C 
ATOM     19  C   UNL     1       4.950   5.088  19.213  0.00  0.00    +0.000 C 
ATOM     20  C   UNL     1       4.842   4.013  18.106  0.00  0.00    +0.000 C 
ATOM     21  C   UNL     1       4.005   4.636  16.969  0.00  0.00    +0.000 C 
ATOM     22  C   UNL     1       2.581   4.629  17.547  0.00  0.00    +0.000 C 
ATOM     23  C   UNL     1       2.784   4.028  18.968  0.00  0.00    +0.000 C 
ATOM     24  C   UNL     1       1.498   3.508  19.585  0.00  0.00    +0.000 C 
ATOM     25  C   UNL     1       3.892   2.951  18.716  0.00  0.00    +0.000 C 
ATOM     26  C   UNL     1       3.501   1.816  17.745  0.00  0.00    +0.000 C 
ATOM     27  C   UNL     1       4.450   2.256  19.974  0.00  0.00    +0.000 C 
ENDBRANCH  16  18
ENDBRANCH   3  14
BRANCH   1  28
ATOM     28  C   UNL     1       0.367  10.732  18.364  0.00  0.00    +0.000 C 
BRANCH  28  33
ATOM     29  C   UNL     1      -5.382  11.168  17.429  0.00  0.00    +0.000 C 
ATOM     30  C   UNL     1      -3.918  11.030  17.721  0.00  0.00    +0.000 A 
ATOM     31  C   UNL     1      -3.274  11.925  18.578  0.00  0.00    +0.000 A 
ATOM     32  C   UNL     1      -1.899  11.837  18.790  0.00  0.00    +0.000 A 
ATOM     33  C   UNL     1      -1.133  10.842  18.164  0.00  0.00    +0.000 A 
ATOM     34  C   UNL     1      -1.789   9.932  17.316  0.00  0.00    +0.000 A 
ATOM     35  C   UNL     1      -3.168  10.023  17.104  0.00  0.00    +0.000 A 
ENDBRANCH  28  33
ENDBRANCH   1  28
TORSDOF 5
ENDMDL
MODEL 5
REMARK VINA RESULT:      -8.7      0.882      1.182
REMARK  Name = 
REMARK  10 active torsions:
REMARK  status: ('A' for Active; 'I' for Inactive)
REMARK    1  A    between atoms: C_1  and  C_2
REMARK    2  A    between atoms: C_5  and  C_6
REMARK    3  A    between atoms: C_6  and  N_7
REMARK    4  A    between atoms: C_9  and  C_10
REMARK    5  A    between atoms: N_12  and  C_13
REMARK    6  A    between atoms: C_18  and  C_19
REMARK    7  A    between atoms: C_20  and  C_21
REMARK    8  A    between atoms: C_20  and  C_22
REMARK    9  A    between atoms: C_24  and  C_25
REMARK   10  A    between atoms: C_30  and  C_31
REMARK                            x       y       z     vdW  Elec       q    Type
REMARK                         _______ _______ _______ _____ _____    ______ ____
ROOT
ATOM      1  N   UNL     1       1.164  11.329  18.786  0.00  0.00    +0.000 N 
ATOM      2  N   UNL     1       1.985  10.532  18.050  0.00  0.00    +0.000 NA
ATOM      3  C   UNL     1       1.737   9.288  18.494  0.00  0.00    +0.000 A 
ATOM      4  C   UNL     1       0.758   9.312  19.516  0.00  0.00    +0.000 A 
ATOM      5  C   UNL     1       0.408  10.640  19.720  0.00  0.00    +0.000 A 
ENDROOT
BRANCH   5   6
ATOM      6  C   UNL     1      -0.552  11.203  20.692  0.00  0.00    +0.000 A 
ATOM      7  C   UNL     1      -0.311  11.110  22.066  0.00  0.00    +0.000 A 
ATOM      8  C   UNL     1      -1.193  11.683  22.992  0.00  0.00    +0.000 A 
ATOM      9  C   UNL     1      -2.344  12.352  22.565  0.00  0.00    +0.000 A 
ATOM     10 CL   UNL     1      -3.367  13.045  23.770  0.00  0.00    +0.000 Cl
ATOM     11  C   UNL     1      -2.618  12.464  21.203  0.00  0.00    +0.000 A 
ATOM     12  C   UNL     1      -3.822  13.153  20.622  0.00  0.00    +0.000 C 
ATOM     13  C   UNL     1      -1.702  11.901  20.296  0.00  0.00    +0.000 A 
ENDBRANCH   5   6
BRANCH   3  14
ATOM     14  C   UNL     1       2.420   8.104  17.942  0.00  0.00    +0.000 C 
ATOM     15  O   UNL     1       3.319   8.193  17.103  0.00  0.00    +0.000 OA
ATOM     16  N   UNL     1       1.956   6.902  18.435  0.00  0.00    +0.000 N 
ATOM     17  H   UNL     1       1.265   6.984  19.174  0.00  0.00    +0.000 HD
BRANCH  16  18
ATOM     18  C   UNL     1       2.522   5.616  18.074  0.00  0.00    +0.000 C 
ATOM     19  C   UNL     1       1.441   4.567  17.729  0.00  0.00    +0.000 C 
ATOM     20  C   UNL     1       1.785   3.383  18.663  0.00  0.00    +0.000 C 
ATOM     21  C   UNL     1       1.352   3.804  20.083  0.00  0.00    +0.000 C 
ATOM     22  C   UNL     1       2.424   4.834  20.478  0.00  0.00    +0.000 C 
ATOM     23  C   UNL     1       3.327   4.900  19.213  0.00  0.00    +0.000 C 
ATOM     24  C   UNL     1       4.693   5.502  19.488  0.00  0.00    +0.000 C 
ATOM     25  C   UNL     1       3.333   3.410  18.733  0.00  0.00    +0.000 C 
ATOM     26  C   UNL     1       3.941   2.398  19.729  0.00  0.00    +0.000 C 
ATOM     27  C   UNL     1       4.029   3.143  17.384  0.00  0.00    +0.000 C 
ENDBRANCH  16  18
ENDBRANCH   3  14
BRANCH   1  28
ATOM     28  C   UNL     1       1.127  12.757  18.447  0.00  0.00    +0.000 C 
BRANCH  28  33
ATOM     29  C   UNL     1       2.526  16.421  22.776  0.00  0.00    +0.000 C 
ATOM     30  C   UNL     1       2.152  15.440  21.705  0.00  0.00    +0.000 A 
ATOM     31  C   UNL     1       3.020  14.407  21.349  0.00  0.00    +0.000 A 
ATOM     32  C   UNL     1       2.699  13.540  20.305  0.00  0.00    +0.000 A 
ATOM     33  C   UNL     1       1.494  13.674  19.599  0.00  0.00    +0.000 A 
ATOM     34  C   UNL     1       0.615  14.706  19.973  0.00  0.00    +0.000 A 
ATOM     35  C   UNL     1       0.940  15.574  21.020  0.00  0.00    +0.000 A 
ENDBRANCH  28  33
ENDBRANCH   1  28
TORSDOF 5
ENDMDL
MODEL 6
REMARK VINA RESULT:      -8.7      2.232      4.385
REMARK  Name = 
REMARK  10 active torsions:
REMARK  status: ('A' for Active; 'I' for Inactive)
REMARK    1  A    between atoms: C_1  and  C_2
REMARK    2  A    between atoms: C_5  and  C_6
REMARK    3  A    between atoms: C_6  and  N_7
REMARK    4  A    between atoms: C_9  and  C_10
REMARK    5  A    between atoms: N_12  and  C_13
REMARK    6  A    between atoms: C_18  and  C_19
REMARK    7  A    between atoms: C_20  and  C_21
REMARK    8  A    between atoms: C_20  and  C_22
REMARK    9  A    between atoms: C_24  and  C_25
REMARK   10  A    between atoms: C_30  and  C_31
REMARK                            x       y       z     vdW  Elec       q    Type
REMARK                         _______ _______ _______ _____ _____    ______ ____
ROOT
ATOM      1  N   UNL     1       0.560  10.327  18.905  0.00  0.00    +0.000 N 
ATOM      2  N   UNL     1       1.261   9.318  18.321  0.00  0.00    +0.000 NA
ATOM      3  C   UNL     1       1.720   8.584  19.350  0.00  0.00    +0.000 A 
ATOM      4  C   UNL     1       1.305   9.143  20.582  0.00  0.00    +0.000 A 
ATOM      5  C   UNL     1       0.575  10.288  20.290  0.00  0.00    +0.000 A 
ENDROOT
BRANCH   5   6
ATOM      6  C   UNL     1      -0.055  11.245  21.223  0.00  0.00    +0.000 A 
ATOM      7  C   UNL     1      -1.010  10.812  22.148  0.00  0.00    +0.000 A 
ATOM      8  C   UNL     1      -1.578  11.705  23.066  0.00  0.00    +0.000 A 
ATOM      9  C   UNL     1      -1.212  13.055  23.073  0.00  0.00    +0.000 A 
ATOM     10 CL   UNL     1      -1.945  14.083  24.249  0.00  0.00    +0.000 Cl
ATOM     11  C   UNL     1      -0.264  13.523  22.165  0.00  0.00    +0.000 A 
ATOM     12  C   UNL     1       0.207  14.947  22.071  0.00  0.00    +0.000 C 
ATOM     13  C   UNL     1       0.307  12.598  21.271  0.00  0.00    +0.000 A 
ENDBRANCH   5   6
BRANCH   3  14
ATOM     14  C   UNL     1       2.531   7.369  19.150  0.00  0.00    +0.000 C 
ATOM     15  O   UNL     1       3.359   7.271  18.242  0.00  0.00    +0.000 OA
ATOM     16  N   UNL     1       2.270   6.360  20.054  0.00  0.00    +0.000 N 
ATOM     17  H   UNL     1       1.617   6.608  20.791  0.00  0.00    +0.000 HD
BRANCH  16  18
ATOM     18  C   UNL     1       2.990   5.101  20.079  0.00  0.00    +0.000 C 
ATOM     19  C   UNL     1       4.219   5.101  19.142  0.00  0.00    +0.000 C 
ATOM     20  C   UNL     1       3.988   3.854  18.257  0.00  0.00    +0.000 C 
ATOM     21  C   UNL     1       2.859   4.220  17.270  0.00  0.00    +0.000 C 
ATOM     22  C   UNL     1       1.606   4.205  18.161  0.00  0.00    +0.000 C 
ATOM     23  C   UNL     1       2.180   3.861  19.566  0.00  0.00    +0.000 C 
ATOM     24  C   UNL     1       1.126   3.358  20.534  0.00  0.00    +0.000 C 
ATOM     25  C   UNL     1       3.315   2.841  19.218  0.00  0.00    +0.000 C 
ATOM     26  C   UNL     1       2.845   1.537  18.538  0.00  0.00    +0.000 C 
ATOM     27  C   UNL     1       4.208   2.403  20.396  0.00  0.00    +0.000 C 
ENDBRANCH  16  18
ENDBRANCH   3  14
BRANCH   1  28
ATOM     28  C   UNL     1      -0.165  11.246  18.021  0.00  0.00    +0.000 C 
BRANCH  28  33
ATOM     29  C   UNL     1      -5.986  10.799  18.208  0.00  0.00    +0.000 C 
ATOM     30  C   UNL     1      -4.490  10.892  18.214  0.00  0.00    +0.000 A 
ATOM     31  C   UNL     1      -3.844  11.950  18.858  0.00  0.00    +0.000 A 
ATOM     32  C   UNL     1      -2.456  12.071  18.801  0.00  0.00    +0.000 A 
ATOM     33  C   UNL     1      -1.675  11.130  18.113  0.00  0.00    +0.000 A 
ATOM     34  C   UNL     1      -2.329  10.057  17.482  0.00  0.00    +0.000 A 
ATOM     35  C   UNL     1      -3.722   9.938  17.539  0.00  0.00    +0.000 A 
ENDBRANCH  28  33
ENDBRANCH   1  28
TORSDOF 5
ENDMDL
MODEL 7
REMARK VINA RESULT:      -8.6      2.021      4.294
REMARK  Name = 
REMARK  10 active torsions:
REMARK  status: ('A' for Active; 'I' for Inactive)
REMARK    1  A    between atoms: C_1  and  C_2
REMARK    2  A    between atoms: C_5  and  C_6
REMARK    3  A    between atoms: C_6  and  N_7
REMARK    4  A    between atoms: C_9  and  C_10
REMARK    5  A    between atoms: N_12  and  C_13
REMARK    6  A    between atoms: C_18  and  C_19
REMARK    7  A    between atoms: C_20  and  C_21
REMARK    8  A    between atoms: C_20  and  C_22
REMARK    9  A    between atoms: C_24  and  C_25
REMARK   10  A    between atoms: C_30  and  C_31
REMARK                            x       y       z     vdW  Elec       q    Type
REMARK                         _______ _______ _______ _____ _____    ______ ____
ROOT
ATOM      1  N   UNL     1       0.230  10.795  18.416  0.00  0.00    +0.000 N 
ATOM      2  N   UNL     1       0.830   9.833  17.664  0.00  0.00    +0.000 NA
ATOM      3  C   UNL     1       1.528   9.099  18.547  0.00  0.00    +0.000 A 
ATOM      4  C   UNL     1       1.365   9.611  19.857  0.00  0.00    +0.000 A 
ATOM      5  C   UNL     1       0.543  10.727  19.763  0.00  0.00    +0.000 A 
ENDROOT
BRANCH   5   6
ATOM      6  C   UNL     1       0.089  11.632  20.839  0.00  0.00    +0.000 A 
ATOM      7  C   UNL     1       0.697  12.878  21.023  0.00  0.00    +0.000 A 
ATOM      8  C   UNL     1       0.242  13.761  22.011  0.00  0.00    +0.000 A 
ATOM      9  C   UNL     1      -0.825  13.414  22.846  0.00  0.00    +0.000 A 
ATOM     10 CL   UNL     1      -1.336  14.567  24.023  0.00  0.00    +0.000 Cl
ATOM     11  C   UNL     1      -1.455  12.180  22.692  0.00  0.00    +0.000 A 
ATOM     12  C   UNL     1      -2.605  11.691  23.528  0.00  0.00    +0.000 C 
ATOM     13  C   UNL     1      -0.992  11.324  21.676  0.00  0.00    +0.000 A 
ENDBRANCH   5   6
BRANCH   3  14
ATOM     14  C   UNL     1       2.327   7.928  18.141  0.00  0.00    +0.000 C 
ATOM     15  O   UNL     1       3.442   8.036  17.628  0.00  0.00    +0.000 OA
ATOM     16  N   UNL     1       1.710   6.716  18.373  0.00  0.00    +0.000 N 
ATOM     17  H   UNL     1       0.826   6.776  18.867  0.00  0.00    +0.000 HD
BRANCH  16  18
ATOM     18  C   UNL     1       2.336   5.435  18.104  0.00  0.00    +0.000 C 
ATOM     19  C   UNL     1       1.307   4.328  17.777  0.00  0.00    +0.000 C 
ATOM     20  C   UNL     1       1.658   3.210  18.786  0.00  0.00    +0.000 C 
ATOM     21  C   UNL     1       1.155   3.689  20.164  0.00  0.00    +0.000 C 
ATOM     22  C   UNL     1       2.173   4.779  20.542  0.00  0.00    +0.000 C 
ATOM     23  C   UNL     1       3.122   4.812  19.309  0.00  0.00    +0.000 C 
ATOM     24  C   UNL     1       4.453   5.480  19.600  0.00  0.00    +0.000 C 
ATOM     25  C   UNL     1       3.200   3.300  18.912  0.00  0.00    +0.000 C 
ATOM     26  C   UNL     1       3.805   2.366  19.983  0.00  0.00    +0.000 C 
ATOM     27  C   UNL     1       3.957   2.988  17.605  0.00  0.00    +0.000 C 
ENDBRANCH  16  18
ENDBRANCH   3  14
BRANCH   1  28
ATOM     28  C   UNL     1      -0.706  11.699  17.735  0.00  0.00    +0.000 C 
BRANCH  28  33
ATOM     29  C   UNL     1      -6.360  10.512  18.597  0.00  0.00    +0.000 C 
ATOM     30  C   UNL     1      -4.897  10.795  18.430  0.00  0.00    +0.000 A 
ATOM     31  C   UNL     1      -4.316  11.921  19.018  0.00  0.00    +0.000 A 
ATOM     32  C   UNL     1      -2.972  12.218  18.801  0.00  0.00    +0.000 A 
ATOM     33  C   UNL     1      -2.167  11.390  18.002  0.00  0.00    +0.000 A 
ATOM     34  C   UNL     1      -2.753  10.248  17.427  0.00  0.00    +0.000 A 
ATOM     35  C   UNL     1      -4.102   9.953  17.646  0.00  0.00    +0.000 A 
ENDBRANCH  28  33
ENDBRANCH   1  28
TORSDOF 5
ENDMDL
MODEL 8
REMARK VINA RESULT:      -8.6      2.119      4.937
REMARK  Name = 
REMARK  10 active torsions:
REMARK  status: ('A' for Active; 'I' for Inactive)
REMARK    1  A    between atoms: C_1  and  C_2
REMARK    2  A    between atoms: C_5  and  C_6
REMARK    3  A    between atoms: C_6  and  N_7
REMARK    4  A    between atoms: C_9  and  C_10
REMARK    5  A    between atoms: N_12  and  C_13
REMARK    6  A    between atoms: C_18  and  C_19
REMARK    7  A    between atoms: C_20  and  C_21
REMARK    8  A    between atoms: C_20  and  C_22
REMARK    9  A    between atoms: C_24  and  C_25
REMARK   10  A    between atoms: C_30  and  C_31
REMARK                            x       y       z     vdW  Elec       q    Type
REMARK                         _______ _______ _______ _____ _____    ______ ____
ROOT
ATOM      1  N   UNL     1       0.759  10.514  19.217  0.00  0.00    +0.000 N 
ATOM      2  N   UNL     1       1.008   9.189  19.039  0.00  0.00    +0.000 NA
ATOM      3  C   UNL     1       2.107   9.151  18.267  0.00  0.00    +0.000 A 
ATOM      4  C   UNL     1       2.542  10.463  17.959  0.00  0.00    +0.000 A 
ATOM      5  C   UNL     1       1.649  11.343  18.555  0.00  0.00    +0.000 A 
ENDROOT
BRANCH   5   6
ATOM      6  C   UNL     1       1.642  12.820  18.515  0.00  0.00    +0.000 A 
ATOM      7  C   UNL     1       0.454  13.531  18.706  0.00  0.00    +0.000 A 
ATOM      8  C   UNL     1       0.447  14.932  18.716  0.00  0.00    +0.000 A 
ATOM      9  C   UNL     1       1.628  15.655  18.522  0.00  0.00    +0.000 A 
ATOM     10 CL   UNL     1       1.535  17.378  18.567  0.00  0.00    +0.000 Cl
ATOM     11  C   UNL     1       2.832  14.981  18.326  0.00  0.00    +0.000 A 
ATOM     12  C   UNL     1       4.163  15.643  18.103  0.00  0.00    +0.000 C 
ATOM     13  C   UNL     1       2.812  13.574  18.347  0.00  0.00    +0.000 A 
ENDBRANCH   5   6
BRANCH   3  14
ATOM     14  C   UNL     1       2.729   7.883  17.843  0.00  0.00    +0.000 C 
ATOM     15  O   UNL     1       3.736   7.847  17.133  0.00  0.00    +0.000 OA
ATOM     16  N   UNL     1       2.078   6.755  18.298  0.00  0.00    +0.000 N 
ATOM     17  H   UNL     1       1.307   6.936  18.933  0.00  0.00    +0.000 HD
BRANCH  16  18
ATOM     18  C   UNL     1       2.547   5.405  18.051  0.00  0.00    +0.000 C 
ATOM     19  C   UNL     1       1.389   4.402  17.843  0.00  0.00    +0.000 C 
ATOM     20  C   UNL     1       1.691   3.295  18.880  0.00  0.00    +0.000 C 
ATOM     21  C   UNL     1       1.337   3.880  20.263  0.00  0.00    +0.000 C 
ATOM     22  C   UNL     1       2.486   4.868  20.522  0.00  0.00    +0.000 C 
ATOM     23  C   UNL     1       3.346   4.750  19.231  0.00  0.00    +0.000 C 
ATOM     24  C   UNL     1       4.756   5.284  19.403  0.00  0.00    +0.000 C 
ATOM     25  C   UNL     1       3.239   3.224  18.901  0.00  0.00    +0.000 C 
ATOM     26  C   UNL     1       3.817   2.275  19.973  0.00  0.00    +0.000 C 
ATOM     27  C   UNL     1       3.867   2.781  17.564  0.00  0.00    +0.000 C 
ENDBRANCH  16  18
ENDBRANCH   3  14
BRANCH   1  28
ATOM     28  C   UNL     1      -0.336  10.880  20.125  0.00  0.00    +0.000 C 
BRANCH  28  33
ATOM     29  C   UNL     1      -5.365  11.810  17.304  0.00  0.00    +0.000 C 
ATOM     30  C   UNL     1      -4.104  11.540  18.068  0.00  0.00    +0.000 A 
ATOM     31  C   UNL     1      -3.798  12.268  19.219  0.00  0.00    +0.000 A 
ATOM     32  C   UNL     1      -2.591  12.062  19.886  0.00  0.00    +0.000 A 
ATOM     33  C   UNL     1      -1.664  11.113  19.429  0.00  0.00    +0.000 A 
ATOM     34  C   UNL     1      -1.986  10.369  18.280  0.00  0.00    +0.000 A 
ATOM     35  C   UNL     1      -3.197  10.578  17.612  0.00  0.00    +0.000 A 
ENDBRANCH  28  33
ENDBRANCH   1  28
TORSDOF 5
ENDMDL
MODEL 9
REMARK VINA RESULT:      -8.6      2.249      4.754
REMARK  Name = 
REMARK  10 active torsions:
REMARK  status: ('A' for Active; 'I' for Inactive)
REMARK    1  A    between atoms: C_1  and  C_2
REMARK    2  A    between atoms: C_5  and  C_6
REMARK    3  A    between atoms: C_6  and  N_7
REMARK    4  A    between atoms: C_9  and  C_10
REMARK    5  A    between atoms: N_12  and  C_13
REMARK    6  A    between atoms: C_18  and  C_19
REMARK    7  A    between atoms: C_20  and  C_21
REMARK    8  A    between atoms: C_20  and  C_22
REMARK    9  A    between atoms: C_24  and  C_25
REMARK   10  A    between atoms: C_30  and  C_31
REMARK                            x       y       z     vdW  Elec       q    Type
REMARK                         _______ _______ _______ _____ _____    ______ ____
ROOT
ATOM      1  N   UNL     1       0.748  10.489  19.158  0.00  0.00    +0.000 N 
ATOM      2  N   UNL     1       0.977   9.165  18.947  0.00  0.00    +0.000 NA
ATOM      3  C   UNL     1       2.107   9.128  18.220  0.00  0.00    +0.000 A 
ATOM      4  C   UNL     1       2.581  10.439  17.973  0.00  0.00    +0.000 A 
ATOM      5  C   UNL     1       1.682  11.320  18.561  0.00  0.00    +0.000 A 
ENDROOT
BRANCH   5   6
ATOM      6  C   UNL     1       1.707  12.797  18.569  0.00  0.00    +0.000 A 
ATOM      7  C   UNL     1       2.858  13.491  18.186  0.00  0.00    +0.000 A 
ATOM      8  C   UNL     1       2.875  14.892  18.147  0.00  0.00    +0.000 A 
ATOM      9  C   UNL     1       1.742  15.631  18.501  0.00  0.00    +0.000 A 
ATOM     10 CL   UNL     1       1.840  17.351  18.407  0.00  0.00    +0.000 Cl
ATOM     11  C   UNL     1       0.576  14.974  18.890  0.00  0.00    +0.000 A 
ATOM     12  C   UNL     1      -0.701  15.655  19.296  0.00  0.00    +0.000 C 
ATOM     13  C   UNL     1       0.582  13.566  18.895  0.00  0.00    +0.000 A 
ENDBRANCH   5   6
BRANCH   3  14
ATOM     14  C   UNL     1       2.720   7.861  17.781  0.00  0.00    +0.000 C 
ATOM     15  O   UNL     1       3.697   7.827  17.030  0.00  0.00    +0.000 OA
ATOM     16  N   UNL     1       2.097   6.733  18.272  0.00  0.00    +0.000 N 
ATOM     17  H   UNL     1       1.351   6.913  18.937  0.00  0.00    +0.000 HD
BRANCH  16  18
ATOM     18  C   UNL     1       2.565   5.384  18.016  0.00  0.00    +0.000 C 
ATOM     19  C   UNL     1       1.408   4.388  17.774  0.00  0.00    +0.000 C 
ATOM     20  C   UNL     1       1.686   3.267  18.802  0.00  0.00    +0.000 C 
ATOM     21  C   UNL     1       1.309   3.836  20.186  0.00  0.00    +0.000 C 
ATOM     22  C   UNL     1       2.457   4.816  20.479  0.00  0.00    +0.000 C 
ATOM     23  C   UNL     1       3.340   4.711  19.202  0.00  0.00    +0.000 C 
ATOM     24  C   UNL     1       4.749   5.237  19.407  0.00  0.00    +0.000 C 
ATOM     25  C   UNL     1       3.233   3.189  18.851  0.00  0.00    +0.000 C 
ATOM     26  C   UNL     1       3.787   2.225  19.922  0.00  0.00    +0.000 C 
ATOM     27  C   UNL     1       3.884   2.761  17.521  0.00  0.00    +0.000 C 
ENDBRANCH  16  18
ENDBRANCH   3  14
BRANCH   1  28
ATOM     28  C   UNL     1      -0.376  10.850  20.031  0.00  0.00    +0.000 C 
BRANCH  28  33
ATOM     29  C   UNL     1      -5.491  11.683  17.336  0.00  0.00    +0.000 C 
ATOM     30  C   UNL     1      -4.153  11.501  17.986  0.00  0.00    +0.000 A 
ATOM     31  C   UNL     1      -3.243  10.563  17.495  0.00  0.00    +0.000 A 
ATOM     32  C   UNL     1      -2.028  10.347  18.144  0.00  0.00    +0.000 A 
ATOM     33  C   UNL     1      -1.683  11.075  19.294  0.00  0.00    +0.000 A 
ATOM     34  C   UNL     1      -2.595  12.032  19.774  0.00  0.00    +0.000 A 
ATOM     35  C   UNL     1      -3.813  12.246  19.121  0.00  0.00    +0.000 A 
ENDBRANCH  28  33
ENDBRANCH   1  28
TORSDOF 5
ENDMDL
