MODEL 1
REMARK VINA RESULT:      -6.1      0.000      0.000
REMARK  Name = 
REMARK  13 active torsions:
REMARK  status: ('A' for Active; 'I' for Inactive)
REMARK    1  A    between atoms: C_1  and  C_2
REMARK    2  A    between atoms: C_2  and  O_3
REMARK    3  A    between atoms: O_3  and  C_4
REMARK    4  A    between atoms: C_4  and  C_6
REMARK    5  A    between atoms: C_7  and  C_8
REMARK    6  A    between atoms: C_9  and  C_10
REMARK    7  A    between atoms: N_12  and  C_13
REMARK    8  A    between atoms: C_13  and  C_14
REMARK    9  A    between atoms: C_13  and  C_15
REMARK   10  A    between atoms: C_15  and  O_16
REMARK   11  A    between atoms: O_16  and  C_17
REMARK   12  A    between atoms: C_18  and  C_19
REMARK   13  A    between atoms: N_20  and  C_21
REMARK                            x       y       z     vdW  Elec       q    Type
REMARK                         _______ _______ _______ _____ _____    ______ ____
ROOT
ATOM      1  C   UNL     1       4.282   5.193  18.283  0.00  0.00    +0.000 A 
ATOM      2  C   UNL     1       3.954   6.472  17.832  0.00  0.00    +0.000 A 
ATOM      3  C   UNL     1       4.654   7.256  16.769  0.00  0.00    +0.000 C 
ATOM      4  C   UNL     1       2.796   6.936  18.573  0.00  0.00    +0.000 A 
ATOM      5  C   UNL     1       2.463   5.908  19.460  0.00  0.00    +0.000 A 
ATOM      6  C   UNL     1       1.438   5.823  20.545  0.00  0.00    +0.000 C 
ATOM      7  N   UNL     1       3.345   4.862  19.246  0.00  0.00    +0.000 N 
ATOM      8  C   UNL     1       3.391   3.619  20.002  0.00  0.00    +0.000 C 
ENDROOT
BRANCH   4   9
ATOM      9  C   UNL     1       2.177   8.276  18.427  0.00  0.00    +0.000 C 
ATOM     10  O   UNL     1       2.154   8.870  17.354  0.00  0.00    +0.000 OA
ATOM     11  N   UNL     1       1.574   8.787  19.559  0.00  0.00    +0.000 N 
ATOM     12  H   UNL     1       1.487   8.170  20.356  0.00  0.00    +0.000 HD
BRANCH  11  13
ATOM     13  C   UNL     1       0.911  10.092  19.604  0.00  0.00    +0.000 C 
ATOM     14  C   UNL     1      -0.488  10.009  18.992  0.00  0.00    +0.000 C 
BRANCH  13  15
ATOM     15  C   UNL     1       0.799  10.622  21.049  0.00  0.00    +0.000 C 
BRANCH  15  16
ATOM     16  O   UNL     1       1.362  11.933  21.147  0.00  0.00    +0.000 OA
ATOM     17  C   UNL     1       0.355  12.932  21.250  0.00  0.00    +0.000 C 
ENDBRANCH  15  16
ENDBRANCH  13  15
ENDBRANCH  11  13
ENDBRANCH   4   9
BRANCH   1  18
ATOM     18  C   UNL     1       5.392   4.322  17.929  0.00  0.00    +0.000 C 
ATOM     19  O   UNL     1       6.436   4.210  18.564  0.00  0.00    +0.000 OA
BRANCH  18  20
ATOM     20  O   UNL     1       5.176   3.778  16.702  0.00  0.00    +0.000 OA
BRANCH  20  22
ATOM     21  C   UNL     1       5.565   4.351  14.418  0.00  0.00    +0.000 C 
ATOM     22  C   UNL     1       6.217   3.974  15.736  0.00  0.00    +0.000 C 
ENDBRANCH  20  22
ENDBRANCH  18  20
ENDBRANCH   1  18
TORSDOF 7
ENDMDL
MODEL 2
REMARK VINA RESULT:      -6.1      1.216      1.813
REMARK  Name = 
REMARK  13 active torsions:
REMARK  status: ('A' for Active; 'I' for Inactive)
REMARK    1  A    between atoms: C_1  and  C_2
REMARK    2  A    between atoms: C_2  and  O_3
REMARK    3  A    between atoms: O_3  and  C_4
REMARK    4  A    between atoms: C_4  and  C_6
REMARK    5  A    between atoms: C_7  and  C_8
REMARK    6  A    between atoms: C_9  and  C_10
REMARK    7  A    between atoms: N_12  and  C_13
REMARK    8  A    between atoms: C_13  and  C_14
REMARK    9  A    between atoms: C_13  and  C_15
REMARK   10  A    between atoms: C_15  and  O_16
REMARK   11  A    between atoms: O_16  and  C_17
REMARK   12  A    between atoms: C_18  and  C_19
REMARK   13  A    between atoms: N_20  and  C_21
REMARK                            x       y       z     vdW  Elec       q    Type
REMARK                         _______ _______ _______ _____ _____    ______ ____
ROOT
ATOM      1  C   UNL     1       4.089   5.101  18.236  0.00  0.00    +0.000 A 
ATOM      2  C   UNL     1       3.837   6.393  17.774  0.00  0.00    +0.000 A 
ATOM      3  C   UNL     1       4.552   7.108  16.672  0.00  0.00    +0.000 C 
ATOM      4  C   UNL     1       2.743   6.951  18.547  0.00  0.00    +0.000 A 
ATOM      5  C   UNL     1       2.371   5.963  19.464  0.00  0.00    +0.000 A 
ATOM      6  C   UNL     1       1.383   5.970  20.587  0.00  0.00    +0.000 C 
ATOM      7  N   UNL     1       3.167   4.854  19.238  0.00  0.00    +0.000 N 
ATOM      8  C   UNL     1       3.152   3.622  20.013  0.00  0.00    +0.000 C 
ENDROOT
BRANCH   4   9
ATOM      9  C   UNL     1       2.217   8.330  18.400  0.00  0.00    +0.000 C 
ATOM     10  O   UNL     1       2.330   8.963  17.355  0.00  0.00    +0.000 OA
ATOM     11  N   UNL     1       1.537   8.834  19.490  0.00  0.00    +0.000 N 
ATOM     12  H   UNL     1       1.340   8.195  20.249  0.00  0.00    +0.000 HD
BRANCH  11  13
ATOM     13  C   UNL     1       0.946  10.174  19.527  0.00  0.00    +0.000 C 
ATOM     14  C   UNL     1      -0.407  10.187  18.815  0.00  0.00    +0.000 C 
BRANCH  13  15
ATOM     15  C   UNL     1       0.760  10.673  20.975  0.00  0.00    +0.000 C 
BRANCH  15  16
ATOM     16  O   UNL     1      -0.296   9.957  21.620  0.00  0.00    +0.000 OA
ATOM     17  C   UNL     1       0.119   9.416  22.868  0.00  0.00    +0.000 C 
ENDBRANCH  15  16
ENDBRANCH  13  15
ENDBRANCH  11  13
ENDBRANCH   4   9
BRANCH   1  18
ATOM     18  C   UNL     1       5.120   4.147  17.858  0.00  0.00    +0.000 C 
ATOM     19  O   UNL     1       4.977   3.229  17.057  0.00  0.00    +0.000 OA
BRANCH  18  20
ATOM     20  O   UNL     1       6.215   4.316  18.647  0.00  0.00    +0.000 OA
BRANCH  20  22
ATOM     21  C   UNL     1       7.831   6.042  18.963  0.00  0.00    +0.000 C 
ATOM     22  C   UNL     1       7.342   4.950  18.030  0.00  0.00    +0.000 C 
ENDBRANCH  20  22
ENDBRANCH  18  20
ENDBRANCH   1  18
TORSDOF 7
ENDMDL
MODEL 3
REMARK VINA RESULT:      -6.1      0.921      1.468
REMARK  Name = 
REMARK  13 active torsions:
REMARK  status: ('A' for Active; 'I' for Inactive)
REMARK    1  A    between atoms: C_1  and  C_2
REMARK    2  A    between atoms: C_2  and  O_3
REMARK    3  A    between atoms: O_3  and  C_4
REMARK    4  A    between atoms: C_4  and  C_6
REMARK    5  A    between atoms: C_7  and  C_8
REMARK    6  A    between atoms: C_9  and  C_10
REMARK    7  A    between atoms: N_12  and  C_13
REMARK    8  A    between atoms: C_13  and  C_14
REMARK    9  A    between atoms: C_13  and  C_15
REMARK   10  A    between atoms: C_15  and  O_16
REMARK   11  A    between atoms: O_16  and  C_17
REMARK   12  A    between atoms: C_18  and  C_19
REMARK   13  A    between atoms: N_20  and  C_21
REMARK                            x       y       z     vdW  Elec       q    Type
REMARK                         _______ _______ _______ _____ _____    ______ ____
ROOT
ATOM      1  C   UNL     1       4.100   5.104  18.191  0.00  0.00    +0.000 A 
ATOM      2  C   UNL     1       3.827   6.395  17.739  0.00  0.00    +0.000 A 
ATOM      3  C   UNL     1       4.505   7.118  16.620  0.00  0.00    +0.000 C 
ATOM      4  C   UNL     1       2.750   6.943  18.543  0.00  0.00    +0.000 A 
ATOM      5  C   UNL     1       2.410   5.951  19.467  0.00  0.00    +0.000 A 
ATOM      6  C   UNL     1       1.453   5.948  20.617  0.00  0.00    +0.000 C 
ATOM      7  N   UNL     1       3.207   4.847  19.216  0.00  0.00    +0.000 N 
ATOM      8  C   UNL     1       3.222   3.614  19.989  0.00  0.00    +0.000 C 
ENDROOT
BRANCH   4   9
ATOM      9  C   UNL     1       2.210   8.318  18.413  0.00  0.00    +0.000 C 
ATOM     10  O   UNL     1       2.317   8.966  17.376  0.00  0.00    +0.000 OA
ATOM     11  N   UNL     1       1.527   8.803  19.510  0.00  0.00    +0.000 N 
ATOM     12  H   UNL     1       1.336   8.152  20.261  0.00  0.00    +0.000 HD
BRANCH  11  13
ATOM     13  C   UNL     1       0.923  10.136  19.565  0.00  0.00    +0.000 C 
ATOM     14  C   UNL     1      -0.449  10.136  18.889  0.00  0.00    +0.000 C 
BRANCH  13  15
ATOM     15  C   UNL     1       0.769  10.631  21.018  0.00  0.00    +0.000 C 
BRANCH  15  16
ATOM     16  O   UNL     1       1.394  11.907  21.181  0.00  0.00    +0.000 OA
ATOM     17  C   UNL     1       0.439  12.959  21.232  0.00  0.00    +0.000 C 
ENDBRANCH  15  16
ENDBRANCH  13  15
ENDBRANCH  11  13
ENDBRANCH   4   9
BRANCH   1  18
ATOM     18  C   UNL     1       5.127   4.158  17.782  0.00  0.00    +0.000 C 
ATOM     19  O   UNL     1       4.975   3.254  16.966  0.00  0.00    +0.000 OA
BRANCH  18  20
ATOM     20  O   UNL     1       6.231   4.313  18.561  0.00  0.00    +0.000 OA
BRANCH  20  22
ATOM     21  C   UNL     1       7.797   6.095  18.808  0.00  0.00    +0.000 C 
ATOM     22  C   UNL     1       7.359   4.935  17.933  0.00  0.00    +0.000 C 
ENDBRANCH  20  22
ENDBRANCH  18  20
ENDBRANCH   1  18
TORSDOF 7
ENDMDL
MODEL 4
REMARK VINA RESULT:      -6.0      1.964      2.188
REMARK  Name = 
REMARK  13 active torsions:
REMARK  status: ('A' for Active; 'I' for Inactive)
REMARK    1  A    between atoms: C_1  and  C_2
REMARK    2  A    between atoms: C_2  and  O_3
REMARK    3  A    between atoms: O_3  and  C_4
REMARK    4  A    between atoms: C_4  and  C_6
REMARK    5  A    between atoms: C_7  and  C_8
REMARK    6  A    between atoms: C_9  and  C_10
REMARK    7  A    between atoms: N_12  and  C_13
REMARK    8  A    between atoms: C_13  and  C_14
REMARK    9  A    between atoms: C_13  and  C_15
REMARK   10  A    between atoms: C_15  and  O_16
REMARK   11  A    between atoms: O_16  and  C_17
REMARK   12  A    between atoms: C_18  and  C_19
REMARK   13  A    between atoms: N_20  and  C_21
REMARK                            x       y       z     vdW  Elec       q    Type
REMARK                         _______ _______ _______ _____ _____    ______ ____
ROOT
ATOM      1  C   UNL     1       4.424   4.874  17.066  0.00  0.00    +0.000 A 
ATOM      2  C   UNL     1       4.133   6.187  17.437  0.00  0.00    +0.000 A 
ATOM      3  C   UNL     1       4.906   7.415  17.077  0.00  0.00    +0.000 C 
ATOM      4  C   UNL     1       2.929   6.178  18.247  0.00  0.00    +0.000 A 
ATOM      5  C   UNL     1       2.533   4.840  18.340  0.00  0.00    +0.000 A 
ATOM      6  C   UNL     1       1.436   4.179  19.113  0.00  0.00    +0.000 C 
ATOM      7  N   UNL     1       3.423   4.082  17.600  0.00  0.00    +0.000 N 
ATOM      8  C   UNL     1       3.413   2.632  17.481  0.00  0.00    +0.000 C 
ENDROOT
BRANCH   4   9
ATOM      9  C   UNL     1       2.326   7.374  18.884  0.00  0.00    +0.000 C 
ATOM     10  O   UNL     1       2.245   7.492  20.102  0.00  0.00    +0.000 OA
ATOM     11  N   UNL     1       1.918   8.373  18.024  0.00  0.00    +0.000 N 
ATOM     12  H   UNL     1       2.170   8.276  17.049  0.00  0.00    +0.000 HD
BRANCH  11  13
ATOM     13  C   UNL     1       1.304   9.626  18.470  0.00  0.00    +0.000 C 
ATOM     14  C   UNL     1       2.137  10.826  18.018  0.00  0.00    +0.000 C 
BRANCH  13  15
ATOM     15  C   UNL     1      -0.134   9.777  17.931  0.00  0.00    +0.000 C 
BRANCH  15  16
ATOM     16  O   UNL     1      -0.676  11.048  18.300  0.00  0.00    +0.000 OA
ATOM     17  C   UNL     1      -2.084  10.986  18.485  0.00  0.00    +0.000 C 
ENDBRANCH  15  16
ENDBRANCH  13  15
ENDBRANCH  11  13
ENDBRANCH   4   9
BRANCH   1  18
ATOM     18  C   UNL     1       5.553   4.330  16.327  0.00  0.00    +0.000 C 
ATOM     19  O   UNL     1       6.661   4.095  16.797  0.00  0.00    +0.000 OA
BRANCH  18  20
ATOM     20  O   UNL     1       5.253   4.279  15.002  0.00  0.00    +0.000 OA
BRANCH  20  22
ATOM     21  C   UNL     1       5.791   3.536  12.799  0.00  0.00    +0.000 C 
ATOM     22  C   UNL     1       6.354   4.037  14.117  0.00  0.00    +0.000 C 
ENDBRANCH  20  22
ENDBRANCH  18  20
ENDBRANCH   1  18
TORSDOF 7
ENDMDL
MODEL 5
REMARK VINA RESULT:      -6.0      1.254      1.343
REMARK  Name = 
REMARK  13 active torsions:
REMARK  status: ('A' for Active; 'I' for Inactive)
REMARK    1  A    between atoms: C_1  and  C_2
REMARK    2  A    between atoms: C_2  and  O_3
REMARK    3  A    between atoms: O_3  and  C_4
REMARK    4  A    between atoms: C_4  and  C_6
REMARK    5  A    between atoms: C_7  and  C_8
REMARK    6  A    between atoms: C_9  and  C_10
REMARK    7  A    between atoms: N_12  and  C_13
REMARK    8  A    between atoms: C_13  and  C_14
REMARK    9  A    between atoms: C_13  and  C_15
REMARK   10  A    between atoms: C_15  and  O_16
REMARK   11  A    between atoms: O_16  and  C_17
REMARK   12  A    between atoms: C_18  and  C_19
REMARK   13  A    between atoms: N_20  and  C_21
REMARK                            x       y       z     vdW  Elec       q    Type
REMARK                         _______ _______ _______ _____ _____    ______ ____
ROOT
ATOM      1  C   UNL     1       4.721   4.854  18.349  0.00  0.00    +0.000 A 
ATOM      2  C   UNL     1       4.133   6.112  18.217  0.00  0.00    +0.000 A 
ATOM      3  C   UNL     1       4.554   7.208  17.292  0.00  0.00    +0.000 C 
ATOM      4  C   UNL     1       3.017   6.195  19.142  0.00  0.00    +0.000 A 
ATOM      5  C   UNL     1       2.973   4.968  19.809  0.00  0.00    +0.000 A 
ATOM      6  C   UNL     1       2.122   4.480  20.938  0.00  0.00    +0.000 C 
ATOM      7  N   UNL     1       3.981   4.170  19.296  0.00  0.00    +0.000 N 
ATOM      8  C   UNL     1       4.326   2.833  19.756  0.00  0.00    +0.000 C 
ENDROOT
BRANCH   4   9
ATOM      9  C   UNL     1       2.173   7.397  19.346  0.00  0.00    +0.000 C 
ATOM     10  O   UNL     1       1.875   8.150  18.424  0.00  0.00    +0.000 OA
ATOM     11  N   UNL     1       1.690   7.583  20.626  0.00  0.00    +0.000 N 
ATOM     12  H   UNL     1       1.838   6.834  21.290  0.00  0.00    +0.000 HD
BRANCH  11  13
ATOM     13  C   UNL     1       0.840   8.710  21.015  0.00  0.00    +0.000 C 
ATOM     14  C   UNL     1      -0.446   8.213  21.677  0.00  0.00    +0.000 C 
BRANCH  13  15
ATOM     15  C   UNL     1       1.570   9.664  21.985  0.00  0.00    +0.000 C 
BRANCH  15  16
ATOM     16  O   UNL     1       0.874  10.909  22.081  0.00  0.00    +0.000 OA
ATOM     17  C   UNL     1       0.934  11.642  20.864  0.00  0.00    +0.000 C 
ENDBRANCH  15  16
ENDBRANCH  13  15
ENDBRANCH  11  13
ENDBRANCH   4   9
BRANCH   1  18
ATOM     18  C   UNL     1       5.906   4.294  17.716  0.00  0.00    +0.000 C 
ATOM     19  O   UNL     1       7.059   4.459  18.100  0.00  0.00    +0.000 OA
BRANCH  18  20
ATOM     20  O   UNL     1       5.563   3.704  16.540  0.00  0.00    +0.000 OA
BRANCH  20  22
ATOM     21  C   UNL     1       6.343   3.893  14.293  0.00  0.00    +0.000 C 
ATOM     22  C   UNL     1       5.535   4.560  15.392  0.00  0.00    +0.000 C 
ENDBRANCH  20  22
ENDBRANCH  18  20
ENDBRANCH   1  18
TORSDOF 7
ENDMDL
MODEL 6
REMARK VINA RESULT:      -5.8      2.979      6.778
REMARK  Name = 
REMARK  13 active torsions:
REMARK  status: ('A' for Active; 'I' for Inactive)
REMARK    1  A    between atoms: C_1  and  C_2
REMARK    2  A    between atoms: C_2  and  O_3
REMARK    3  A    between atoms: O_3  and  C_4
REMARK    4  A    between atoms: C_4  and  C_6
REMARK    5  A    between atoms: C_7  and  C_8
REMARK    6  A    between atoms: C_9  and  C_10
REMARK    7  A    between atoms: N_12  and  C_13
REMARK    8  A    between atoms: C_13  and  C_14
REMARK    9  A    between atoms: C_13  and  C_15
REMARK   10  A    between atoms: C_15  and  O_16
REMARK   11  A    between atoms: O_16  and  C_17
REMARK   12  A    between atoms: C_18  and  C_19
REMARK   13  A    between atoms: N_20  and  C_21
REMARK                            x       y       z     vdW  Elec       q    Type
REMARK                         _______ _______ _______ _____ _____    ______ ____
ROOT
ATOM      1  C   UNL     1       2.614   5.238  19.851  0.00  0.00    +0.000 A 
ATOM      2  C   UNL     1       3.636   4.943  18.949  0.00  0.00    +0.000 A 
ATOM      3  C   UNL     1       4.405   3.665  18.848  0.00  0.00    +0.000 C 
ATOM      4  C   UNL     1       3.843   6.100  18.098  0.00  0.00    +0.000 A 
ATOM      5  C   UNL     1       2.928   7.067  18.525  0.00  0.00    +0.000 A 
ATOM      6  C   UNL     1       2.720   8.490  18.115  0.00  0.00    +0.000 C 
ATOM      7  N   UNL     1       2.181   6.517  19.553  0.00  0.00    +0.000 N 
ATOM      8  C   UNL     1       1.158   7.207  20.325  0.00  0.00    +0.000 C 
ENDROOT
BRANCH   4   9
ATOM      9  C   UNL     1       4.886   6.205  17.048  0.00  0.00    +0.000 C 
ATOM     10  O   UNL     1       5.727   7.098  17.052  0.00  0.00    +0.000 OA
ATOM     11  N   UNL     1       4.888   5.202  16.100  0.00  0.00    +0.000 N 
ATOM     12  H   UNL     1       4.274   4.414  16.258  0.00  0.00    +0.000 HD
BRANCH  11  13
ATOM     13  C   UNL     1       5.843   5.138  14.991  0.00  0.00    +0.000 C 
ATOM     14  C   UNL     1       7.191   4.599  15.470  0.00  0.00    +0.000 C 
BRANCH  13  15
ATOM     15  C   UNL     1       5.321   4.247  13.844  0.00  0.00    +0.000 C 
BRANCH  15  16
ATOM     16  O   UNL     1       6.412   3.656  13.133  0.00  0.00    +0.000 OA
ATOM     17  C   UNL     1       5.966   2.914  12.006  0.00  0.00    +0.000 C 
ENDBRANCH  15  16
ENDBRANCH  13  15
ENDBRANCH  11  13
ENDBRANCH   4   9
BRANCH   1  18
ATOM     18  C   UNL     1       2.077   4.459  20.957  0.00  0.00    +0.000 C 
ATOM     19  O   UNL     1       2.637   4.274  22.032  0.00  0.00    +0.000 OA
BRANCH  18  20
ATOM     20  O   UNL     1       0.940   3.826  20.563  0.00  0.00    +0.000 OA
BRANCH  20  22
ATOM     21  C   UNL     1       0.815   2.362  18.683  0.00  0.00    +0.000 C 
ATOM     22  C   UNL     1       1.088   2.455  20.174  0.00  0.00    +0.000 C 
ENDBRANCH  20  22
ENDBRANCH  18  20
ENDBRANCH   1  18
TORSDOF 7
ENDMDL
MODEL 7
REMARK VINA RESULT:      -5.8      1.437      1.971
REMARK  Name = 
REMARK  13 active torsions:
REMARK  status: ('A' for Active; 'I' for Inactive)
REMARK    1  A    between atoms: C_1  and  C_2
REMARK    2  A    between atoms: C_2  and  O_3
REMARK    3  A    between atoms: O_3  and  C_4
REMARK    4  A    between atoms: C_4  and  C_6
REMARK    5  A    between atoms: C_7  and  C_8
REMARK    6  A    between atoms: C_9  and  C_10
REMARK    7  A    between atoms: N_12  and  C_13
REMARK    8  A    between atoms: C_13  and  C_14
REMARK    9  A    between atoms: C_13  and  C_15
REMARK   10  A    between atoms: C_15  and  O_16
REMARK   11  A    between atoms: O_16  and  C_17
REMARK   12  A    between atoms: C_18  and  C_19
REMARK   13  A    between atoms: N_20  and  C_21
REMARK                            x       y       z     vdW  Elec       q    Type
REMARK                         _______ _______ _______ _____ _____    ______ ____
ROOT
ATOM      1  C   UNL     1       4.371   4.784  17.901  0.00  0.00    +0.000 A 
ATOM      2  C   UNL     1       3.925   6.106  17.896  0.00  0.00    +0.000 A 
ATOM      3  C   UNL     1       4.537   7.257  17.164  0.00  0.00    +0.000 C 
ATOM      4  C   UNL     1       2.743   6.194  18.733  0.00  0.00    +0.000 A 
ATOM      5  C   UNL     1       2.515   4.904  19.222  0.00  0.00    +0.000 A 
ATOM      6  C   UNL     1       1.519   4.374  20.203  0.00  0.00    +0.000 C 
ATOM      7  N   UNL     1       3.482   4.071  18.686  0.00  0.00    +0.000 N 
ATOM      8  C   UNL     1       3.649   2.657  18.986  0.00  0.00    +0.000 C 
ENDROOT
BRANCH   4   9
ATOM      9  C   UNL     1       2.006   7.446  19.031  0.00  0.00    +0.000 C 
ATOM     10  O   UNL     1       1.701   8.248  18.155  0.00  0.00    +0.000 OA
ATOM     11  N   UNL     1       1.631   7.625  20.348  0.00  0.00    +0.000 N 
ATOM     12  H   UNL     1       1.770   6.846  20.978  0.00  0.00    +0.000 HD
BRANCH  11  13
ATOM     13  C   UNL     1       0.897   8.797  20.829  0.00  0.00    +0.000 C 
ATOM     14  C   UNL     1      -0.395   8.374  21.530  0.00  0.00    +0.000 C 
BRANCH  13  15
ATOM     15  C   UNL     1       1.747   9.640  21.803  0.00  0.00    +0.000 C 
BRANCH  15  16
ATOM     16  O   UNL     1       1.238  10.973  21.887  0.00  0.00    +0.000 OA
ATOM     17  C   UNL     1       1.047  11.545  20.600  0.00  0.00    +0.000 C 
ENDBRANCH  15  16
ENDBRANCH  13  15
ENDBRANCH  11  13
ENDBRANCH   4   9
BRANCH   1  18
ATOM     18  C   UNL     1       5.548   4.182  17.294  0.00  0.00    +0.000 C 
ATOM     19  O   UNL     1       5.578   3.638  16.195  0.00  0.00    +0.000 OA
BRANCH  18  20
ATOM     20  O   UNL     1       6.568   4.158  18.192  0.00  0.00    +0.000 OA
BRANCH  20  22
ATOM     21  C   UNL     1       7.805   5.879  19.287  0.00  0.00    +0.000 C 
ATOM     22  C   UNL     1       7.608   5.122  17.987  0.00  0.00    +0.000 C 
ENDBRANCH  20  22
ENDBRANCH  18  20
ENDBRANCH   1  18
TORSDOF 7
ENDMDL
MODEL 8
REMARK VINA RESULT:      -5.8      1.717      2.379
REMARK  Name = 
REMARK  13 active torsions:
REMARK  status: ('A' for Active; 'I' for Inactive)
REMARK    1  A    between atoms: C_1  and  C_2
REMARK    2  A    between atoms: C_2  and  O_3
REMARK    3  A    between atoms: O_3  and  C_4
REMARK    4  A    between atoms: C_4  and  C_6
REMARK    5  A    between atoms: C_7  and  C_8
REMARK    6  A    between atoms: C_9  and  C_10
REMARK    7  A    between atoms: N_12  and  C_13
REMARK    8  A    between atoms: C_13  and  C_14
REMARK    9  A    between atoms: C_13  and  C_15
REMARK   10  A    between atoms: C_15  and  O_16
REMARK   11  A    between atoms: O_16  and  C_17
REMARK   12  A    between atoms: C_18  and  C_19
REMARK   13  A    between atoms: N_20  and  C_21
REMARK                            x       y       z     vdW  Elec       q    Type
REMARK                         _______ _______ _______ _____ _____    ______ ____
ROOT
ATOM      1  C   UNL     1       4.521   4.392  18.902  0.00  0.00    +0.000 A 
ATOM      2  C   UNL     1       3.654   5.481  18.991  0.00  0.00    +0.000 A 
ATOM      3  C   UNL     1       3.738   6.761  18.224  0.00  0.00    +0.000 C 
ATOM      4  C   UNL     1       2.628   5.170  19.969  0.00  0.00    +0.000 A 
ATOM      5  C   UNL     1       2.918   3.888  20.445  0.00  0.00    +0.000 A 
ATOM      6  C   UNL     1       2.295   3.063  21.525  0.00  0.00    +0.000 C 
ATOM      7  N   UNL     1       4.036   3.429  19.769  0.00  0.00    +0.000 N 
ATOM      8  C   UNL     1       4.712   2.162  20.004  0.00  0.00    +0.000 C 
ENDROOT
BRANCH   4   9
ATOM      9  C   UNL     1       1.552   6.098  20.393  0.00  0.00    +0.000 C 
ATOM     10  O   UNL     1       0.402   5.718  20.588  0.00  0.00    +0.000 OA
ATOM     11  N   UNL     1       1.937   7.405  20.615  0.00  0.00    +0.000 N 
ATOM     12  H   UNL     1       2.928   7.605  20.596  0.00  0.00    +0.000 HD
BRANCH  11  13
ATOM     13  C   UNL     1       1.015   8.461  21.039  0.00  0.00    +0.000 C 
ATOM     14  C   UNL     1       1.474   9.079  22.360  0.00  0.00    +0.000 C 
BRANCH  13  15
ATOM     15  C   UNL     1       0.895   9.573  19.976  0.00  0.00    +0.000 C 
BRANCH  15  16
ATOM     16  O   UNL     1      -0.478   9.884  19.729  0.00  0.00    +0.000 OA
ATOM     17  C   UNL     1      -0.692  10.289  18.383  0.00  0.00    +0.000 C 
ENDBRANCH  15  16
ENDBRANCH  13  15
ENDBRANCH  11  13
ENDBRANCH   4   9
BRANCH   1  18
ATOM     18  C   UNL     1       5.747   4.220  18.137  0.00  0.00    +0.000 C 
ATOM     19  O   UNL     1       6.882   4.384  18.570  0.00  0.00    +0.000 OA
BRANCH  18  20
ATOM     20  O   UNL     1       5.445   4.018  16.826  0.00  0.00    +0.000 OA
BRANCH  20  22
ATOM     21  C   UNL     1       6.035   3.904  14.517  0.00  0.00    +0.000 C 
ATOM     22  C   UNL     1       6.443   4.427  15.882  0.00  0.00    +0.000 C 
ENDBRANCH  20  22
ENDBRANCH  18  20
ENDBRANCH   1  18
TORSDOF 7
ENDMDL
MODEL 9
REMARK VINA RESULT:      -5.8      1.486      1.706
REMARK  Name = 
REMARK  13 active torsions:
REMARK  status: ('A' for Active; 'I' for Inactive)
REMARK    1  A    between atoms: C_1  and  C_2
REMARK    2  A    between atoms: C_2  and  O_3
REMARK    3  A    between atoms: O_3  and  C_4
REMARK    4  A    between atoms: C_4  and  C_6
REMARK    5  A    between atoms: C_7  and  C_8
REMARK    6  A    between atoms: C_9  and  C_10
REMARK    7  A    between atoms: N_12  and  C_13
REMARK    8  A    between atoms: C_13  and  C_14
REMARK    9  A    between atoms: C_13  and  C_15
REMARK   10  A    between atoms: C_15  and  O_16
REMARK   11  A    between atoms: O_16  and  C_17
REMARK   12  A    between atoms: C_18  and  C_19
REMARK   13  A    between atoms: N_20  and  C_21
REMARK                            x       y       z     vdW  Elec       q    Type
REMARK                         _______ _______ _______ _____ _____    ______ ____
ROOT
ATOM      1  C   UNL     1       4.146   4.866  18.304  0.00  0.00    +0.000 A 
ATOM      2  C   UNL     1       3.828   6.223  18.365  0.00  0.00    +0.000 A 
ATOM      3  C   UNL     1       4.562   7.348  17.710  0.00  0.00    +0.000 C 
ATOM      4  C   UNL     1       2.640   6.377  19.184  0.00  0.00    +0.000 A 
ATOM      5  C   UNL     1       2.281   5.091  19.597  0.00  0.00    +0.000 A 
ATOM      6  C   UNL     1       1.216   4.606  20.529  0.00  0.00    +0.000 C 
ATOM      7  N   UNL     1       3.176   4.199  19.031  0.00  0.00    +0.000 N 
ATOM      8  C   UNL     1       3.201   2.761  19.254  0.00  0.00    +0.000 C 
ENDROOT
BRANCH   4   9
ATOM      9  C   UNL     1       2.019   7.676  19.540  0.00  0.00    +0.000 C 
ATOM     10  O   UNL     1       1.674   7.942  20.688  0.00  0.00    +0.000 OA
ATOM     11  N   UNL     1       1.907   8.592  18.513  0.00  0.00    +0.000 N 
ATOM     12  H   UNL     1       2.364   8.365  17.639  0.00  0.00    +0.000 HD
BRANCH  11  13
ATOM     13  C   UNL     1       1.324   9.925  18.676  0.00  0.00    +0.000 C 
ATOM     14  C   UNL     1       2.158  10.973  17.939  0.00  0.00    +0.000 C 
BRANCH  13  15
ATOM     15  C   UNL     1      -0.128   9.978  18.155  0.00  0.00    +0.000 C 
BRANCH  15  16
ATOM     16  O   UNL     1      -1.052   9.962  19.246  0.00  0.00    +0.000 OA
ATOM     17  C   UNL     1      -0.796  11.015  20.167  0.00  0.00    +0.000 C 
ENDBRANCH  15  16
ENDBRANCH  13  15
ENDBRANCH  11  13
ENDBRANCH   4   9
BRANCH   1  18
ATOM     18  C   UNL     1       5.274   4.187  17.684  0.00  0.00    +0.000 C 
ATOM     19  O   UNL     1       6.368   4.007  18.208  0.00  0.00    +0.000 OA
BRANCH  18  20
ATOM     20  O   UNL     1       4.996   3.933  16.378  0.00  0.00    +0.000 OA
BRANCH  20  22
ATOM     21  C   UNL     1       5.613   4.190  14.087  0.00  0.00    +0.000 C 
ATOM     22  C   UNL     1       6.121   3.907  15.490  0.00  0.00    +0.000 C 
ENDBRANCH  20  22
ENDBRANCH  18  20
ENDBRANCH   1  18
TORSDOF 7
ENDMDL
