MODEL 1
REMARK VINA RESULT:      -7.5      0.000      0.000
REMARK  Name = 
REMARK  3 active torsions:
REMARK  status: ('A' for Active; 'I' for Inactive)
REMARK    1  A    between atoms: C_1  and  O_2
REMARK    2  A    between atoms: O_2  and  C_3
REMARK    3  A    between atoms: C_17  and  O_18
REMARK                            x       y       z     vdW  Elec       q    Type
REMARK                         _______ _______ _______ _____ _____    ______ ____
ROOT
ATOM      1  C   UNL     1       6.493   5.237  15.945  0.00  0.00    +0.000 A 
ATOM      2  C   UNL     1       6.168   6.513  16.415  0.00  0.00    +0.000 A 
ATOM      3  C   UNL     1       5.106   6.687  17.300  0.00  0.00    +0.000 A 
ATOM      4  C   UNL     1       4.356   5.583  17.711  0.00  0.00    +0.000 A 
ATOM      5  C   UNL     1       3.250   5.759  18.656  0.00  0.00    +0.000 A 
ATOM      6  O   UNL     1       2.957   6.863  19.100  0.00  0.00    +0.000 OA
ATOM      7  C   UNL     1       2.518   4.552  19.050  0.00  0.00    +0.000 A 
ATOM      8  C   UNL     1       1.462   4.635  19.961  0.00  0.00    +0.000 A 
ATOM      9  C   UNL     1       0.776   3.479  20.324  0.00  0.00    +0.000 A 
ATOM     10  C   UNL     1       1.148   2.251  19.776  0.00  0.00    +0.000 A 
ATOM     11  C   UNL     1       2.208   2.173  18.864  0.00  0.00    +0.000 A 
ATOM     12  C   UNL     1       2.900   3.331  18.498  0.00  0.00    +0.000 A 
ATOM     13  O   UNL     1       3.934   3.183  17.602  0.00  0.00    +0.000 OA
ATOM     14  C   UNL     1       4.644   4.306  17.237  0.00  0.00    +0.000 A 
ATOM     15  C   UNL     1       5.712   4.141  16.346  0.00  0.00    +0.000 A 
ENDROOT
BRANCH   1  17
ATOM     16  C   UNL     1       7.170   4.975  13.693  0.00  0.00    +0.000 C 
ATOM     17  O   UNL     1       7.522   4.990  15.072  0.00  0.00    +0.000 OA
ENDBRANCH   1  17
BRANCH  15  18
ATOM     18  O   UNL     1       6.017   2.891  15.867  0.00  0.00    +0.000 OA
ATOM     19  H   UNL     1       5.216   2.345  15.940  0.00  0.00    +0.000 HD
ENDBRANCH  15  18
TORSDOF 2
ENDMDL
MODEL 2
REMARK VINA RESULT:      -7.4      1.897      2.611
REMARK  Name = 
REMARK  3 active torsions:
REMARK  status: ('A' for Active; 'I' for Inactive)
REMARK    1  A    between atoms: C_1  and  O_2
REMARK    2  A    between atoms: O_2  and  C_3
REMARK    3  A    between atoms: C_17  and  O_18
REMARK                            x       y       z     vdW  Elec       q    Type
REMARK                         _______ _______ _______ _____ _____    ______ ____
ROOT
ATOM      1  C   UNL     1       6.648   5.675  17.418  0.00  0.00    +0.000 A 
ATOM      2  C   UNL     1       5.971   5.396  16.228  0.00  0.00    +0.000 A 
ATOM      3  C   UNL     1       4.731   4.761  16.257  0.00  0.00    +0.000 A 
ATOM      4  C   UNL     1       4.168   4.392  17.480  0.00  0.00    +0.000 A 
ATOM      5  C   UNL     1       2.855   3.740  17.516  0.00  0.00    +0.000 A 
ATOM      6  O   UNL     1       2.230   3.503  16.490  0.00  0.00    +0.000 OA
ATOM      7  C   UNL     1       2.325   3.394  18.838  0.00  0.00    +0.000 A 
ATOM      8  C   UNL     1       1.072   2.787  18.956  0.00  0.00    +0.000 A 
ATOM      9  C   UNL     1       0.582   2.464  20.219  0.00  0.00    +0.000 A 
ATOM     10  C   UNL     1       1.345   2.748  21.352  0.00  0.00    +0.000 A 
ATOM     11  C   UNL     1       2.600   3.358  21.228  0.00  0.00    +0.000 A 
ATOM     12  C   UNL     1       3.094   3.685  19.962  0.00  0.00    +0.000 A 
ATOM     13  O   UNL     1       4.331   4.287  19.912  0.00  0.00    +0.000 OA
ATOM     14  C   UNL     1       4.834   4.636  18.678  0.00  0.00    +0.000 A 
ATOM     15  C   UNL     1       6.081   5.273  18.639  0.00  0.00    +0.000 A 
ENDROOT
BRANCH   1  17
ATOM     16  C   UNL     1       7.838   7.715  17.561  0.00  0.00    +0.000 C 
ATOM     17  O   UNL     1       7.871   6.295  17.468  0.00  0.00    +0.000 OA
ENDBRANCH   1  17
BRANCH  15  18
ATOM     18  O   UNL     1       6.757   5.527  19.807  0.00  0.00    +0.000 OA
ATOM     19  H   UNL     1       6.594   4.781  20.409  0.00  0.00    +0.000 HD
ENDBRANCH  15  18
TORSDOF 2
ENDMDL
MODEL 3
REMARK VINA RESULT:      -7.3      1.258      1.259
REMARK  Name = 
REMARK  3 active torsions:
REMARK  status: ('A' for Active; 'I' for Inactive)
REMARK    1  A    between atoms: C_1  and  O_2
REMARK    2  A    between atoms: O_2  and  C_3
REMARK    3  A    between atoms: C_17  and  O_18
REMARK                            x       y       z     vdW  Elec       q    Type
REMARK                         _______ _______ _______ _____ _____    ______ ____
ROOT
ATOM      1  C   UNL     1       6.293   5.846  16.235  0.00  0.00    +0.000 A 
ATOM      2  C   UNL     1       5.372   6.898  16.225  0.00  0.00    +0.000 A 
ATOM      3  C   UNL     1       4.282   6.887  17.094  0.00  0.00    +0.000 A 
ATOM      4  C   UNL     1       4.105   5.815  17.971  0.00  0.00    +0.000 A 
ATOM      5  C   UNL     1       2.970   5.808  18.900  0.00  0.00    +0.000 A 
ATOM      6  O   UNL     1       2.160   6.726  18.928  0.00  0.00    +0.000 OA
ATOM      7  C   UNL     1       2.858   4.655  19.798  0.00  0.00    +0.000 A 
ATOM      8  C   UNL     1       1.815   4.584  20.724  0.00  0.00    +0.000 A 
ATOM      9  C   UNL     1       1.721   3.481  21.570  0.00  0.00    +0.000 A 
ATOM     10  C   UNL     1       2.668   2.459  21.484  0.00  0.00    +0.000 A 
ATOM     11  C   UNL     1       3.712   2.536  20.554  0.00  0.00    +0.000 A 
ATOM     12  C   UNL     1       3.810   3.642  19.706  0.00  0.00    +0.000 A 
ATOM     13  O   UNL     1       4.864   3.657  18.819  0.00  0.00    +0.000 OA
ATOM     14  C   UNL     1       4.994   4.743  17.982  0.00  0.00    +0.000 A 
ATOM     15  C   UNL     1       6.084   4.762  17.104  0.00  0.00    +0.000 A 
ENDROOT
BRANCH   1  17
ATOM     16  C   UNL     1       7.198   5.080  14.187  0.00  0.00    +0.000 C 
ATOM     17  O   UNL     1       7.385   5.788  15.408  0.00  0.00    +0.000 OA
ENDBRANCH   1  17
BRANCH  15  18
ATOM     18  O   UNL     1       6.977   3.718  17.097  0.00  0.00    +0.000 OA
ATOM     19  H   UNL     1       6.626   3.029  17.686  0.00  0.00    +0.000 HD
ENDBRANCH  15  18
TORSDOF 2
ENDMDL
MODEL 4
REMARK VINA RESULT:      -7.2      1.341      2.703
REMARK  Name = 
REMARK  3 active torsions:
REMARK  status: ('A' for Active; 'I' for Inactive)
REMARK    1  A    between atoms: C_1  and  O_2
REMARK    2  A    between atoms: O_2  and  C_3
REMARK    3  A    between atoms: C_17  and  O_18
REMARK                            x       y       z     vdW  Elec       q    Type
REMARK                         _______ _______ _______ _____ _____    ______ ____
ROOT
ATOM      1  C   UNL     1       6.587   5.033  15.381  0.00  0.00    +0.000 A 
ATOM      2  C   UNL     1       6.199   3.703  15.193  0.00  0.00    +0.000 A 
ATOM      3  C   UNL     1       5.174   3.154  15.961  0.00  0.00    +0.000 A 
ATOM      4  C   UNL     1       4.539   3.934  16.930  0.00  0.00    +0.000 A 
ATOM      5  C   UNL     1       3.447   3.366  17.728  0.00  0.00    +0.000 A 
ATOM      6  O   UNL     1       3.073   2.211  17.570  0.00  0.00    +0.000 OA
ATOM      7  C   UNL     1       2.822   4.250  18.716  0.00  0.00    +0.000 A 
ATOM      8  C   UNL     1       1.763   3.788  19.502  0.00  0.00    +0.000 A 
ATOM      9  C   UNL     1       1.180   4.640  20.437  0.00  0.00    +0.000 A 
ATOM     10  C   UNL     1       1.657   5.944  20.580  0.00  0.00    +0.000 A 
ATOM     11  C   UNL     1       2.718   6.401  19.788  0.00  0.00    +0.000 A 
ATOM     12  C   UNL     1       3.304   5.551  18.848  0.00  0.00    +0.000 A 
ATOM     13  O   UNL     1       4.339   6.066  18.100  0.00  0.00    +0.000 OA
ATOM     14  C   UNL     1       4.924   5.253  17.153  0.00  0.00    +0.000 A 
ATOM     15  C   UNL     1       5.957   5.795  16.378  0.00  0.00    +0.000 A 
ENDROOT
BRANCH   1  17
ATOM     16  C   UNL     1       7.730   5.205  13.316  0.00  0.00    +0.000 C 
ATOM     17  O   UNL     1       7.587   5.639  14.664  0.00  0.00    +0.000 OA
ENDBRANCH   1  17
BRANCH  15  18
ATOM     18  O   UNL     1       6.353   7.095  16.577  0.00  0.00    +0.000 OA
ATOM     19  H   UNL     1       5.625   7.558  17.025  0.00  0.00    +0.000 HD
ENDBRANCH  15  18
TORSDOF 2
ENDMDL
MODEL 5
REMARK VINA RESULT:      -7.2      2.113      2.926
REMARK  Name = 
REMARK  3 active torsions:
REMARK  status: ('A' for Active; 'I' for Inactive)
REMARK    1  A    between atoms: C_1  and  O_2
REMARK    2  A    between atoms: O_2  and  C_3
REMARK    3  A    between atoms: C_17  and  O_18
REMARK                            x       y       z     vdW  Elec       q    Type
REMARK                         _______ _______ _______ _____ _____    ______ ____
ROOT
ATOM      1  C   UNL     1       6.953   6.652  17.572  0.00  0.00    +0.000 A 
ATOM      2  C   UNL     1       7.566   5.808  18.502  0.00  0.00    +0.000 A 
ATOM      3  C   UNL     1       6.840   4.785  19.110  0.00  0.00    +0.000 A 
ATOM      4  C   UNL     1       5.490   4.611  18.796  0.00  0.00    +0.000 A 
ATOM      5  C   UNL     1       4.728   3.525  19.419  0.00  0.00    +0.000 A 
ATOM      6  O   UNL     1       5.245   2.758  20.221  0.00  0.00    +0.000 OA
ATOM      7  C   UNL     1       3.320   3.397  19.030  0.00  0.00    +0.000 A 
ATOM      8  C   UNL     1       2.532   2.377  19.566  0.00  0.00    +0.000 A 
ATOM      9  C   UNL     1       1.196   2.269  19.187  0.00  0.00    +0.000 A 
ATOM     10  C   UNL     1       0.658   3.180  18.277  0.00  0.00    +0.000 A 
ATOM     11  C   UNL     1       1.454   4.201  17.742  0.00  0.00    +0.000 A 
ATOM     12  C   UNL     1       2.795   4.311  18.118  0.00  0.00    +0.000 A 
ATOM     13  O   UNL     1       3.521   5.333  17.550  0.00  0.00    +0.000 OA
ATOM     14  C   UNL     1       4.850   5.454  17.892  0.00  0.00    +0.000 A 
ATOM     15  C   UNL     1       5.587   6.480  17.287  0.00  0.00    +0.000 A 
ENDROOT
BRANCH   1  17
ATOM     16  C   UNL     1       8.010   8.760  17.768  0.00  0.00    +0.000 C 
ATOM     17  O   UNL     1       7.602   7.679  16.936  0.00  0.00    +0.000 OA
ENDBRANCH   1  17
BRANCH  15  18
ATOM     18  O   UNL     1       4.979   7.324  16.390  0.00  0.00    +0.000 OA
ATOM     19  H   UNL     1       4.043   7.394  16.642  0.00  0.00    +0.000 HD
ENDBRANCH  15  18
TORSDOF 2
ENDMDL
MODEL 6
REMARK VINA RESULT:      -7.1      2.203      2.427
REMARK  Name = 
REMARK  3 active torsions:
REMARK  status: ('A' for Active; 'I' for Inactive)
REMARK    1  A    between atoms: C_1  and  O_2
REMARK    2  A    between atoms: O_2  and  C_3
REMARK    3  A    between atoms: C_17  and  O_18
REMARK                            x       y       z     vdW  Elec       q    Type
REMARK                         _______ _______ _______ _____ _____    ______ ____
ROOT
ATOM      1  C   UNL     1       6.480   6.471  17.731  0.00  0.00    +0.000 A 
ATOM      2  C   UNL     1       5.465   6.916  16.879  0.00  0.00    +0.000 A 
ATOM      3  C   UNL     1       4.155   6.474  17.054  0.00  0.00    +0.000 A 
ATOM      4  C   UNL     1       3.858   5.573  18.079  0.00  0.00    +0.000 A 
ATOM      5  C   UNL     1       2.478   5.119  18.279  0.00  0.00    +0.000 A 
ATOM      6  O   UNL     1       1.566   5.510  17.561  0.00  0.00    +0.000 OA
ATOM      7  C   UNL     1       2.243   4.184  19.383  0.00  0.00    +0.000 A 
ATOM      8  C   UNL     1       0.952   3.720  19.648  0.00  0.00    +0.000 A 
ATOM      9  C   UNL     1       0.745   2.831  20.700  0.00  0.00    +0.000 A 
ATOM     10  C   UNL     1       1.826   2.412  21.477  0.00  0.00    +0.000 A 
ATOM     11  C   UNL     1       3.118   2.881  21.206  0.00  0.00    +0.000 A 
ATOM     12  C   UNL     1       3.329   3.775  20.154  0.00  0.00    +0.000 A 
ATOM     13  O   UNL     1       4.622   4.201  19.946  0.00  0.00    +0.000 OA
ATOM     14  C   UNL     1       4.855   5.095  18.925  0.00  0.00    +0.000 A 
ATOM     15  C   UNL     1       6.169   5.543  18.739  0.00  0.00    +0.000 A 
ENDROOT
BRANCH   1  17
ATOM     16  C   UNL     1       8.032   8.256  17.762  0.00  0.00    +0.000 C 
ATOM     17  O   UNL     1       7.790   6.861  17.618  0.00  0.00    +0.000 OA
ENDBRANCH   1  17
BRANCH  15  18
ATOM     18  O   UNL     1       7.170   5.089  19.562  0.00  0.00    +0.000 OA
ATOM     19  H   UNL     1       7.912   5.714  19.495  0.00  0.00    +0.000 HD
ENDBRANCH  15  18
TORSDOF 2
ENDMDL
MODEL 7
REMARK VINA RESULT:      -7.0      1.599      5.500
REMARK  Name = 
REMARK  3 active torsions:
REMARK  status: ('A' for Active; 'I' for Inactive)
REMARK    1  A    between atoms: C_1  and  O_2
REMARK    2  A    between atoms: O_2  and  C_3
REMARK    3  A    between atoms: C_17  and  O_18
REMARK                            x       y       z     vdW  Elec       q    Type
REMARK                         _______ _______ _______ _____ _____    ______ ____
ROOT
ATOM      1  C   UNL     1       1.666   3.605  19.971  0.00  0.00    +0.000 A 
ATOM      2  C   UNL     1       1.653   4.993  20.135  0.00  0.00    +0.000 A 
ATOM      3  C   UNL     1       2.441   5.805  19.321  0.00  0.00    +0.000 A 
ATOM      4  C   UNL     1       3.255   5.227  18.344  0.00  0.00    +0.000 A 
ATOM      5  C   UNL     1       4.071   6.078  17.473  0.00  0.00    +0.000 A 
ATOM      6  O   UNL     1       4.063   7.298  17.580  0.00  0.00    +0.000 OA
ATOM      7  C   UNL     1       4.889   5.400  16.464  0.00  0.00    +0.000 A 
ATOM      8  C   UNL     1       5.680   6.143  15.585  0.00  0.00    +0.000 A 
ATOM      9  C   UNL     1       6.453   5.484  14.632  0.00  0.00    +0.000 A 
ATOM     10  C   UNL     1       6.430   4.090  14.564  0.00  0.00    +0.000 A 
ATOM     11  C   UNL     1       5.635   3.350  15.448  0.00  0.00    +0.000 A 
ATOM     12  C   UNL     1       4.856   4.008  16.404  0.00  0.00    +0.000 A 
ATOM     13  O   UNL     1       4.094   3.221  17.237  0.00  0.00    +0.000 OA
ATOM     14  C   UNL     1       3.304   3.846  18.178  0.00  0.00    +0.000 A 
ATOM     15  C   UNL     1       2.511   3.038  19.002  0.00  0.00    +0.000 A 
ENDROOT
BRANCH   1  17
ATOM     16  C   UNL     1       1.447   2.450  22.025  0.00  0.00    +0.000 C 
ATOM     17  O   UNL     1       0.920   2.744  20.735  0.00  0.00    +0.000 OA
ENDBRANCH   1  17
BRANCH  15  18
ATOM     18  O   UNL     1       2.541   1.673  18.857  0.00  0.00    +0.000 OA
ATOM     19  H   UNL     1       1.678   1.328  19.142  0.00  0.00    +0.000 HD
ENDBRANCH  15  18
TORSDOF 2
ENDMDL
MODEL 8
REMARK VINA RESULT:      -7.0      1.707      5.790
REMARK  Name = 
REMARK  3 active torsions:
REMARK  status: ('A' for Active; 'I' for Inactive)
REMARK    1  A    between atoms: C_1  and  O_2
REMARK    2  A    between atoms: O_2  and  C_3
REMARK    3  A    between atoms: C_17  and  O_18
REMARK                            x       y       z     vdW  Elec       q    Type
REMARK                         _______ _______ _______ _____ _____    ______ ____
ROOT
ATOM      1  C   UNL     1       3.800   4.334  18.887  0.00  0.00    +0.000 A 
ATOM      2  C   UNL     1       4.780   5.249  19.282  0.00  0.00    +0.000 A 
ATOM      3  C   UNL     1       5.763   5.660  18.383  0.00  0.00    +0.000 A 
ATOM      4  C   UNL     1       5.774   5.146  17.085  0.00  0.00    +0.000 A 
ATOM      5  C   UNL     1       6.795   5.589  16.130  0.00  0.00    +0.000 A 
ATOM      6  O   UNL     1       7.653   6.405  16.444  0.00  0.00    +0.000 OA
ATOM      7  C   UNL     1       6.734   5.014  14.783  0.00  0.00    +0.000 A 
ATOM      8  C   UNL     1       7.661   5.400  13.812  0.00  0.00    +0.000 A 
ATOM      9  C   UNL     1       7.591   4.844  12.537  0.00  0.00    +0.000 A 
ATOM     10  C   UNL     1       6.598   3.910  12.241  0.00  0.00    +0.000 A 
ATOM     11  C   UNL     1       5.671   3.527  13.219  0.00  0.00    +0.000 A 
ATOM     12  C   UNL     1       5.737   4.084  14.499  0.00  0.00    +0.000 A 
ATOM     13  O   UNL     1       4.792   3.669  15.410  0.00  0.00    +0.000 OA
ATOM     14  C   UNL     1       4.824   4.215  16.675  0.00  0.00    +0.000 A 
ATOM     15  C   UNL     1       3.842   3.806  17.586  0.00  0.00    +0.000 A 
ENDROOT
BRANCH   1  17
ATOM     16  C   UNL     1       2.300   4.836  20.647  0.00  0.00    +0.000 C 
ATOM     17  O   UNL     1       2.805   3.884  19.716  0.00  0.00    +0.000 OA
ENDBRANCH   1  17
BRANCH  15  18
ATOM     18  O   UNL     1       2.892   2.890  17.204  0.00  0.00    +0.000 OA
ATOM     19  H   UNL     1       3.215   2.451  16.400  0.00  0.00    +0.000 HD
ENDBRANCH  15  18
TORSDOF 2
ENDMDL
MODEL 9
REMARK VINA RESULT:      -6.9      4.444      6.225
REMARK  Name = 
REMARK  3 active torsions:
REMARK  status: ('A' for Active; 'I' for Inactive)
REMARK    1  A    between atoms: C_1  and  O_2
REMARK    2  A    between atoms: O_2  and  C_3
REMARK    3  A    between atoms: C_17  and  O_18
REMARK                            x       y       z     vdW  Elec       q    Type
REMARK                         _______ _______ _______ _____ _____    ______ ____
ROOT
ATOM      1  C   UNL     1       3.064   6.352  18.874  0.00  0.00    +0.000 A 
ATOM      2  C   UNL     1       3.039   7.299  17.846  0.00  0.00    +0.000 A 
ATOM      3  C   UNL     1       2.350   8.500  18.012  0.00  0.00    +0.000 A 
ATOM      4  C   UNL     1       1.674   8.752  19.207  0.00  0.00    +0.000 A 
ATOM      5  C   UNL     1       0.964  10.022  19.393  0.00  0.00    +0.000 A 
ATOM      6  O   UNL     1       0.943  10.878  18.517  0.00  0.00    +0.000 OA
ATOM      7  C   UNL     1       0.288  10.219  20.678  0.00  0.00    +0.000 A 
ATOM      8  C   UNL     1      -0.394  11.410  20.938  0.00  0.00    +0.000 A 
ATOM      9  C   UNL     1      -1.032  11.582  22.164  0.00  0.00    +0.000 A 
ATOM     10  C   UNL     1      -0.984  10.566  23.120  0.00  0.00    +0.000 A 
ATOM     11  C   UNL     1      -0.297   9.375  22.854  0.00  0.00    +0.000 A 
ATOM     12  C   UNL     1       0.345   9.199  21.626  0.00  0.00    +0.000 A 
ATOM     13  O   UNL     1       1.006   8.007  21.432  0.00  0.00    +0.000 OA
ATOM     14  C   UNL     1       1.662   7.815  20.236  0.00  0.00    +0.000 A 
ATOM     15  C   UNL     1       2.355   6.610  20.059  0.00  0.00    +0.000 A 
ENDROOT
BRANCH   1  17
ATOM     16  C   UNL     1       5.128   5.200  18.964  0.00  0.00    +0.000 C 
ATOM     17  O   UNL     1       3.717   5.150  18.782  0.00  0.00    +0.000 OA
ENDBRANCH   1  17
BRANCH  15  18
ATOM     18  O   UNL     1       2.361   5.670  21.060  0.00  0.00    +0.000 OA
ATOM     19  H   UNL     1       2.598   4.817  20.660  0.00  0.00    +0.000 HD
ENDBRANCH  15  18
TORSDOF 2
ENDMDL
