MODEL 1
REMARK VINA RESULT:      -7.1      0.000      0.000
REMARK  Name = 
REMARK  5 active torsions:
REMARK  status: ('A' for Active; 'I' for Inactive)
REMARK    1  A    between atoms: C_1  and  C_2
REMARK    2  A    between atoms: C_2  and  N_3
REMARK    3  A    between atoms: N_16  and  C_17
REMARK    4  A    between atoms: C_24  and  C_25
REMARK    5  A    between atoms: C_26  and  C_27
REMARK                            x       y       z     vdW  Elec       q    Type
REMARK                         _______ _______ _______ _____ _____    ______ ____
ROOT
ATOM      1  N   UNL     1      -5.961  14.612  18.861  0.00  0.00    +0.000 N 
ATOM      2  C   UNL     1      -5.537  14.208  20.111  0.00  0.00    +0.000 A 
ATOM      3  N   UNL     1      -5.752  12.911  20.373  0.00  0.00    +0.000 NA
ATOM      4  C   UNL     1      -5.117  12.408  21.444  0.00  0.00    +0.000 A 
ATOM      5  C   UNL     1      -4.287  13.165  22.228  0.00  0.00    +0.000 A 
ATOM      6  C   UNL     1      -4.216  14.523  21.972  0.00  0.00    +0.000 A 
ATOM      7  N   UNL     1      -4.866  15.050  20.919  0.00  0.00    +0.000 NA
ATOM      8  N   UNL     1      -3.472  15.360  22.767  0.00  0.00    +0.000 N 
ATOM      9  C   UNL     1      -4.036  16.525  23.408  0.00  0.00    +0.000 C 
ATOM     10  C   UNL     1      -2.890  17.048  24.273  0.00  0.00    +0.000 C 
ATOM     11  C   UNL     1      -1.618  16.546  23.597  0.00  0.00    +0.000 C 
ATOM     12  C   UNL     1      -2.023  15.250  22.877  0.00  0.00    +0.000 C 
ATOM     13  C   UNL     1      -1.621  13.994  23.661  0.00  0.00    +0.000 C 
ATOM     14  N   UNL     1      -2.088  12.768  22.998  0.00  0.00    +0.000 N 
ATOM     15  C   UNL     1      -3.437  12.512  23.221  0.00  0.00    +0.000 C 
ATOM     16  O   UNL     1      -3.907  11.861  24.142  0.00  0.00    +0.000 OA
ATOM     17  H   UNL     1      -6.648  13.942  18.542  0.00  0.00    +0.000 HD
ENDROOT
BRANCH  14  18
ATOM     18  C   UNL     1      -1.201  11.771  22.600  0.00  0.00    +0.000 A 
ATOM     19  C   UNL     1      -1.083  10.602  23.258  0.00  0.00    +0.000 A 
ATOM     20  C   UNL     1      -0.420   9.462  22.660  0.00  0.00    +0.000 A 
ATOM     21  C   UNL     1      -0.126   9.495  21.361  0.00  0.00    +0.000 A 
ATOM     22  N   UNL     1      -0.240  10.670  20.647  0.00  0.00    +0.000 N 
ATOM     23  C   UNL     1      -0.100  10.688  19.272  0.00  0.00    +0.000 A 
ATOM     24  O   UNL     1       0.140   9.723  18.552  0.00  0.00    +0.000 OA
ATOM     25  C   UNL     1      -0.302  12.039  18.678  0.00  0.00    +0.000 A 
ATOM     26  C   UNL     1      -1.762  12.391  18.459  0.00  0.00    +0.000 C 
ATOM     27  C   UNL     1       0.417  12.891  19.438  0.00  0.00    +0.000 A 
ATOM     28  C   UNL     1       0.957  14.109  18.737  0.00  0.00    +0.000 C 
ATOM     29  N   UNL     1       0.018  13.010  20.767  0.00  0.00    +0.000 NA
ATOM     30  C   UNL     1      -0.409  11.893  21.301  0.00  0.00    +0.000 A 
ENDBRANCH  14  18
BRANCH   1  32
ATOM     31  C   UNL     1      -7.767  16.205  18.723  0.00  0.00    +0.000 C 
ATOM     32  C   UNL     1      -6.259  16.014  18.700  0.00  0.00    +0.000 C 
ENDBRANCH   1  32
TORSDOF 2
ENDMDL
MODEL 2
REMARK VINA RESULT:      -6.9      2.944      7.694
REMARK  Name = 
REMARK  5 active torsions:
REMARK  status: ('A' for Active; 'I' for Inactive)
REMARK    1  A    between atoms: C_1  and  C_2
REMARK    2  A    between atoms: C_2  and  N_3
REMARK    3  A    between atoms: N_16  and  C_17
REMARK    4  A    between atoms: C_24  and  C_25
REMARK    5  A    between atoms: C_26  and  C_27
REMARK                            x       y       z     vdW  Elec       q    Type
REMARK                         _______ _______ _______ _____ _____    ______ ____
ROOT
ATOM      1  N   UNL     1       2.485   6.276  17.888  0.00  0.00    +0.000 N 
ATOM      2  C   UNL     1       2.258   7.546  18.381  0.00  0.00    +0.000 A 
ATOM      3  N   UNL     1       2.302   8.513  17.454  0.00  0.00    +0.000 NA
ATOM      4  C   UNL     1       1.820   9.711  17.821  0.00  0.00    +0.000 A 
ATOM      5  C   UNL     1       1.303   9.942  19.069  0.00  0.00    +0.000 A 
ATOM      6  C   UNL     1       1.410   8.934  20.011  0.00  0.00    +0.000 A 
ATOM      7  N   UNL     1       1.914   7.736  19.668  0.00  0.00    +0.000 NA
ATOM      8  N   UNL     1       0.991   9.122  21.305  0.00  0.00    +0.000 N 
ATOM      9  C   UNL     1       1.860   8.908  22.440  0.00  0.00    +0.000 C 
ATOM     10  C   UNL     1       1.015   9.363  23.629  0.00  0.00    +0.000 C 
ATOM     11  C   UNL     1      -0.433   9.201  23.176  0.00  0.00    +0.000 C 
ATOM     12  C   UNL     1      -0.403   9.368  21.648  0.00  0.00    +0.000 C 
ATOM     13  C   UNL     1      -0.844  10.768  21.203  0.00  0.00    +0.000 C 
ATOM     14  N   UNL     1      -0.731  10.936  19.747  0.00  0.00    +0.000 N 
ATOM     15  C   UNL     1       0.573  11.180  19.330  0.00  0.00    +0.000 C 
ATOM     16  O   UNL     1       1.102  12.276  19.216  0.00  0.00    +0.000 OA
ATOM     17  H   UNL     1       2.972   6.374  17.006  0.00  0.00    +0.000 HD
ENDROOT
BRANCH  14  18
ATOM     18  C   UNL     1      -1.834  11.266  18.964  0.00  0.00    +0.000 A 
ATOM     19  C   UNL     1      -2.206  10.537  17.894  0.00  0.00    +0.000 A 
ATOM     20  C   UNL     1      -3.517  10.686  17.296  0.00  0.00    +0.000 A 
ATOM     21  C   UNL     1      -4.447  11.383  17.949  0.00  0.00    +0.000 A 
ATOM     22  N   UNL     1      -4.111  12.137  19.054  0.00  0.00    +0.000 N 
ATOM     23  C   UNL     1      -5.083  12.730  19.837  0.00  0.00    +0.000 A 
ATOM     24  O   UNL     1      -6.296  12.676  19.657  0.00  0.00    +0.000 OA
ATOM     25  C   UNL     1      -4.528  13.463  21.010  0.00  0.00    +0.000 A 
ATOM     26  C   UNL     1      -4.226  12.565  22.196  0.00  0.00    +0.000 C 
ATOM     27  C   UNL     1      -3.504  14.201  20.535  0.00  0.00    +0.000 A 
ATOM     28  C   UNL     1      -3.223  15.488  21.264  0.00  0.00    +0.000 C 
ATOM     29  N   UNL     1      -2.431  13.489  20.004  0.00  0.00    +0.000 NA
ATOM     30  C   UNL     1      -2.775  12.401  19.363  0.00  0.00    +0.000 A 
ENDBRANCH  14  18
BRANCH   1  32
ATOM     31  C   UNL     1       2.002   4.127  18.873  0.00  0.00    +0.000 C 
ATOM     32  C   UNL     1       2.975   5.295  18.825  0.00  0.00    +0.000 C 
ENDBRANCH   1  32
TORSDOF 2
ENDMDL
MODEL 3
REMARK VINA RESULT:      -6.7      2.966      6.693
REMARK  Name = 
REMARK  5 active torsions:
REMARK  status: ('A' for Active; 'I' for Inactive)
REMARK    1  A    between atoms: C_1  and  C_2
REMARK    2  A    between atoms: C_2  and  N_3
REMARK    3  A    between atoms: N_16  and  C_17
REMARK    4  A    between atoms: C_24  and  C_25
REMARK    5  A    between atoms: C_26  and  C_27
REMARK                            x       y       z     vdW  Elec       q    Type
REMARK                         _______ _______ _______ _____ _____    ______ ____
ROOT
ATOM      1  N   UNL     1       0.812   9.759  18.566  0.00  0.00    +0.000 N 
ATOM      2  C   UNL     1       0.643  11.128  18.635  0.00  0.00    +0.000 A 
ATOM      3  N   UNL     1      -0.631  11.520  18.779  0.00  0.00    +0.000 NA
ATOM      4  C   UNL     1      -0.823  12.802  19.129  0.00  0.00    +0.000 A 
ATOM      5  C   UNL     1       0.218  13.669  19.337  0.00  0.00    +0.000 A 
ATOM      6  C   UNL     1       1.496  13.228  19.044  0.00  0.00    +0.000 A 
ATOM      7  N   UNL     1       1.705  11.954  18.667  0.00  0.00    +0.000 NA
ATOM      8  N   UNL     1       2.580  14.066  19.146  0.00  0.00    +0.000 N 
ATOM      9  C   UNL     1       3.486  14.300  18.045  0.00  0.00    +0.000 C 
ATOM     10  C   UNL     1       4.427  15.379  18.580  0.00  0.00    +0.000 C 
ATOM     11  C   UNL     1       4.393  15.223  20.097  0.00  0.00    +0.000 C 
ATOM     12  C   UNL     1       3.010  14.636  20.416  0.00  0.00    +0.000 C 
ATOM     13  C   UNL     1       2.020  15.702  20.907  0.00  0.00    +0.000 C 
ATOM     14  N   UNL     1       0.681  15.138  21.129  0.00  0.00    +0.000 N 
ATOM     15  C   UNL     1      -0.038  14.970  19.951  0.00  0.00    +0.000 C 
ATOM     16  O   UNL     1      -0.776  15.794  19.430  0.00  0.00    +0.000 OA
ATOM     17  H   UNL     1      -0.076   9.357  18.293  0.00  0.00    +0.000 HD
ENDROOT
BRANCH  14  18
ATOM     18  C   UNL     1       0.059  15.204  22.373  0.00  0.00    +0.000 A 
ATOM     19  C   UNL     1      -0.049  16.353  23.068  0.00  0.00    +0.000 A 
ATOM     20  C   UNL     1      -0.969  16.480  24.179  0.00  0.00    +0.000 A 
ATOM     21  C   UNL     1      -1.883  15.529  24.372  0.00  0.00    +0.000 A 
ATOM     22  N   UNL     1      -1.815  14.340  23.675  0.00  0.00    +0.000 N 
ATOM     23  C   UNL     1      -2.838  13.415  23.738  0.00  0.00    +0.000 A 
ATOM     24  O   UNL     1      -3.874  13.518  24.389  0.00  0.00    +0.000 OA
ATOM     25  C   UNL     1      -2.602  12.217  22.883  0.00  0.00    +0.000 A 
ATOM     26  C   UNL     1      -2.983  12.428  21.429  0.00  0.00    +0.000 C 
ATOM     27  C   UNL     1      -1.333  11.832  23.126  0.00  0.00    +0.000 A 
ATOM     28  C   UNL     1      -1.048  10.361  22.979  0.00  0.00    +0.000 C 
ATOM     29  N   UNL     1      -0.339  12.742  22.768  0.00  0.00    +0.000 NA
ATOM     30  C   UNL     1      -0.667  13.995  22.958  0.00  0.00    +0.000 A 
ENDBRANCH  14  18
BRANCH   1  32
ATOM     31  C   UNL     1       2.308   7.876  18.381  0.00  0.00    +0.000 C 
ATOM     32  C   UNL     1       2.001   9.286  17.901  0.00  0.00    +0.000 C 
ENDBRANCH   1  32
TORSDOF 2
ENDMDL
MODEL 4
REMARK VINA RESULT:      -6.7      2.434      3.981
REMARK  Name = 
REMARK  5 active torsions:
REMARK  status: ('A' for Active; 'I' for Inactive)
REMARK    1  A    between atoms: C_1  and  C_2
REMARK    2  A    between atoms: C_2  and  N_3
REMARK    3  A    between atoms: N_16  and  C_17
REMARK    4  A    between atoms: C_24  and  C_25
REMARK    5  A    between atoms: C_26  and  C_27
REMARK                            x       y       z     vdW  Elec       q    Type
REMARK                         _______ _______ _______ _____ _____    ______ ____
ROOT
ATOM      1  N   UNL     1      -4.688  12.273  22.548  0.00  0.00    +0.000 N 
ATOM      2  C   UNL     1      -3.502  12.978  22.595  0.00  0.00    +0.000 A 
ATOM      3  N   UNL     1      -2.428  12.231  22.886  0.00  0.00    +0.000 NA
ATOM      4  C   UNL     1      -1.231  12.802  22.671  0.00  0.00    +0.000 A 
ATOM      5  C   UNL     1      -1.103  14.073  22.176  0.00  0.00    +0.000 A 
ATOM      6  C   UNL     1      -2.253  14.827  22.023  0.00  0.00    +0.000 A 
ATOM      7  N   UNL     1      -3.459  14.281  22.258  0.00  0.00    +0.000 NA
ATOM      8  N   UNL     1      -2.197  16.137  21.613  0.00  0.00    +0.000 N 
ATOM      9  C   UNL     1      -2.790  17.213  22.372  0.00  0.00    +0.000 C 
ATOM     10  C   UNL     1      -2.363  18.467  21.610  0.00  0.00    +0.000 C 
ATOM     11  C   UNL     1      -2.115  17.999  20.179  0.00  0.00    +0.000 C 
ATOM     12  C   UNL     1      -1.704  16.524  20.298  0.00  0.00    +0.000 C 
ATOM     13  C   UNL     1      -0.185  16.328  20.197  0.00  0.00    +0.000 C 
ATOM     14  N   UNL     1       0.196  14.923  20.394  0.00  0.00    +0.000 N 
ATOM     15  C   UNL     1       0.206  14.547  21.733  0.00  0.00    +0.000 C 
ATOM     16  O   UNL     1       1.157  14.621  22.498  0.00  0.00    +0.000 OA
ATOM     17  H   UNL     1      -4.555  11.419  23.075  0.00  0.00    +0.000 HD
ENDROOT
BRANCH  14  18
ATOM     18  C   UNL     1       0.894  14.213  19.420  0.00  0.00    +0.000 A 
ATOM     19  C   UNL     1       2.147  14.537  19.046  0.00  0.00    +0.000 A 
ATOM     20  C   UNL     1       2.974  13.616  18.294  0.00  0.00    +0.000 A 
ATOM     21  C   UNL     1       2.578  12.350  18.169  0.00  0.00    +0.000 A 
ATOM     22  N   UNL     1       1.306  11.972  18.548  0.00  0.00    +0.000 N 
ATOM     23  C   UNL     1       0.935  10.642  18.580  0.00  0.00    +0.000 A 
ATOM     24  O   UNL     1       1.642   9.682  18.286  0.00  0.00    +0.000 OA
ATOM     25  C   UNL     1      -0.460  10.431  19.057  0.00  0.00    +0.000 A 
ATOM     26  C   UNL     1      -0.588  10.427  20.569  0.00  0.00    +0.000 C 
ATOM     27  C   UNL     1      -1.219  11.325  18.390  0.00  0.00    +0.000 A 
ATOM     28  C   UNL     1      -2.646  10.918  18.132  0.00  0.00    +0.000 C 
ATOM     29  N   UNL     1      -0.944  12.668  18.637  0.00  0.00    +0.000 NA
ATOM     30  C   UNL     1       0.326  12.929  18.820  0.00  0.00    +0.000 A 
ENDBRANCH  14  18
BRANCH   1  32
ATOM     31  C   UNL     1      -6.411  12.727  24.174  0.00  0.00    +0.000 C 
ATOM     32  C   UNL     1      -5.898  13.024  22.774  0.00  0.00    +0.000 C 
ENDBRANCH   1  32
TORSDOF 2
ENDMDL
MODEL 5
REMARK VINA RESULT:      -6.7      8.784     11.540
REMARK  Name = 
REMARK  5 active torsions:
REMARK  status: ('A' for Active; 'I' for Inactive)
REMARK    1  A    between atoms: C_1  and  C_2
REMARK    2  A    between atoms: C_2  and  N_3
REMARK    3  A    between atoms: N_16  and  C_17
REMARK    4  A    between atoms: C_24  and  C_25
REMARK    5  A    between atoms: C_26  and  C_27
REMARK                            x       y       z     vdW  Elec       q    Type
REMARK                         _______ _______ _______ _____ _____    ______ ____
ROOT
ATOM      1  N   UNL     1       5.846  10.843  26.489  0.00  0.00    +0.000 N 
ATOM      2  C   UNL     1       6.481  11.874  25.825  0.00  0.00    +0.000 A 
ATOM      3  N   UNL     1       7.813  11.887  25.974  0.00  0.00    +0.000 NA
ATOM      4  C   UNL     1       8.496  12.684  25.137  0.00  0.00    +0.000 A 
ATOM      5  C   UNL     1       7.879  13.440  24.175  0.00  0.00    +0.000 A 
ATOM      6  C   UNL     1       6.495  13.473  24.168  0.00  0.00    +0.000 A 
ATOM      7  N   UNL     1       5.793  12.701  25.016  0.00  0.00    +0.000 NA
ATOM      8  N   UNL     1       5.807  14.274  23.289  0.00  0.00    +0.000 N 
ATOM      9  C   UNL     1       4.832  15.246  23.727  0.00  0.00    +0.000 C 
ATOM     10  C   UNL     1       4.443  15.969  22.438  0.00  0.00    +0.000 C 
ATOM     11  C   UNL     1       4.728  14.972  21.319  0.00  0.00    +0.000 C 
ATOM     12  C   UNL     1       5.864  14.080  21.846  0.00  0.00    +0.000 C 
ATOM     13  C   UNL     1       7.234  14.485  21.287  0.00  0.00    +0.000 C 
ATOM     14  N   UNL     1       8.317  13.676  21.865  0.00  0.00    +0.000 N 
ATOM     15  C   UNL     1       8.681  14.090  23.142  0.00  0.00    +0.000 C 
ATOM     16  O   UNL     1       9.534  14.922  23.416  0.00  0.00    +0.000 OA
ATOM     17  H   UNL     1       6.468  10.523  27.220  0.00  0.00    +0.000 HD
ENDROOT
BRANCH  14  18
ATOM     18  C   UNL     1       9.163  12.912  21.065  0.00  0.00    +0.000 A 
ATOM     19  C   UNL     1       9.068  11.571  20.984  0.00  0.00    +0.000 A 
ATOM     20  C   UNL     1       9.712  10.830  19.921  0.00  0.00    +0.000 A 
ATOM     21  C   UNL     1      10.212  11.497  18.881  0.00  0.00    +0.000 A 
ATOM     22  N   UNL     1      10.320  12.872  18.917  0.00  0.00    +0.000 N 
ATOM     23  C   UNL     1      10.679  13.591  17.794  0.00  0.00    +0.000 A 
ATOM     24  O   UNL     1      10.942  13.129  16.687  0.00  0.00    +0.000 OA
ATOM     25  C   UNL     1      10.697  15.064  18.018  0.00  0.00    +0.000 A 
ATOM     26  C   UNL     1       9.329  15.710  17.903  0.00  0.00    +0.000 C 
ATOM     27  C   UNL     1      11.359  15.255  19.178  0.00  0.00    +0.000 A 
ATOM     28  C   UNL     1      12.112  16.552  19.304  0.00  0.00    +0.000 C 
ATOM     29  N   UNL     1      10.765  14.715  20.317  0.00  0.00    +0.000 NA
ATOM     30  C   UNL     1      10.160  13.573  20.116  0.00  0.00    +0.000 A 
ENDBRANCH  14  18
BRANCH   1  32
ATOM     31  C   UNL     1       3.840   9.711  27.208  0.00  0.00    +0.000 C 
ATOM     32  C   UNL     1       4.458  11.047  26.825  0.00  0.00    +0.000 C 
ENDBRANCH   1  32
TORSDOF 2
ENDMDL
MODEL 6
REMARK VINA RESULT:      -6.5      3.544      5.338
REMARK  Name = 
REMARK  5 active torsions:
REMARK  status: ('A' for Active; 'I' for Inactive)
REMARK    1  A    between atoms: C_1  and  C_2
REMARK    2  A    between atoms: C_2  and  N_3
REMARK    3  A    between atoms: N_16  and  C_17
REMARK    4  A    between atoms: C_24  and  C_25
REMARK    5  A    between atoms: C_26  and  C_27
REMARK                            x       y       z     vdW  Elec       q    Type
REMARK                         _______ _______ _______ _____ _____    ______ ____
ROOT
ATOM      1  N   UNL     1      -3.779  11.711  17.565  0.00  0.00    +0.000 N 
ATOM      2  C   UNL     1      -2.829  11.604  18.561  0.00  0.00    +0.000 A 
ATOM      3  N   UNL     1      -1.801  10.799  18.259  0.00  0.00    +0.000 NA
ATOM      4  C   UNL     1      -0.728  10.877  19.062  0.00  0.00    +0.000 A 
ATOM      5  C   UNL     1      -0.672  11.733  20.130  0.00  0.00    +0.000 A 
ATOM      6  C   UNL     1      -1.818  12.438  20.456  0.00  0.00    +0.000 A 
ATOM      7  N   UNL     1      -2.911  12.352  19.678  0.00  0.00    +0.000 NA
ATOM      8  N   UNL     1      -1.865  13.250  21.562  0.00  0.00    +0.000 N 
ATOM      9  C   UNL     1      -2.866  13.101  22.593  0.00  0.00    +0.000 C 
ATOM     10  C   UNL     1      -2.440  14.113  23.655  0.00  0.00    +0.000 C 
ATOM     11  C   UNL     1      -1.639  15.170  22.902  0.00  0.00    +0.000 C 
ATOM     12  C   UNL     1      -1.032  14.439  21.695  0.00  0.00    +0.000 C 
ATOM     13  C   UNL     1       0.439  14.062  21.917  0.00  0.00    +0.000 C 
ATOM     14  N   UNL     1       0.979  13.292  20.787  0.00  0.00    +0.000 N 
ATOM     15  C   UNL     1       0.600  11.954  20.814  0.00  0.00    +0.000 C 
ATOM     16  O   UNL     1       1.203  11.042  21.361  0.00  0.00    +0.000 OA
ATOM     17  H   UNL     1      -3.680  10.903  16.963  0.00  0.00    +0.000 HD
ENDROOT
BRANCH  14  18
ATOM     18  C   UNL     1       2.083  13.735  20.065  0.00  0.00    +0.000 A 
ATOM     19  C   UNL     1       2.058  13.892  18.728  0.00  0.00    +0.000 A 
ATOM     20  C   UNL     1       3.077  14.655  18.036  0.00  0.00    +0.000 A 
ATOM     21  C   UNL     1       3.919  15.400  18.751  0.00  0.00    +0.000 A 
ATOM     22  N   UNL     1       3.973  15.277  20.124  0.00  0.00    +0.000 N 
ATOM     23  C   UNL     1       4.716  16.152  20.892  0.00  0.00    +0.000 A 
ATOM     24  O   UNL     1       5.392  17.090  20.479  0.00  0.00    +0.000 OA
ATOM     25  C   UNL     1       4.613  15.886  22.354  0.00  0.00    +0.000 A 
ATOM     26  C   UNL     1       3.377  16.492  22.993  0.00  0.00    +0.000 C 
ATOM     27  C   UNL     1       4.778  14.555  22.502  0.00  0.00    +0.000 A 
ATOM     28  C   UNL     1       5.395  14.105  23.799  0.00  0.00    +0.000 C 
ATOM     29  N   UNL     1       3.807  13.749  21.911  0.00  0.00    +0.000 NA
ATOM     30  C   UNL     1       3.351  14.207  20.772  0.00  0.00    +0.000 A 
ENDBRANCH  14  18
BRANCH   1  32
ATOM     31  C   UNL     1      -5.872  10.842  18.392  0.00  0.00    +0.000 C 
ATOM     32  C   UNL     1      -5.109  12.089  17.976  0.00  0.00    +0.000 C 
ENDBRANCH   1  32
TORSDOF 2
ENDMDL
MODEL 7
REMARK VINA RESULT:      -6.4      3.808      6.272
REMARK  Name = 
REMARK  5 active torsions:
REMARK  status: ('A' for Active; 'I' for Inactive)
REMARK    1  A    between atoms: C_1  and  C_2
REMARK    2  A    between atoms: C_2  and  N_3
REMARK    3  A    between atoms: N_16  and  C_17
REMARK    4  A    between atoms: C_24  and  C_25
REMARK    5  A    between atoms: C_26  and  C_27
REMARK                            x       y       z     vdW  Elec       q    Type
REMARK                         _______ _______ _______ _____ _____    ______ ____
ROOT
ATOM      1  N   UNL     1      -1.805  10.069  16.664  0.00  0.00    +0.000 N 
ATOM      2  C   UNL     1      -1.224  10.568  17.812  0.00  0.00    +0.000 A 
ATOM      3  N   UNL     1      -0.015  10.057  18.085  0.00  0.00    +0.000 NA
ATOM      4  C   UNL     1       0.705  10.699  19.018  0.00  0.00    +0.000 A 
ATOM      5  C   UNL     1       0.245  11.821  19.657  0.00  0.00    +0.000 A 
ATOM      6  C   UNL     1      -1.060  12.213  19.417  0.00  0.00    +0.000 A 
ATOM      7  N   UNL     1      -1.806  11.565  18.505  0.00  0.00    +0.000 NA
ATOM      8  N   UNL     1      -1.619  13.276  20.083  0.00  0.00    +0.000 N 
ATOM      9  C   UNL     1      -2.848  13.160  20.835  0.00  0.00    +0.000 C 
ATOM     10  C   UNL     1      -2.995  14.532  21.493  0.00  0.00    +0.000 C 
ATOM     11  C   UNL     1      -2.221  15.491  20.595  0.00  0.00    +0.000 C 
ATOM     12  C   UNL     1      -1.126  14.638  19.935  0.00  0.00    +0.000 C 
ATOM     13  C   UNL     1       0.240  14.810  20.613  0.00  0.00    +0.000 C 
ATOM     14  N   UNL     1       1.255  13.926  20.022  0.00  0.00    +0.000 N 
ATOM     15  C   UNL     1       1.160  12.614  20.473  0.00  0.00    +0.000 C 
ATOM     16  O   UNL     1       1.724  12.144  21.451  0.00  0.00    +0.000 OA
ATOM     17  H   UNL     1      -1.361   9.183  16.458  0.00  0.00    +0.000 HD
ENDROOT
BRANCH  14  18
ATOM     18  C   UNL     1       2.422  14.433  19.456  0.00  0.00    +0.000 A 
ATOM     19  C   UNL     1       2.652  14.412  18.130  0.00  0.00    +0.000 A 
ATOM     20  C   UNL     1       3.691  15.223  17.530  0.00  0.00    +0.000 A 
ATOM     21  C   UNL     1       4.272  16.172  18.263  0.00  0.00    +0.000 A 
ATOM     22  N   UNL     1       4.058  16.235  19.624  0.00  0.00    +0.000 N 
ATOM     23  C   UNL     1       4.517  17.302  20.372  0.00  0.00    +0.000 A 
ATOM     24  O   UNL     1       5.144  18.270  19.950  0.00  0.00    +0.000 OA
ATOM     25  C   UNL     1       4.149  17.213  21.813  0.00  0.00    +0.000 A 
ATOM     26  C   UNL     1       2.744  17.705  22.110  0.00  0.00    +0.000 C 
ATOM     27  C   UNL     1       4.440  15.952  22.193  0.00  0.00    +0.000 A 
ATOM     28  C   UNL     1       4.828  15.770  23.636  0.00  0.00    +0.000 C 
ATOM     29  N   UNL     1       3.716  14.941  21.565  0.00  0.00    +0.000 NA
ATOM     30  C   UNL     1       3.451  15.176  20.305  0.00  0.00    +0.000 A 
ENDBRANCH  14  18
BRANCH   1  32
ATOM     31  C   UNL     1      -3.646  10.397  15.139  0.00  0.00    +0.000 C 
ATOM     32  C   UNL     1      -3.244  10.139  16.583  0.00  0.00    +0.000 C 
ENDBRANCH   1  32
TORSDOF 2
ENDMDL
MODEL 8
REMARK VINA RESULT:      -6.4      2.920      4.813
REMARK  Name = 
REMARK  5 active torsions:
REMARK  status: ('A' for Active; 'I' for Inactive)
REMARK    1  A    between atoms: C_1  and  C_2
REMARK    2  A    between atoms: C_2  and  N_3
REMARK    3  A    between atoms: N_16  and  C_17
REMARK    4  A    between atoms: C_24  and  C_25
REMARK    5  A    between atoms: C_26  and  C_27
REMARK                            x       y       z     vdW  Elec       q    Type
REMARK                         _______ _______ _______ _____ _____    ______ ____
ROOT
ATOM      1  N   UNL     1      -4.375  11.879  17.339  0.00  0.00    +0.000 N 
ATOM      2  C   UNL     1      -3.386  11.678  18.281  0.00  0.00    +0.000 A 
ATOM      3  N   UNL     1      -2.345  10.957  17.841  0.00  0.00    +0.000 NA
ATOM      4  C   UNL     1      -1.246  10.968  18.612  0.00  0.00    +0.000 A 
ATOM      5  C   UNL     1      -1.178  11.679  19.782  0.00  0.00    +0.000 A 
ATOM      6  C   UNL     1      -2.333  12.292  20.235  0.00  0.00    +0.000 A 
ATOM      7  N   UNL     1      -3.451  12.269  19.488  0.00  0.00    +0.000 NA
ATOM      8  N   UNL     1      -2.364  12.950  21.440  0.00  0.00    +0.000 N 
ATOM      9  C   UNL     1      -3.321  12.630  22.473  0.00  0.00    +0.000 C 
ATOM     10  C   UNL     1      -2.889  13.509  23.646  0.00  0.00    +0.000 C 
ATOM     11  C   UNL     1      -2.151  14.685  23.014  0.00  0.00    +0.000 C 
ATOM     12  C   UNL     1      -1.566  14.141  21.701  0.00  0.00    +0.000 C 
ATOM     13  C   UNL     1      -0.076  13.792  21.824  0.00  0.00    +0.000 C 
ATOM     14  N   UNL     1       0.446  13.197  20.585  0.00  0.00    +0.000 N 
ATOM     15  C   UNL     1       0.111  11.854  20.446  0.00  0.00    +0.000 C 
ATOM     16  O   UNL     1       0.763  10.902  20.849  0.00  0.00    +0.000 OA
ATOM     17  H   UNL     1      -4.273  11.162  16.632  0.00  0.00    +0.000 HD
ENDROOT
BRANCH  14  18
ATOM     18  C   UNL     1       1.508  13.771  19.892  0.00  0.00    +0.000 A 
ATOM     19  C   UNL     1       2.380  13.042  19.170  0.00  0.00    +0.000 A 
ATOM     20  C   UNL     1       3.262  13.659  18.201  0.00  0.00    +0.000 A 
ATOM     21  C   UNL     1       3.050  14.928  17.853  0.00  0.00    +0.000 A 
ATOM     22  N   UNL     1       2.159  15.709  18.559  0.00  0.00    +0.000 N 
ATOM     23  C   UNL     1       1.803  16.968  18.116  0.00  0.00    +0.000 A 
ATOM     24  O   UNL     1       2.216  17.527  17.104  0.00  0.00    +0.000 OA
ATOM     25  C   UNL     1       0.797  17.637  18.988  0.00  0.00    +0.000 A 
ATOM     26  C   UNL     1      -0.631  17.213  18.696  0.00  0.00    +0.000 C 
ATOM     27  C   UNL     1       1.231  17.468  20.253  0.00  0.00    +0.000 A 
ATOM     28  C   UNL     1       0.855  18.549  21.231  0.00  0.00    +0.000 C 
ATOM     29  N   UNL     1       1.295  16.152  20.707  0.00  0.00    +0.000 NA
ATOM     30  C   UNL     1       1.658  15.288  19.794  0.00  0.00    +0.000 A 
ENDBRANCH  14  18
BRANCH   1  32
ATOM     31  C   UNL     1      -6.373  10.837  18.200  0.00  0.00    +0.000 C 
ATOM     32  C   UNL     1      -5.700  12.152  17.839  0.00  0.00    +0.000 C 
ENDBRANCH   1  32
TORSDOF 2
ENDMDL
MODEL 9
REMARK VINA RESULT:      -6.4      2.812      6.647
REMARK  Name = 
REMARK  5 active torsions:
REMARK  status: ('A' for Active; 'I' for Inactive)
REMARK    1  A    between atoms: C_1  and  C_2
REMARK    2  A    between atoms: C_2  and  N_3
REMARK    3  A    between atoms: N_16  and  C_17
REMARK    4  A    between atoms: C_24  and  C_25
REMARK    5  A    between atoms: C_26  and  C_27
REMARK                            x       y       z     vdW  Elec       q    Type
REMARK                         _______ _______ _______ _____ _____    ______ ____
ROOT
ATOM      1  N   UNL     1       4.769  15.154  19.409  0.00  0.00    +0.000 N 
ATOM      2  C   UNL     1       3.481  14.884  18.992  0.00  0.00    +0.000 A 
ATOM      3  N   UNL     1       3.281  13.615  18.608  0.00  0.00    +0.000 NA
ATOM      4  C   UNL     1       2.002  13.233  18.463  0.00  0.00    +0.000 A 
ATOM      5  C   UNL     1       0.951  14.080  18.698  0.00  0.00    +0.000 A 
ATOM      6  C   UNL     1       1.238  15.408  18.965  0.00  0.00    +0.000 A 
ATOM      7  N   UNL     1       2.513  15.815  19.088  0.00  0.00    +0.000 NA
ATOM      8  N   UNL     1       0.237  16.334  19.128  0.00  0.00    +0.000 N 
ATOM      9  C   UNL     1       0.166  17.545  18.343  0.00  0.00    +0.000 C 
ATOM     10  C   UNL     1      -1.158  18.174  18.775  0.00  0.00    +0.000 C 
ATOM     11  C   UNL     1      -1.419  17.633  20.177  0.00  0.00    +0.000 C 
ATOM     12  C   UNL     1      -0.722  16.264  20.223  0.00  0.00    +0.000 C 
ATOM     13  C   UNL     1      -1.702  15.100  20.028  0.00  0.00    +0.000 C 
ATOM     14  N   UNL     1      -1.007  13.805  19.992  0.00  0.00    +0.000 N 
ATOM     15  C   UNL     1      -0.407  13.546  18.765  0.00  0.00    +0.000 C 
ATOM     16  O   UNL     1      -0.923  12.979  17.813  0.00  0.00    +0.000 OA
ATOM     17  H   UNL     1       5.372  14.442  19.018  0.00  0.00    +0.000 HD
ENDROOT
BRANCH  14  18
ATOM     18  C   UNL     1      -1.306  12.792  20.899  0.00  0.00    +0.000 A 
ATOM     19  C   UNL     1      -0.354  12.080  21.530  0.00  0.00    +0.000 A 
ATOM     20  C   UNL     1      -0.658  11.276  22.695  0.00  0.00    +0.000 A 
ATOM     21  C   UNL     1      -1.843  11.421  23.287  0.00  0.00    +0.000 A 
ATOM     22  N   UNL     1      -2.845  12.148  22.680  0.00  0.00    +0.000 N 
ATOM     23  C   UNL     1      -4.017  12.448  23.347  0.00  0.00    +0.000 A 
ATOM     24  O   UNL     1      -4.306  12.117  24.494  0.00  0.00    +0.000 OA
ATOM     25  C   UNL     1      -4.957  13.278  22.543  0.00  0.00    +0.000 A 
ATOM     26  C   UNL     1      -4.641  14.762  22.588  0.00  0.00    +0.000 C 
ATOM     27  C   UNL     1      -5.006  12.707  21.322  0.00  0.00    +0.000 A 
ATOM     28  C   UNL     1      -6.300  12.866  20.569  0.00  0.00    +0.000 C 
ATOM     29  N   UNL     1      -3.813  12.699  20.603  0.00  0.00    +0.000 NA
ATOM     30  C   UNL     1      -2.745  12.526  21.338  0.00  0.00    +0.000 A 
ENDBRANCH  14  18
BRANCH   1  32
ATOM     31  C   UNL     1       6.604  16.568  18.737  0.00  0.00    +0.000 C 
ATOM     32  C   UNL     1       5.202  16.527  19.325  0.00  0.00    +0.000 C 
ENDBRANCH   1  32
TORSDOF 2
ENDMDL
