MODEL 1
REMARK VINA RESULT:      -8.7      0.000      0.000
REMARK  Name = 
REMARK  6 active torsions:
REMARK  status: ('A' for Active; 'I' for Inactive)
REMARK    1  A    between atoms: C_1  and  O_2
REMARK    2  A    between atoms: O_2  and  N_3
REMARK    3  A    between atoms: N_3  and  C_4
REMARK    4  A    between atoms: C_5  and  C_7
REMARK    5  A    between atoms: C_10  and  C_11
REMARK    6  A    between atoms: C_13  and  C_14
REMARK                            x       y       z     vdW  Elec       q    Type
REMARK                         _______ _______ _______ _____ _____    ______ ____
ROOT
ATOM      1  C   UNL     1       3.035   5.675  18.262  0.00  0.00    +0.000 A 
ATOM      2  N   UNL     1       4.045   5.705  17.319  0.00  0.00    +0.000 NA
ATOM      3  C   UNL     1       4.367   4.450  17.085  0.00  0.00    +0.000 A 
ATOM      4  N   UNL     1       3.582   3.596  17.824  0.00  0.00    +0.000 N 
ATOM      5  C   UNL     1       3.555   2.218  17.910  0.00  0.00    +0.000 A 
ATOM      6  C   UNL     1       2.675   1.653  18.748  0.00  0.00    +0.000 A 
ATOM      7  N   UNL     1       1.783   2.365  19.518  0.00  0.00    +0.000 NA
ATOM      8  C   UNL     1       1.779   3.677  19.447  0.00  0.00    +0.000 A 
ATOM      9  N   UNL     1       0.831   4.282  20.223  0.00  0.00    +0.000 N 
ATOM     10  C   UNL     1       2.717   4.367  18.582  0.00  0.00    +0.000 A 
ATOM     11  H   UNL     1       0.181   3.604  20.599  0.00  0.00    +0.000 HD
ATOM     12  H   UNL     1       0.371   5.078  19.799  0.00  0.00    +0.000 HD
ENDROOT
BRANCH   1  16
ATOM     13  C   UNL     1       1.287   9.347  19.580  0.00  0.00    +0.000 A 
ATOM     14  C   UNL     1       1.694   9.179  18.254  0.00  0.00    +0.000 A 
ATOM     15  C   UNL     1       2.240   7.960  17.835  0.00  0.00    +0.000 A 
ATOM     16  C   UNL     1       2.445   6.911  18.743  0.00  0.00    +0.000 A 
ATOM     17  C   UNL     1       2.129   7.124  20.086  0.00  0.00    +0.000 A 
ATOM     18  C   UNL     1       1.518   8.313  20.496  0.00  0.00    +0.000 A 
BRANCH  13  21
ATOM     19  N   UNL     1      -0.254  11.286  19.323  0.00  0.00    +0.000 N 
ATOM     20  C   UNL     1      -1.393  10.575  18.760  0.00  0.00    +0.000 C 
ATOM     21  C   UNL     1       0.718  10.626  20.094  0.00  0.00    +0.000 C 
ATOM     22  O   UNL     1       1.172  11.066  21.152  0.00  0.00    +0.000 OA
BRANCH  19  24
ATOM     23  C   UNL     1      -2.155  12.270  20.192  0.00  0.00    +0.000 C 
ATOM     24  O   UNL     1      -0.745  12.417  20.049  0.00  0.00    +0.000 OA
ENDBRANCH  19  24
ENDBRANCH  13  21
ENDBRANCH   1  16
BRANCH   3  25
ATOM     25  C   UNL     1       5.496   4.038  16.145  0.00  0.00    +0.000 C 
ATOM     26  C   UNL     1       5.552   4.805  14.791  0.00  0.00    +0.000 C 
ATOM     27  C   UNL     1       7.078   4.897  14.966  0.00  0.00    +0.000 C 
ATOM     28  C   UNL     1       6.838   4.761  16.477  0.00  0.00    +0.000 C 
ENDBRANCH   3  25
TORSDOF 4
ENDMDL
MODEL 2
REMARK VINA RESULT:      -8.3      1.018      1.183
REMARK  Name = 
REMARK  6 active torsions:
REMARK  status: ('A' for Active; 'I' for Inactive)
REMARK    1  A    between atoms: C_1  and  O_2
REMARK    2  A    between atoms: O_2  and  N_3
REMARK    3  A    between atoms: N_3  and  C_4
REMARK    4  A    between atoms: C_5  and  C_7
REMARK    5  A    between atoms: C_10  and  C_11
REMARK    6  A    between atoms: C_13  and  C_14
REMARK                            x       y       z     vdW  Elec       q    Type
REMARK                         _______ _______ _______ _____ _____    ______ ____
ROOT
ATOM      1  C   UNL     1       3.070   5.747  18.174  0.00  0.00    +0.000 A 
ATOM      2  N   UNL     1       4.103   5.766  17.256  0.00  0.00    +0.000 NA
ATOM      3  C   UNL     1       4.468   4.512  17.088  0.00  0.00    +0.000 A 
ATOM      4  N   UNL     1       3.691   3.669  17.847  0.00  0.00    +0.000 N 
ATOM      5  C   UNL     1       3.703   2.296  17.996  0.00  0.00    +0.000 A 
ATOM      6  C   UNL     1       2.820   1.742  18.838  0.00  0.00    +0.000 A 
ATOM      7  N   UNL     1       1.886   2.461  19.552  0.00  0.00    +0.000 NA
ATOM      8  C   UNL     1       1.845   3.767  19.420  0.00  0.00    +0.000 A 
ATOM      9  N   UNL     1       0.860   4.377  20.144  0.00  0.00    +0.000 N 
ATOM     10  C   UNL     1       2.784   4.446  18.547  0.00  0.00    +0.000 A 
ATOM     11  H   UNL     1       0.220   3.697  20.535  0.00  0.00    +0.000 HD
ATOM     12  H   UNL     1       0.387   5.138  19.673  0.00  0.00    +0.000 HD
ENDROOT
BRANCH   1  16
ATOM     13  C   UNL     1       1.169   9.413  19.278  0.00  0.00    +0.000 A 
ATOM     14  C   UNL     1       1.487   9.141  17.945  0.00  0.00    +0.000 A 
ATOM     15  C   UNL     1       2.086   7.924  17.601  0.00  0.00    +0.000 A 
ATOM     16  C   UNL     1       2.431   6.985  18.583  0.00  0.00    +0.000 A 
ATOM     17  C   UNL     1       2.201   7.309  19.921  0.00  0.00    +0.000 A 
ATOM     18  C   UNL     1       1.539   8.492  20.266  0.00  0.00    +0.000 A 
BRANCH  13  21
ATOM     19  N   UNL     1       1.334  11.864  19.687  0.00  0.00    +0.000 N 
ATOM     20  C   UNL     1       2.136  12.216  18.525  0.00  0.00    +0.000 C 
ATOM     21  C   UNL     1       0.549  10.699  19.714  0.00  0.00    +0.000 C 
ATOM     22  O   UNL     1      -0.611  10.659  20.128  0.00  0.00    +0.000 OA
BRANCH  19  24
ATOM     23  C   UNL     1       0.399  13.813  18.872  0.00  0.00    +0.000 C 
ATOM     24  O   UNL     1       0.519  12.989  20.029  0.00  0.00    +0.000 OA
ENDBRANCH  19  24
ENDBRANCH  13  21
ENDBRANCH   1  16
BRANCH   3  25
ATOM     25  C   UNL     1       5.633   4.093  16.196  0.00  0.00    +0.000 C 
ATOM     26  C   UNL     1       5.503   4.492  14.697  0.00  0.00    +0.000 C 
ATOM     27  C   UNL     1       6.985   4.905  14.732  0.00  0.00    +0.000 C 
ATOM     28  C   UNL     1       6.814   5.111  16.244  0.00  0.00    +0.000 C 
ENDBRANCH   3  25
TORSDOF 4
ENDMDL
MODEL 3
REMARK VINA RESULT:      -8.3      1.004      1.141
REMARK  Name = 
REMARK  6 active torsions:
REMARK  status: ('A' for Active; 'I' for Inactive)
REMARK    1  A    between atoms: C_1  and  O_2
REMARK    2  A    between atoms: O_2  and  N_3
REMARK    3  A    between atoms: N_3  and  C_4
REMARK    4  A    between atoms: C_5  and  C_7
REMARK    5  A    between atoms: C_10  and  C_11
REMARK    6  A    between atoms: C_13  and  C_14
REMARK                            x       y       z     vdW  Elec       q    Type
REMARK                         _______ _______ _______ _____ _____    ______ ____
ROOT
ATOM      1  C   UNL     1       3.102   5.542  18.248  0.00  0.00    +0.000 A 
ATOM      2  N   UNL     1       4.131   5.614  17.327  0.00  0.00    +0.000 NA
ATOM      3  C   UNL     1       4.469   4.371  17.055  0.00  0.00    +0.000 A 
ATOM      4  N   UNL     1       3.678   3.485  17.748  0.00  0.00    +0.000 N 
ATOM      5  C   UNL     1       3.662   2.105  17.786  0.00  0.00    +0.000 A 
ATOM      6  C   UNL     1       2.771   1.502  18.585  0.00  0.00    +0.000 A 
ATOM      7  N   UNL     1       1.856   2.180  19.361  0.00  0.00    +0.000 NA
ATOM      8  C   UNL     1       1.842   3.493  19.336  0.00  0.00    +0.000 A 
ATOM      9  N   UNL     1       0.874   4.062  20.114  0.00  0.00    +0.000 N 
ATOM     10  C   UNL     1       2.791   4.221  18.515  0.00  0.00    +0.000 A 
ATOM     11  H   UNL     1       0.222   3.366  20.453  0.00  0.00    +0.000 HD
ATOM     12  H   UNL     1       0.414   4.868  19.709  0.00  0.00    +0.000 HD
ENDROOT
BRANCH   1  16
ATOM     13  C   UNL     1       1.287   9.146  19.658  0.00  0.00    +0.000 A 
ATOM     14  C   UNL     1       1.629   8.991  18.312  0.00  0.00    +0.000 A 
ATOM     15  C   UNL     1       2.198   7.794  17.865  0.00  0.00    +0.000 A 
ATOM     16  C   UNL     1       2.492   6.755  18.760  0.00  0.00    +0.000 A 
ATOM     17  C   UNL     1       2.240   6.958  20.118  0.00  0.00    +0.000 A 
ATOM     18  C   UNL     1       1.606   8.123  20.560  0.00  0.00    +0.000 A 
BRANCH  13  21
ATOM     19  N   UNL     1      -0.359  10.305  21.124  0.00  0.00    +0.000 N 
ATOM     20  C   UNL     1      -0.292   9.403  22.265  0.00  0.00    +0.000 C 
ATOM     21  C   UNL     1       0.697  10.404  20.202  0.00  0.00    +0.000 C 
ATOM     22  O   UNL     1       1.136  11.471  19.771  0.00  0.00    +0.000 OA
BRANCH  19  24
ATOM     23  C   UNL     1      -1.287  11.470  22.890  0.00  0.00    +0.000 C 
ATOM     24  O   UNL     1      -0.692  11.611  21.603  0.00  0.00    +0.000 OA
ENDBRANCH  19  24
ENDBRANCH  13  21
ENDBRANCH   1  16
BRANCH   3  25
ATOM     25  C   UNL     1       5.620   4.002  16.125  0.00  0.00    +0.000 C 
ATOM     26  C   UNL     1       5.497   4.532  14.666  0.00  0.00    +0.000 C 
ATOM     27  C   UNL     1       6.988   4.904  14.730  0.00  0.00    +0.000 C 
ATOM     28  C   UNL     1       6.827   4.982  16.255  0.00  0.00    +0.000 C 
ENDBRANCH   3  25
TORSDOF 4
ENDMDL
MODEL 4
REMARK VINA RESULT:      -8.2      0.969      1.370
REMARK  Name = 
REMARK  6 active torsions:
REMARK  status: ('A' for Active; 'I' for Inactive)
REMARK    1  A    between atoms: C_1  and  O_2
REMARK    2  A    between atoms: O_2  and  N_3
REMARK    3  A    between atoms: N_3  and  C_4
REMARK    4  A    between atoms: C_5  and  C_7
REMARK    5  A    between atoms: C_10  and  C_11
REMARK    6  A    between atoms: C_13  and  C_14
REMARK                            x       y       z     vdW  Elec       q    Type
REMARK                         _______ _______ _______ _____ _____    ______ ____
ROOT
ATOM      1  C   UNL     1       3.302   6.183  18.572  0.00  0.00    +0.000 A 
ATOM      2  N   UNL     1       4.381   6.186  17.708  0.00  0.00    +0.000 NA
ATOM      3  C   UNL     1       4.886   4.971  17.746  0.00  0.00    +0.000 A 
ATOM      4  N   UNL     1       4.157   4.163  18.587  0.00  0.00    +0.000 N 
ATOM      5  C   UNL     1       4.304   2.836  18.941  0.00  0.00    +0.000 A 
ATOM      6  C   UNL     1       3.434   2.313  19.815  0.00  0.00    +0.000 A 
ATOM      7  N   UNL     1       2.389   3.016  20.371  0.00  0.00    +0.000 NA
ATOM      8  C   UNL     1       2.218   4.277  20.043  0.00  0.00    +0.000 A 
ATOM      9  N   UNL     1       1.132   4.869  20.623  0.00  0.00    +0.000 N 
ATOM     10  C   UNL     1       3.132   4.925  19.122  0.00  0.00    +0.000 A 
ATOM     11  H   UNL     1       0.545   4.184  21.083  0.00  0.00    +0.000 HD
ATOM     12  H   UNL     1       0.611   5.496  20.023  0.00  0.00    +0.000 HD
ENDROOT
BRANCH   1  16
ATOM     13  C   UNL     1       0.982   9.712  19.234  0.00  0.00    +0.000 A 
ATOM     14  C   UNL     1       1.218   8.802  20.267  0.00  0.00    +0.000 A 
ATOM     15  C   UNL     1       2.002   7.666  20.037  0.00  0.00    +0.000 A 
ATOM     16  C   UNL     1       2.512   7.387  18.762  0.00  0.00    +0.000 A 
ATOM     17  C   UNL     1       2.187   8.249  17.713  0.00  0.00    +0.000 A 
ATOM     18  C   UNL     1       1.464   9.422  17.951  0.00  0.00    +0.000 A 
BRANCH  13  21
ATOM     19  N   UNL     1      -0.910  11.155  18.499  0.00  0.00    +0.000 N 
ATOM     20  C   UNL     1      -1.851  10.102  18.146  0.00  0.00    +0.000 C 
ATOM     21  C   UNL     1       0.139  10.931  19.407  0.00  0.00    +0.000 C 
ATOM     22  O   UNL     1       0.443  11.709  20.313  0.00  0.00    +0.000 OA
BRANCH  19  24
ATOM     23  C   UNL     1      -3.035  11.945  18.945  0.00  0.00    +0.000 C 
ATOM     24  O   UNL     1      -1.656  12.303  18.914  0.00  0.00    +0.000 OA
ENDBRANCH  19  24
ENDBRANCH  13  21
ENDBRANCH   1  16
BRANCH   3  25
ATOM     25  C   UNL     1       6.140   4.563  16.980  0.00  0.00    +0.000 C 
ATOM     26  C   UNL     1       5.891   3.902  15.593  0.00  0.00    +0.000 C 
ATOM     27  C   UNL     1       7.041   4.758  15.036  0.00  0.00    +0.000 C 
ATOM     28  C   UNL     1       6.757   5.748  16.175  0.00  0.00    +0.000 C 
ENDBRANCH   3  25
TORSDOF 4
ENDMDL
MODEL 5
REMARK VINA RESULT:      -8.1      1.209      1.735
REMARK  Name = 
REMARK  6 active torsions:
REMARK  status: ('A' for Active; 'I' for Inactive)
REMARK    1  A    between atoms: C_1  and  O_2
REMARK    2  A    between atoms: O_2  and  N_3
REMARK    3  A    between atoms: N_3  and  C_4
REMARK    4  A    between atoms: C_5  and  C_7
REMARK    5  A    between atoms: C_10  and  C_11
REMARK    6  A    between atoms: C_13  and  C_14
REMARK                            x       y       z     vdW  Elec       q    Type
REMARK                         _______ _______ _______ _____ _____    ______ ____
ROOT
ATOM      1  C   UNL     1       3.260   6.194  18.611  0.00  0.00    +0.000 A 
ATOM      2  N   UNL     1       4.350   6.222  17.761  0.00  0.00    +0.000 NA
ATOM      3  C   UNL     1       4.883   5.019  17.807  0.00  0.00    +0.000 A 
ATOM      4  N   UNL     1       4.162   4.195  18.639  0.00  0.00    +0.000 N 
ATOM      5  C   UNL     1       4.336   2.872  18.996  0.00  0.00    +0.000 A 
ATOM      6  C   UNL     1       3.468   2.329  19.859  0.00  0.00    +0.000 A 
ATOM      7  N   UNL     1       2.399   3.008  20.401  0.00  0.00    +0.000 NA
ATOM      8  C   UNL     1       2.203   4.264  20.070  0.00  0.00    +0.000 A 
ATOM      9  N   UNL     1       1.096   4.831  20.636  0.00  0.00    +0.000 N 
ATOM     10  C   UNL     1       3.113   4.933  19.160  0.00  0.00    +0.000 A 
ATOM     11  H   UNL     1       0.520   4.133  21.088  0.00  0.00    +0.000 HD
ATOM     12  H   UNL     1       0.568   5.445  20.028  0.00  0.00    +0.000 HD
ENDROOT
BRANCH   1  16
ATOM     13  C   UNL     1       0.858   9.674  19.240  0.00  0.00    +0.000 A 
ATOM     14  C   UNL     1       1.197   8.832  20.302  0.00  0.00    +0.000 A 
ATOM     15  C   UNL     1       2.006   7.712  20.080  0.00  0.00    +0.000 A 
ATOM     16  C   UNL     1       2.440   7.379  18.790  0.00  0.00    +0.000 A 
ATOM     17  C   UNL     1       2.014   8.170  17.721  0.00  0.00    +0.000 A 
ATOM     18  C   UNL     1       1.265   9.329  17.945  0.00  0.00    +0.000 A 
BRANCH  13  21
ATOM     19  N   UNL     1       0.554  12.056  19.900  0.00  0.00    +0.000 N 
ATOM     20  C   UNL     1       1.803  12.581  19.367  0.00  0.00    +0.000 C 
ATOM     21  C   UNL     1      -0.017  10.871  19.405  0.00  0.00    +0.000 C 
ATOM     22  O   UNL     1      -1.214  10.740  19.145  0.00  0.00    +0.000 OA
BRANCH  19  24
ATOM     23  C   UNL     1      -0.065  14.006  18.827  0.00  0.00    +0.000 C 
ATOM     24  O   UNL     1      -0.423  13.100  19.867  0.00  0.00    +0.000 OA
ENDBRANCH  19  24
ENDBRANCH  13  21
ENDBRANCH   1  16
BRANCH   3  25
ATOM     25  C   UNL     1       6.156   4.640  17.057  0.00  0.00    +0.000 C 
ATOM     26  C   UNL     1       5.941   3.857  15.728  0.00  0.00    +0.000 C 
ATOM     27  C   UNL     1       7.025   4.744  15.091  0.00  0.00    +0.000 C 
ATOM     28  C   UNL     1       6.681   5.798  16.154  0.00  0.00    +0.000 C 
ENDBRANCH   3  25
TORSDOF 4
ENDMDL
MODEL 6
REMARK VINA RESULT:      -7.9      1.078      1.523
REMARK  Name = 
REMARK  6 active torsions:
REMARK  status: ('A' for Active; 'I' for Inactive)
REMARK    1  A    between atoms: C_1  and  O_2
REMARK    2  A    between atoms: O_2  and  N_3
REMARK    3  A    between atoms: N_3  and  C_4
REMARK    4  A    between atoms: C_5  and  C_7
REMARK    5  A    between atoms: C_10  and  C_11
REMARK    6  A    between atoms: C_13  and  C_14
REMARK                            x       y       z     vdW  Elec       q    Type
REMARK                         _______ _______ _______ _____ _____    ______ ____
ROOT
ATOM      1  C   UNL     1       3.251   5.822  18.351  0.00  0.00    +0.000 A 
ATOM      2  N   UNL     1       4.374   5.942  17.553  0.00  0.00    +0.000 NA
ATOM      3  C   UNL     1       4.796   4.715  17.327  0.00  0.00    +0.000 A 
ATOM      4  N   UNL     1       3.972   3.793  17.928  0.00  0.00    +0.000 N 
ATOM      5  C   UNL     1       4.014   2.414  17.968  0.00  0.00    +0.000 A 
ATOM      6  C   UNL     1       3.066   1.770  18.663  0.00  0.00    +0.000 A 
ATOM      7  N   UNL     1       2.039   2.404  19.327  0.00  0.00    +0.000 NA
ATOM      8  C   UNL     1       1.969   3.716  19.296  0.00  0.00    +0.000 A 
ATOM      9  N   UNL     1       0.893   4.239  19.956  0.00  0.00    +0.000 N 
ATOM     10  C   UNL     1       2.971   4.487  18.586  0.00  0.00    +0.000 A 
ATOM     11  H   UNL     1       0.239   3.513  20.221  0.00  0.00    +0.000 HD
ATOM     12  H   UNL     1       0.447   5.024  19.499  0.00  0.00    +0.000 HD
ENDROOT
BRANCH   1  16
ATOM     13  C   UNL     1       1.147   9.277  19.730  0.00  0.00    +0.000 A 
ATOM     14  C   UNL     1       1.439   8.220  20.596  0.00  0.00    +0.000 A 
ATOM     15  C   UNL     1       2.152   7.109  20.131  0.00  0.00    +0.000 A 
ATOM     16  C   UNL     1       2.532   7.005  18.786  0.00  0.00    +0.000 A 
ATOM     17  C   UNL     1       2.148   8.020  17.907  0.00  0.00    +0.000 A 
ATOM     18  C   UNL     1       1.499   9.165  18.379  0.00  0.00    +0.000 A 
BRANCH  13  21
ATOM     19  N   UNL     1      -0.663  10.315  21.090  0.00  0.00    +0.000 N 
ATOM     20  C   UNL     1      -0.474   9.546  22.311  0.00  0.00    +0.000 C 
ATOM     21  C   UNL     1       0.373  10.480  20.156  0.00  0.00    +0.000 C 
ATOM     22  O   UNL     1       0.654  11.555  19.622  0.00  0.00    +0.000 OA
BRANCH  19  24
ATOM     23  C   UNL     1      -1.231  11.680  22.865  0.00  0.00    +0.000 C 
ATOM     24  O   UNL     1      -1.189  11.597  21.443  0.00  0.00    +0.000 OA
ENDBRANCH  19  24
ENDBRANCH  13  21
ENDBRANCH   1  16
BRANCH   3  25
ATOM     25  C   UNL     1       6.062   4.400  16.534  0.00  0.00    +0.000 C 
ATOM     26  C   UNL     1       5.837   4.006  15.045  0.00  0.00    +0.000 C 
ATOM     27  C   UNL     1       7.034   4.901  14.681  0.00  0.00    +0.000 C 
ATOM     28  C   UNL     1       6.744   5.685  15.970  0.00  0.00    +0.000 C 
ENDBRANCH   3  25
TORSDOF 4
ENDMDL
MODEL 7
REMARK VINA RESULT:      -7.8      0.845      1.105
REMARK  Name = 
REMARK  6 active torsions:
REMARK  status: ('A' for Active; 'I' for Inactive)
REMARK    1  A    between atoms: C_1  and  O_2
REMARK    2  A    between atoms: O_2  and  N_3
REMARK    3  A    between atoms: N_3  and  C_4
REMARK    4  A    between atoms: C_5  and  C_7
REMARK    5  A    between atoms: C_10  and  C_11
REMARK    6  A    between atoms: C_13  and  C_14
REMARK                            x       y       z     vdW  Elec       q    Type
REMARK                         _______ _______ _______ _____ _____    ______ ____
ROOT
ATOM      1  C   UNL     1       3.106   6.560  18.164  0.00  0.00    +0.000 A 
ATOM      2  N   UNL     1       4.084   6.878  17.240  0.00  0.00    +0.000 NA
ATOM      3  C   UNL     1       4.593   5.733  16.836  0.00  0.00    +0.000 A 
ATOM      4  N   UNL     1       3.962   4.673  17.445  0.00  0.00    +0.000 N 
ATOM      5  C   UNL     1       4.151   3.309  17.340  0.00  0.00    +0.000 A 
ATOM      6  C   UNL     1       3.384   2.503  18.086  0.00  0.00    +0.000 A 
ATOM      7  N   UNL     1       2.403   2.955  18.942  0.00  0.00    +0.000 NA
ATOM      8  C   UNL     1       2.195   4.247  19.053  0.00  0.00    +0.000 A 
ATOM      9  N   UNL     1       1.177   4.584  19.901  0.00  0.00    +0.000 N 
ATOM     10  C   UNL     1       3.000   5.188  18.298  0.00  0.00    +0.000 A 
ATOM     11  H   UNL     1       0.646   3.767  20.176  0.00  0.00    +0.000 HD
ATOM     12  H   UNL     1       0.592   5.349  19.589  0.00  0.00    +0.000 HD
ENDROOT
BRANCH   1  16
ATOM     13  C   UNL     1       0.830   9.698  19.968  0.00  0.00    +0.000 A 
ATOM     14  C   UNL     1       1.236   9.779  18.634  0.00  0.00    +0.000 A 
ATOM     15  C   UNL     1       1.958   8.730  18.054  0.00  0.00    +0.000 A 
ATOM     16  C   UNL     1       2.339   7.611  18.808  0.00  0.00    +0.000 A 
ATOM     17  C   UNL     1       2.015   7.585  20.166  0.00  0.00    +0.000 A 
ATOM     18  C   UNL     1       1.234   8.596  20.734  0.00  0.00    +0.000 A 
BRANCH  13  21
ATOM     19  N   UNL     1      -0.788  11.588  19.886  0.00  0.00    +0.000 N 
ATOM     20  C   UNL     1      -1.746  11.003  18.960  0.00  0.00    +0.000 C 
ATOM     21  C   UNL     1       0.077  10.789  20.652  0.00  0.00    +0.000 C 
ATOM     22  O   UNL     1       0.297  10.966  21.852  0.00  0.00    +0.000 OA
BRANCH  19  24
ATOM     23  C   UNL     1      -2.836  12.580  20.290  0.00  0.00    +0.000 C 
ATOM     24  O   UNL     1      -1.491  12.486  20.751  0.00  0.00    +0.000 OA
ENDBRANCH  19  24
ENDBRANCH  13  21
ENDBRANCH   1  16
BRANCH   3  25
ATOM     25  C   UNL     1       5.757   5.635  15.854  0.00  0.00    +0.000 C 
ATOM     26  C   UNL     1       6.840   4.574  16.206  0.00  0.00    +0.000 C 
ATOM     27  C   UNL     1       6.861   4.178  14.720  0.00  0.00    +0.000 C 
ATOM     28  C   UNL     1       5.428   4.724  14.631  0.00  0.00    +0.000 C 
ENDBRANCH   3  25
TORSDOF 4
ENDMDL
MODEL 8
REMARK VINA RESULT:      -7.8      1.265      1.717
REMARK  Name = 
REMARK  6 active torsions:
REMARK  status: ('A' for Active; 'I' for Inactive)
REMARK    1  A    between atoms: C_1  and  O_2
REMARK    2  A    between atoms: O_2  and  N_3
REMARK    3  A    between atoms: N_3  and  C_4
REMARK    4  A    between atoms: C_5  and  C_7
REMARK    5  A    between atoms: C_10  and  C_11
REMARK    6  A    between atoms: C_13  and  C_14
REMARK                            x       y       z     vdW  Elec       q    Type
REMARK                         _______ _______ _______ _____ _____    ______ ____
ROOT
ATOM      1  C   UNL     1       3.063   6.812  18.277  0.00  0.00    +0.000 A 
ATOM      2  N   UNL     1       4.011   7.082  17.307  0.00  0.00    +0.000 NA
ATOM      3  C   UNL     1       4.629   5.944  17.070  0.00  0.00    +0.000 A 
ATOM      4  N   UNL     1       4.100   4.930  17.834  0.00  0.00    +0.000 N 
ATOM      5  C   UNL     1       4.419   3.589  17.928  0.00  0.00    +0.000 A 
ATOM      6  C   UNL     1       3.729   2.832  18.791  0.00  0.00    +0.000 A 
ATOM      7  N   UNL     1       2.706   3.309  19.581  0.00  0.00    +0.000 NA
ATOM      8  C   UNL     1       2.374   4.577  19.504  0.00  0.00    +0.000 A 
ATOM      9  N   UNL     1       1.325   4.936  20.302  0.00  0.00    +0.000 N 
ATOM     10  C   UNL     1       3.089   5.469  18.611  0.00  0.00    +0.000 A 
ATOM     11  H   UNL     1       0.873   4.122  20.699  0.00  0.00    +0.000 HD
ATOM     12  H   UNL     1       0.670   5.587  19.887  0.00  0.00    +0.000 HD
ENDROOT
BRANCH   1  16
ATOM     13  C   UNL     1       0.489   9.947  19.623  0.00  0.00    +0.000 A 
ATOM     14  C   UNL     1       0.883   9.865  18.285  0.00  0.00    +0.000 A 
ATOM     15  C   UNL     1       1.706   8.816  17.859  0.00  0.00    +0.000 A 
ATOM     16  C   UNL     1       2.196   7.868  18.767  0.00  0.00    +0.000 A 
ATOM     17  C   UNL     1       1.878   8.016  20.118  0.00  0.00    +0.000 A 
ATOM     18  C   UNL     1       1.000   9.020  20.539  0.00  0.00    +0.000 A 
BRANCH  13  21
ATOM     19  N   UNL     1       0.212  12.004  20.999  0.00  0.00    +0.000 N 
ATOM     20  C   UNL     1       1.480  12.642  20.679  0.00  0.00    +0.000 C 
ATOM     21  C   UNL     1      -0.369  11.051  20.146  0.00  0.00    +0.000 C 
ATOM     22  O   UNL     1      -1.563  11.037  19.840  0.00  0.00    +0.000 OA
BRANCH  19  24
ATOM     23  C   UNL     1      -0.929  13.077  22.698  0.00  0.00    +0.000 C 
ATOM     24  O   UNL     1      -0.746  13.027  21.285  0.00  0.00    +0.000 OA
ENDBRANCH  19  24
ENDBRANCH  13  21
ENDBRANCH   1  16
BRANCH   3  25
ATOM     25  C   UNL     1       5.802   5.815  16.103  0.00  0.00    +0.000 C 
ATOM     26  C   UNL     1       6.889   4.776  16.505  0.00  0.00    +0.000 C 
ATOM     27  C   UNL     1       6.924   4.321  15.036  0.00  0.00    +0.000 C 
ATOM     28  C   UNL     1       5.489   4.853  14.915  0.00  0.00    +0.000 C 
ENDBRANCH   3  25
TORSDOF 4
ENDMDL
MODEL 9
REMARK VINA RESULT:      -7.6      3.403      8.209
REMARK  Name = 
REMARK  6 active torsions:
REMARK  status: ('A' for Active; 'I' for Inactive)
REMARK    1  A    between atoms: C_1  and  O_2
REMARK    2  A    between atoms: O_2  and  N_3
REMARK    3  A    between atoms: N_3  and  C_4
REMARK    4  A    between atoms: C_5  and  C_7
REMARK    5  A    between atoms: C_10  and  C_11
REMARK    6  A    between atoms: C_13  and  C_14
REMARK                            x       y       z     vdW  Elec       q    Type
REMARK                         _______ _______ _______ _____ _____    ______ ____
ROOT
ATOM      1  C   UNL     1       0.778   9.388  19.270  0.00  0.00    +0.000 A 
ATOM      2  N   UNL     1       0.032   9.978  18.266  0.00  0.00    +0.000 NA
ATOM      3  C   UNL     1      -0.772  10.835  18.860  0.00  0.00    +0.000 A 
ATOM      4  N   UNL     1      -0.559  10.846  20.219  0.00  0.00    +0.000 N 
ATOM      5  C   UNL     1      -1.154  11.568  21.234  0.00  0.00    +0.000 A 
ATOM      6  C   UNL     1      -0.745  11.349  22.492  0.00  0.00    +0.000 A 
ATOM      7  N   UNL     1       0.248  10.457  22.830  0.00  0.00    +0.000 NA
ATOM      8  C   UNL     1       0.839   9.765  21.883  0.00  0.00    +0.000 A 
ATOM      9  N   UNL     1       1.833   8.938  22.323  0.00  0.00    +0.000 N 
ATOM     10  C   UNL     1       0.437   9.926  20.498  0.00  0.00    +0.000 A 
ATOM     11  H   UNL     1       2.056   9.121  23.294  0.00  0.00    +0.000 HD
ATOM     12  H   UNL     1       2.653   8.895  21.732  0.00  0.00    +0.000 HD
ENDROOT
BRANCH   1  16
ATOM     13  C   UNL     1       3.750   6.492  18.246  0.00  0.00    +0.000 A 
ATOM     14  C   UNL     1       3.487   7.580  17.409  0.00  0.00    +0.000 A 
ATOM     15  C   UNL     1       2.529   8.531  17.775  0.00  0.00    +0.000 A 
ATOM     16  C   UNL     1       1.775   8.384  18.948  0.00  0.00    +0.000 A 
ATOM     17  C   UNL     1       1.975   7.242  19.726  0.00  0.00    +0.000 A 
ATOM     18  C   UNL     1       2.980   6.325  19.403  0.00  0.00    +0.000 A 
BRANCH  13  21
ATOM     19  N   UNL     1       5.864   5.786  17.134  0.00  0.00    +0.000 N 
ATOM     20  C   UNL     1       6.668   6.958  17.450  0.00  0.00    +0.000 C 
ATOM     21  C   UNL     1       4.744   5.432  17.905  0.00  0.00    +0.000 C 
ATOM     22  O   UNL     1       4.499   4.283  18.277  0.00  0.00    +0.000 OA
BRANCH  19  24
ATOM     23  C   UNL     1       6.971   4.414  15.642  0.00  0.00    +0.000 C 
ATOM     24  O   UNL     1       6.738   4.658  17.026  0.00  0.00    +0.000 OA
ENDBRANCH  19  24
ENDBRANCH  13  21
ENDBRANCH   1  16
BRANCH   3  25
ATOM     25  C   UNL     1      -1.817  11.656  18.112  0.00  0.00    +0.000 C 
ATOM     26  C   UNL     1      -2.229  11.103  16.717  0.00  0.00    +0.000 C 
ATOM     27  C   UNL     1      -3.689  11.424  17.077  0.00  0.00    +0.000 C 
ATOM     28  C   UNL     1      -3.273  11.306  18.551  0.00  0.00    +0.000 C 
ENDBRANCH   3  25
TORSDOF 4
ENDMDL
