MODEL 1
REMARK VINA RESULT:      -8.6      0.000      0.000
REMARK  Name = 
REMARK  5 active torsions:
REMARK  status: ('A' for Active; 'I' for Inactive)
REMARK    1  A    between atoms: C_1  and  C_2
REMARK    2  A    between atoms: C_5  and  C_6
REMARK    3  A    between atoms: C_12  and  C_13
REMARK    4  A    between atoms: N_15  and  C_16
REMARK    5  A    between atoms: C_18  and  C_19
REMARK                            x       y       z     vdW  Elec       q    Type
REMARK                         _______ _______ _______ _____ _____    ______ ____
ROOT
ATOM      1  C   UNL     1       4.491   4.632  16.615  0.00  0.00    +0.000 C 
ATOM      2  O   UNL     1       3.485   3.999  16.318  0.00  0.00    +0.000 OA
ATOM      3  N   UNL     1       4.671   5.359  17.777  0.00  0.00    +0.000 N 
ATOM      4  H   UNL     1       5.494   5.935  17.884  0.00  0.00    +0.000 HD
ENDROOT
BRANCH   3   5
ATOM      5  C   UNL     1       3.666   5.503  18.751  0.00  0.00    +0.000 A 
ATOM      6  N   UNL     1       3.034   6.675  18.897  0.00  0.00    +0.000 NA
ATOM      7  C   UNL     1       2.119   6.850  19.868  0.00  0.00    +0.000 A 
ATOM      8  N   UNL     1       1.754   5.905  20.746  0.00  0.00    +0.000 NA
ATOM      9  C   UNL     1       2.369   4.710  20.596  0.00  0.00    +0.000 A 
ATOM     10  C   UNL     1       2.147   3.573  21.427  0.00  0.00    +0.000 A 
ATOM     11  C   UNL     1       2.908   2.490  21.050  0.00  0.00    +0.000 A 
ATOM     12  S   UNL     1       3.896   2.843  19.700  0.00  0.00    +0.000 S 
ATOM     13  C   UNL     1       3.320   4.461  19.609  0.00  0.00    +0.000 A 
BRANCH   7  14
ATOM     14  C   UNL     1       1.500   8.201  19.951  0.00  0.00    +0.000 A 
ATOM     15  C   UNL     1       0.875   8.642  21.125  0.00  0.00    +0.000 A 
ATOM     16  C   UNL     1       0.291   9.907  21.167  0.00  0.00    +0.000 A 
ATOM     17  C   UNL     1       0.339  10.712  20.041  0.00  0.00    +0.000 A 
ATOM     18  C   UNL     1       0.973  10.217  18.915  0.00  0.00    +0.000 A 
ATOM     19  N   UNL     1       1.549   8.996  18.844  0.00  0.00    +0.000 NA
ENDBRANCH   7  14
ENDBRANCH   3   5
BRANCH   1  25
ATOM     20  C   UNL     1       4.737   3.436  13.522  0.00  0.00    +0.000 C 
ATOM     21  C   UNL     1       5.643   4.220  14.387  0.00  0.00    +0.000 A 
ATOM     22  O   UNL     1       6.804   4.616  13.804  0.00  0.00    +0.000 OA
ATOM     23  N   UNL     1       7.543   5.356  14.695  0.00  0.00    +0.000 NA
ATOM     24  C   UNL     1       6.833   5.412  15.834  0.00  0.00    +0.000 A 
ATOM     25  C   UNL     1       5.588   4.716  15.669  0.00  0.00    +0.000 A 
BRANCH  24  26
ATOM     26  C   UNL     1       7.377   6.082  17.021  0.00  0.00    +0.000 A 
ATOM     27  C   UNL     1       7.602   7.467  17.018  0.00  0.00    +0.000 A 
ATOM     28  C   UNL     1       8.130   8.107  18.144  0.00  0.00    +0.000 A 
ATOM     29  C   UNL     1       8.441   7.372  19.286  0.00  0.00    +0.000 A 
ATOM     30  C   UNL     1       8.235   5.995  19.300  0.00  0.00    +0.000 A 
ATOM     31  C   UNL     1       7.716   5.354  18.171  0.00  0.00    +0.000 A 
ENDBRANCH  24  26
ENDBRANCH   1  25
TORSDOF 4
ENDMDL
MODEL 2
REMARK VINA RESULT:      -7.9      6.216      9.574
REMARK  Name = 
REMARK  5 active torsions:
REMARK  status: ('A' for Active; 'I' for Inactive)
REMARK    1  A    between atoms: C_1  and  C_2
REMARK    2  A    between atoms: C_5  and  C_6
REMARK    3  A    between atoms: C_12  and  C_13
REMARK    4  A    between atoms: N_15  and  C_16
REMARK    5  A    between atoms: C_18  and  C_19
REMARK                            x       y       z     vdW  Elec       q    Type
REMARK                         _______ _______ _______ _____ _____    ______ ____
ROOT
ATOM      1  C   UNL     1       1.486  14.933  19.750  0.00  0.00    +0.000 C 
ATOM      2  O   UNL     1       2.265  14.844  20.691  0.00  0.00    +0.000 OA
ATOM      3  N   UNL     1       0.527  13.998  19.407  0.00  0.00    +0.000 N 
ATOM      4  H   UNL     1       0.003  14.110  18.551  0.00  0.00    +0.000 HD
ENDROOT
BRANCH   3   5
ATOM      5  C   UNL     1       0.374  12.776  20.088  0.00  0.00    +0.000 A 
ATOM      6  N   UNL     1       0.940  11.662  19.605  0.00  0.00    +0.000 NA
ATOM      7  C   UNL     1       0.748  10.473  20.207  0.00  0.00    +0.000 A 
ATOM      8  N   UNL     1       0.008  10.292  21.310  0.00  0.00    +0.000 NA
ATOM      9  C   UNL     1      -0.552  11.413  21.819  0.00  0.00    +0.000 A 
ATOM     10  C   UNL     1      -1.389  11.450  22.974  0.00  0.00    +0.000 A 
ATOM     11  C   UNL     1      -1.824  12.721  23.267  0.00  0.00    +0.000 A 
ATOM     12  S   UNL     1      -1.231  13.873  22.150  0.00  0.00    +0.000 S 
ATOM     13  C   UNL     1      -0.387  12.673  21.250  0.00  0.00    +0.000 A 
BRANCH   7  14
ATOM     14  C   UNL     1       1.405   9.301  19.568  0.00  0.00    +0.000 A 
ATOM     15  C   UNL     1       1.788   9.329  18.221  0.00  0.00    +0.000 A 
ATOM     16  C   UNL     1       2.388   8.209  17.647  0.00  0.00    +0.000 A 
ATOM     17  C   UNL     1       2.597   7.081  18.424  0.00  0.00    +0.000 A 
ATOM     18  C   UNL     1       2.196   7.120  19.747  0.00  0.00    +0.000 A 
ATOM     19  N   UNL     1       1.613   8.191  20.332  0.00  0.00    +0.000 NA
ENDBRANCH   7  14
ENDBRANCH   3   5
BRANCH   1  25
ATOM     20  C   UNL     1      -0.895  16.923  18.557  0.00  0.00    +0.000 C 
ATOM     21  C   UNL     1       0.572  16.875  18.389  0.00  0.00    +0.000 A 
ATOM     22  O   UNL     1       1.106  17.884  17.654  0.00  0.00    +0.000 OA
ATOM     23  N   UNL     1       2.472  17.744  17.593  0.00  0.00    +0.000 NA
ATOM     24  C   UNL     1       2.778  16.639  18.292  0.00  0.00    +0.000 A 
ATOM     25  C   UNL     1       1.584  16.064  18.846  0.00  0.00    +0.000 A 
BRANCH  24  26
ATOM     26  C   UNL     1       4.165  16.166  18.371  0.00  0.00    +0.000 A 
ATOM     27  C   UNL     1       5.134  16.909  19.061  0.00  0.00    +0.000 A 
ATOM     28  C   UNL     1       6.459  16.466  19.129  0.00  0.00    +0.000 A 
ATOM     29  C   UNL     1       6.832  15.276  18.508  0.00  0.00    +0.000 A 
ATOM     30  C   UNL     1       5.885  14.534  17.809  0.00  0.00    +0.000 A 
ATOM     31  C   UNL     1       4.563  14.981  17.733  0.00  0.00    +0.000 A 
ENDBRANCH  24  26
ENDBRANCH   1  25
TORSDOF 4
ENDMDL
MODEL 3
REMARK VINA RESULT:      -7.9      8.853     11.641
REMARK  Name = 
REMARK  5 active torsions:
REMARK  status: ('A' for Active; 'I' for Inactive)
REMARK    1  A    between atoms: C_1  and  C_2
REMARK    2  A    between atoms: C_5  and  C_6
REMARK    3  A    between atoms: C_12  and  C_13
REMARK    4  A    between atoms: N_15  and  C_16
REMARK    5  A    between atoms: C_18  and  C_19
REMARK                            x       y       z     vdW  Elec       q    Type
REMARK                         _______ _______ _______ _____ _____    ______ ____
ROOT
ATOM      1  C   UNL     1      -2.240  13.391  22.634  0.00  0.00    +0.000 C 
ATOM      2  O   UNL     1      -2.186  12.229  23.019  0.00  0.00    +0.000 OA
ATOM      3  N   UNL     1      -3.082  13.875  21.650  0.00  0.00    +0.000 N 
ATOM      4  H   UNL     1      -2.978  14.826  21.326  0.00  0.00    +0.000 HD
ENDROOT
BRANCH   3   5
ATOM      5  C   UNL     1      -3.957  13.050  20.920  0.00  0.00    +0.000 A 
ATOM      6  N   UNL     1      -3.541  12.462  19.790  0.00  0.00    +0.000 NA
ATOM      7  C   UNL     1      -4.385  11.724  19.045  0.00  0.00    +0.000 A 
ATOM      8  N   UNL     1      -5.672  11.504  19.349  0.00  0.00    +0.000 NA
ATOM      9  C   UNL     1      -6.099  12.075  20.498  0.00  0.00    +0.000 A 
ATOM     10  C   UNL     1      -7.429  11.986  21.004  0.00  0.00    +0.000 A 
ATOM     11  C   UNL     1      -7.587  12.663  22.191  0.00  0.00    +0.000 A 
ATOM     12  S   UNL     1      -6.135  13.413  22.696  0.00  0.00    +0.000 S 
ATOM     13  C   UNL     1      -5.276  12.843  21.318  0.00  0.00    +0.000 A 
BRANCH   7  14
ATOM     14  C   UNL     1      -3.820  11.140  17.798  0.00  0.00    +0.000 A 
ATOM     15  C   UNL     1      -4.410  11.383  16.551  0.00  0.00    +0.000 A 
ATOM     16  C   UNL     1      -3.867  10.809  15.403  0.00  0.00    +0.000 A 
ATOM     17  C   UNL     1      -2.745  10.004  15.515  0.00  0.00    +0.000 A 
ATOM     18  C   UNL     1      -2.211   9.806  16.776  0.00  0.00    +0.000 A 
ATOM     19  N   UNL     1      -2.715  10.349  17.907  0.00  0.00    +0.000 NA
ENDBRANCH   7  14
ENDBRANCH   3   5
BRANCH   1  25
ATOM     20  C   UNL     1      -2.326  15.049  25.515  0.00  0.00    +0.000 C 
ATOM     21  C   UNL     1      -1.376  15.019  24.384  0.00  0.00    +0.000 A 
ATOM     22  O   UNL     1      -0.251  15.761  24.551  0.00  0.00    +0.000 OA
ATOM     23  N   UNL     1       0.561  15.630  23.450  0.00  0.00    +0.000 NA
ATOM     24  C   UNL     1      -0.072  14.806  22.599  0.00  0.00    +0.000 A 
ATOM     25  C   UNL     1      -1.312  14.366  23.175  0.00  0.00    +0.000 A 
BRANCH  24  26
ATOM     26  C   UNL     1       0.503  14.506  21.283  0.00  0.00    +0.000 A 
ATOM     27  C   UNL     1       1.172  13.295  21.055  0.00  0.00    +0.000 A 
ATOM     28  C   UNL     1       1.731  13.011  19.804  0.00  0.00    +0.000 A 
ATOM     29  C   UNL     1       1.629  13.934  18.766  0.00  0.00    +0.000 A 
ATOM     30  C   UNL     1       0.979  15.147  18.980  0.00  0.00    +0.000 A 
ATOM     31  C   UNL     1       0.429  15.435  20.232  0.00  0.00    +0.000 A 
ENDBRANCH  24  26
ENDBRANCH   1  25
TORSDOF 4
ENDMDL
MODEL 4
REMARK VINA RESULT:      -7.8      1.423      2.007
REMARK  Name = 
REMARK  5 active torsions:
REMARK  status: ('A' for Active; 'I' for Inactive)
REMARK    1  A    between atoms: C_1  and  C_2
REMARK    2  A    between atoms: C_5  and  C_6
REMARK    3  A    between atoms: C_12  and  C_13
REMARK    4  A    between atoms: N_15  and  C_16
REMARK    5  A    between atoms: C_18  and  C_19
REMARK                            x       y       z     vdW  Elec       q    Type
REMARK                         _______ _______ _______ _____ _____    ______ ____
ROOT
ATOM      1  C   UNL     1       5.435   5.823  18.401  0.00  0.00    +0.000 C 
ATOM      2  O   UNL     1       5.882   5.588  19.517  0.00  0.00    +0.000 OA
ATOM      3  N   UNL     1       4.110   6.082  18.102  0.00  0.00    +0.000 N 
ATOM      4  H   UNL     1       3.822   6.159  17.137  0.00  0.00    +0.000 HD
ENDROOT
BRANCH   3   5
ATOM      5  C   UNL     1       3.089   6.047  19.068  0.00  0.00    +0.000 A 
ATOM      6  N   UNL     1       2.529   7.186  19.497  0.00  0.00    +0.000 NA
ATOM      7  C   UNL     1       1.598   7.175  20.469  0.00  0.00    +0.000 A 
ATOM      8  N   UNL     1       1.147   6.068  21.075  0.00  0.00    +0.000 NA
ATOM      9  C   UNL     1       1.689   4.909  20.636  0.00  0.00    +0.000 A 
ATOM     10  C   UNL     1       1.369   3.617  21.150  0.00  0.00    +0.000 A 
ATOM     11  C   UNL     1       2.069   2.614  20.522  0.00  0.00    +0.000 A 
ATOM     12  S   UNL     1       3.118   3.224  19.317  0.00  0.00    +0.000 S 
ATOM     13  C   UNL     1       2.650   4.850  19.630  0.00  0.00    +0.000 A 
BRANCH   7  14
ATOM     14  C   UNL     1       1.066   8.501  20.883  0.00  0.00    +0.000 A 
ATOM     15  C   UNL     1       0.554   8.708  22.170  0.00  0.00    +0.000 A 
ATOM     16  C   UNL     1       0.048   9.958  22.524  0.00  0.00    +0.000 A 
ATOM     17  C   UNL     1       0.060  10.981  21.590  0.00  0.00    +0.000 A 
ATOM     18  C   UNL     1       0.581  10.711  20.337  0.00  0.00    +0.000 A 
ATOM     19  N   UNL     1       1.079   9.510  19.965  0.00  0.00    +0.000 NA
ENDBRANCH   7  14
ENDBRANCH   3   5
BRANCH   1  25
ATOM     20  C   UNL     1       5.578   3.607  15.926  0.00  0.00    +0.000 C 
ATOM     21  C   UNL     1       6.333   4.838  16.237  0.00  0.00    +0.000 A 
ATOM     22  O   UNL     1       7.240   5.215  15.300  0.00  0.00    +0.000 OA
ATOM     23  N   UNL     1       7.855   6.381  15.688  0.00  0.00    +0.000 NA
ATOM     24  C   UNL     1       7.324   6.720  16.875  0.00  0.00    +0.000 A 
ATOM     25  C   UNL     1       6.319   5.767  17.252  0.00  0.00    +0.000 A 
BRANCH  24  26
ATOM     26  C   UNL     1       7.815   7.896  17.603  0.00  0.00    +0.000 A 
ATOM     27  C   UNL     1       8.572   7.746  18.774  0.00  0.00    +0.000 A 
ATOM     28  C   UNL     1       9.032   8.865  19.476  0.00  0.00    +0.000 A 
ATOM     29  C   UNL     1       8.740  10.148  19.018  0.00  0.00    +0.000 A 
ATOM     30  C   UNL     1       7.978  10.313  17.864  0.00  0.00    +0.000 A 
ATOM     31  C   UNL     1       7.511   9.196  17.168  0.00  0.00    +0.000 A 
ENDBRANCH  24  26
ENDBRANCH   1  25
TORSDOF 4
ENDMDL
MODEL 5
REMARK VINA RESULT:      -7.7      8.234     10.241
REMARK  Name = 
REMARK  5 active torsions:
REMARK  status: ('A' for Active; 'I' for Inactive)
REMARK    1  A    between atoms: C_1  and  C_2
REMARK    2  A    between atoms: C_5  and  C_6
REMARK    3  A    between atoms: C_12  and  C_13
REMARK    4  A    between atoms: N_15  and  C_16
REMARK    5  A    between atoms: C_18  and  C_19
REMARK                            x       y       z     vdW  Elec       q    Type
REMARK                         _______ _______ _______ _____ _____    ______ ____
ROOT
ATOM      1  C   UNL     1       8.245  15.842  19.883  0.00  0.00    +0.000 C 
ATOM      2  O   UNL     1       8.543  16.527  20.853  0.00  0.00    +0.000 OA
ATOM      3  N   UNL     1       7.111  15.060  19.767  0.00  0.00    +0.000 N 
ATOM      4  H   UNL     1       7.005  14.447  18.971  0.00  0.00    +0.000 HD
ENDROOT
BRANCH   3   5
ATOM      5  C   UNL     1       6.173  14.916  20.806  0.00  0.00    +0.000 A 
ATOM      6  N   UNL     1       6.484  14.206  21.898  0.00  0.00    +0.000 NA
ATOM      7  C   UNL     1       5.576  14.002  22.871  0.00  0.00    +0.000 A 
ATOM      8  N   UNL     1       4.322  14.477  22.851  0.00  0.00    +0.000 NA
ATOM      9  C   UNL     1       4.003  15.214  21.763  0.00  0.00    +0.000 A 
ATOM     10  C   UNL     1       2.724  15.801  21.527  0.00  0.00    +0.000 A 
ATOM     11  C   UNL     1       2.676  16.495  20.340  0.00  0.00    +0.000 A 
ATOM     12  S   UNL     1       4.167  16.437  19.504  0.00  0.00    +0.000 S 
ATOM     13  C   UNL     1       4.896  15.468  20.725  0.00  0.00    +0.000 A 
BRANCH   7  14
ATOM     14  C   UNL     1       6.025  13.177  24.025  0.00  0.00    +0.000 A 
ATOM     15  C   UNL     1       6.894  13.696  24.993  0.00  0.00    +0.000 A 
ATOM     16  C   UNL     1       7.309  12.894  26.055  0.00  0.00    +0.000 A 
ATOM     17  C   UNL     1       6.852  11.589  26.135  0.00  0.00    +0.000 A 
ATOM     18  C   UNL     1       5.995  11.139  25.147  0.00  0.00    +0.000 A 
ATOM     19  N   UNL     1       5.574  11.893  24.107  0.00  0.00    +0.000 NA
ENDBRANCH   7  14
ENDBRANCH   3   5
BRANCH   1  25
ATOM     20  C   UNL     1       9.380  18.225  17.861  0.00  0.00    +0.000 C 
ATOM     21  C   UNL     1       9.622  16.771  17.958  0.00  0.00    +0.000 A 
ATOM     22  O   UNL     1      10.553  16.277  17.102  0.00  0.00    +0.000 OA
ATOM     23  N   UNL     1      10.706  14.927  17.307  0.00  0.00    +0.000 NA
ATOM     24  C   UNL     1       9.860  14.589  18.294  0.00  0.00    +0.000 A 
ATOM     25  C   UNL     1       9.162  15.753  18.762  0.00  0.00    +0.000 A 
BRANCH  24  26
ATOM     26  C   UNL     1       9.729  13.190  18.717  0.00  0.00    +0.000 A 
ATOM     27  C   UNL     1      10.237  12.767  19.954  0.00  0.00    +0.000 A 
ATOM     28  C   UNL     1      10.123  11.432  20.356  0.00  0.00    +0.000 A 
ATOM     29  C   UNL     1       9.500  10.502  19.526  0.00  0.00    +0.000 A 
ATOM     30  C   UNL     1       9.002  10.903  18.289  0.00  0.00    +0.000 A 
ATOM     31  C   UNL     1       9.125  12.235  17.884  0.00  0.00    +0.000 A 
ENDBRANCH  24  26
ENDBRANCH   1  25
TORSDOF 4
ENDMDL
MODEL 6
REMARK VINA RESULT:      -7.7      6.025     10.561
REMARK  Name = 
REMARK  5 active torsions:
REMARK  status: ('A' for Active; 'I' for Inactive)
REMARK    1  A    between atoms: C_1  and  C_2
REMARK    2  A    between atoms: C_5  and  C_6
REMARK    3  A    between atoms: C_12  and  C_13
REMARK    4  A    between atoms: N_15  and  C_16
REMARK    5  A    between atoms: C_18  and  C_19
REMARK                            x       y       z     vdW  Elec       q    Type
REMARK                         _______ _______ _______ _____ _____    ______ ____
ROOT
ATOM      1  C   UNL     1       0.961  14.353  18.869  0.00  0.00    +0.000 C 
ATOM      2  O   UNL     1       0.089  13.888  18.146  0.00  0.00    +0.000 OA
ATOM      3  N   UNL     1       1.470  13.753  20.006  0.00  0.00    +0.000 N 
ATOM      4  H   UNL     1       2.111  14.264  20.597  0.00  0.00    +0.000 HD
ENDROOT
BRANCH   3   5
ATOM      5  C   UNL     1       0.986  12.530  20.505  0.00  0.00    +0.000 A 
ATOM      6  N   UNL     1       1.423  11.373  19.990  0.00  0.00    +0.000 NA
ATOM      7  C   UNL     1       0.922  10.197  20.408  0.00  0.00    +0.000 A 
ATOM      8  N   UNL     1      -0.022  10.067  21.352  0.00  0.00    +0.000 NA
ATOM      9  C   UNL     1      -0.457  11.226  21.895  0.00  0.00    +0.000 A 
ATOM     10  C   UNL     1      -1.465  11.324  22.900  0.00  0.00    +0.000 A 
ATOM     11  C   UNL     1      -1.714  12.625  23.269  0.00  0.00    +0.000 A 
ATOM     12  S   UNL     1      -0.740  13.733  22.404  0.00  0.00    +0.000 S 
ATOM     13  C   UNL     1       0.025  12.475  21.512  0.00  0.00    +0.000 A 
BRANCH   7  14
ATOM     14  C   UNL     1       1.465   8.979  19.747  0.00  0.00    +0.000 A 
ATOM     15  C   UNL     1       1.728   8.957  18.372  0.00  0.00    +0.000 A 
ATOM     16  C   UNL     1       2.221   7.796  17.778  0.00  0.00    +0.000 A 
ATOM     17  C   UNL     1       2.446   6.678  18.564  0.00  0.00    +0.000 A 
ATOM     18  C   UNL     1       2.167   6.767  19.916  0.00  0.00    +0.000 A 
ATOM     19  N   UNL     1       1.688   7.878  20.520  0.00  0.00    +0.000 NA
ENDBRANCH   7  14
ENDBRANCH   3   5
BRANCH   1  25
ATOM     20  C   UNL     1       4.020  15.284  17.957  0.00  0.00    +0.000 C 
ATOM     21  C   UNL     1       2.761  16.018  18.199  0.00  0.00    +0.000 A 
ATOM     22  O   UNL     1       2.805  17.350  17.936  0.00  0.00    +0.000 OA
ATOM     23  N   UNL     1       1.574  17.912  18.172  0.00  0.00    +0.000 NA
ATOM     24  C   UNL     1       0.769  16.920  18.587  0.00  0.00    +0.000 A 
ATOM     25  C   UNL     1       1.488  15.677  18.592  0.00  0.00    +0.000 A 
BRANCH  24  26
ATOM     26  C   UNL     1      -0.614  17.199  18.990  0.00  0.00    +0.000 A 
ATOM     27  C   UNL     1      -1.180  16.552  20.098  0.00  0.00    +0.000 A 
ATOM     28  C   UNL     1      -2.501  16.808  20.478  0.00  0.00    +0.000 A 
ATOM     29  C   UNL     1      -3.275  17.713  19.754  0.00  0.00    +0.000 A 
ATOM     30  C   UNL     1      -2.732  18.354  18.644  0.00  0.00    +0.000 A 
ATOM     31  C   UNL     1      -1.414  18.091  18.259  0.00  0.00    +0.000 A 
ENDBRANCH  24  26
ENDBRANCH   1  25
TORSDOF 4
ENDMDL
MODEL 7
REMARK VINA RESULT:      -7.6      5.970      9.121
REMARK  Name = 
REMARK  5 active torsions:
REMARK  status: ('A' for Active; 'I' for Inactive)
REMARK    1  A    between atoms: C_1  and  C_2
REMARK    2  A    between atoms: C_5  and  C_6
REMARK    3  A    between atoms: C_12  and  C_13
REMARK    4  A    between atoms: N_15  and  C_16
REMARK    5  A    between atoms: C_18  and  C_19
REMARK                            x       y       z     vdW  Elec       q    Type
REMARK                         _______ _______ _______ _____ _____    ______ ____
ROOT
ATOM      1  C   UNL     1       2.165  14.522  19.850  0.00  0.00    +0.000 C 
ATOM      2  O   UNL     1       2.983  14.271  20.727  0.00  0.00    +0.000 OA
ATOM      3  N   UNL     1       1.046  13.767  19.552  0.00  0.00    +0.000 N 
ATOM      4  H   UNL     1       0.489  13.996  18.741  0.00  0.00    +0.000 HD
ENDROOT
BRANCH   3   5
ATOM      5  C   UNL     1       0.744  12.559  20.206  0.00  0.00    +0.000 A 
ATOM      6  N   UNL     1       1.233  11.401  19.741  0.00  0.00    +0.000 NA
ATOM      7  C   UNL     1       0.900  10.230  20.313  0.00  0.00    +0.000 A 
ATOM      8  N   UNL     1       0.085  10.107  21.371  0.00  0.00    +0.000 NA
ATOM      9  C   UNL     1      -0.400  11.270  21.863  0.00  0.00    +0.000 A 
ATOM     10  C   UNL     1      -1.294  11.373  22.970  0.00  0.00    +0.000 A 
ATOM     11  C   UNL     1      -1.628  12.677  23.256  0.00  0.00    +0.000 A 
ATOM     12  S   UNL     1      -0.870  13.779  22.190  0.00  0.00    +0.000 S 
ATOM     13  C   UNL     1      -0.089  12.515  21.322  0.00  0.00    +0.000 A 
BRANCH   7  14
ATOM     14  C   UNL     1       1.483   9.008  19.697  0.00  0.00    +0.000 A 
ATOM     15  C   UNL     1       1.662   7.835  20.440  0.00  0.00    +0.000 A 
ATOM     16  C   UNL     1       2.226   6.711  19.838  0.00  0.00    +0.000 A 
ATOM     17  C   UNL     1       2.602   6.774  18.506  0.00  0.00    +0.000 A 
ATOM     18  C   UNL     1       2.396   7.962  17.829  0.00  0.00    +0.000 A 
ATOM     19  N   UNL     1       1.852   9.068  18.385  0.00  0.00    +0.000 NA
ENDBRANCH   7  14
ENDBRANCH   3   5
BRANCH   1  25
ATOM     20  C   UNL     1      -0.024  16.654  18.538  0.00  0.00    +0.000 C 
ATOM     21  C   UNL     1       1.447  16.529  18.466  0.00  0.00    +0.000 A 
ATOM     22  O   UNL     1       2.081  17.519  17.786  0.00  0.00    +0.000 OA
ATOM     23  N   UNL     1       3.439  17.307  17.813  0.00  0.00    +0.000 NA
ATOM     24  C   UNL     1       3.639  16.177  18.511  0.00  0.00    +0.000 A 
ATOM     25  C   UNL     1       2.382  15.658  18.975  0.00  0.00    +0.000 A 
BRANCH  24  26
ATOM     26  C   UNL     1       4.991  15.629  18.673  0.00  0.00    +0.000 A 
ATOM     27  C   UNL     1       5.502  14.707  17.748  0.00  0.00    +0.000 A 
ATOM     28  C   UNL     1       6.786  14.174  17.905  0.00  0.00    +0.000 A 
ATOM     29  C   UNL     1       7.575  14.556  18.988  0.00  0.00    +0.000 A 
ATOM     30  C   UNL     1       7.076  15.461  19.921  0.00  0.00    +0.000 A 
ATOM     31  C   UNL     1       5.790  15.986  19.770  0.00  0.00    +0.000 A 
ENDBRANCH  24  26
ENDBRANCH   1  25
TORSDOF 4
ENDMDL
MODEL 8
REMARK VINA RESULT:      -7.6      6.224      9.871
REMARK  Name = 
REMARK  5 active torsions:
REMARK  status: ('A' for Active; 'I' for Inactive)
REMARK    1  A    between atoms: C_1  and  C_2
REMARK    2  A    between atoms: C_5  and  C_6
REMARK    3  A    between atoms: C_12  and  C_13
REMARK    4  A    between atoms: N_15  and  C_16
REMARK    5  A    between atoms: C_18  and  C_19
REMARK                            x       y       z     vdW  Elec       q    Type
REMARK                         _______ _______ _______ _____ _____    ______ ____
ROOT
ATOM      1  C   UNL     1       1.917  12.987  19.546  0.00  0.00    +0.000 C 
ATOM      2  O   UNL     1       2.730  12.669  18.686  0.00  0.00    +0.000 OA
ATOM      3  N   UNL     1       2.201  13.693  20.700  0.00  0.00    +0.000 N 
ATOM      4  H   UNL     1       1.484  13.814  21.401  0.00  0.00    +0.000 HD
ENDROOT
BRANCH   3   5
ATOM      5  C   UNL     1       3.504  14.088  21.053  0.00  0.00    +0.000 A 
ATOM      6  N   UNL     1       4.140  13.481  22.064  0.00  0.00    +0.000 NA
ATOM      7  C   UNL     1       5.360  13.891  22.458  0.00  0.00    +0.000 A 
ATOM      8  N   UNL     1       6.040  14.901  21.896  0.00  0.00    +0.000 NA
ATOM      9  C   UNL     1       5.418  15.508  20.860  0.00  0.00    +0.000 A 
ATOM     10  C   UNL     1       5.948  16.612  20.129  0.00  0.00    +0.000 A 
ATOM     11  C   UNL     1       5.104  17.034  19.129  0.00  0.00    +0.000 A 
ATOM     12  S   UNL     1       3.668  16.106  19.071  0.00  0.00    +0.000 S 
ATOM     13  C   UNL     1       4.160  15.129  20.399  0.00  0.00    +0.000 A 
BRANCH   7  14
ATOM     14  C   UNL     1       5.959  13.159  23.607  0.00  0.00    +0.000 A 
ATOM     15  C   UNL     1       7.099  12.362  23.445  0.00  0.00    +0.000 A 
ATOM     16  C   UNL     1       7.628  11.677  24.537  0.00  0.00    +0.000 A 
ATOM     17  C   UNL     1       7.013  11.796  25.773  0.00  0.00    +0.000 A 
ATOM     18  C   UNL     1       5.890  12.599  25.865  0.00  0.00    +0.000 A 
ATOM     19  N   UNL     1       5.355  13.277  24.824  0.00  0.00    +0.000 NA
ENDBRANCH   7  14
ENDBRANCH   3   5
BRANCH   1  25
ATOM     20  C   UNL     1      -0.897  14.757  19.572  0.00  0.00    +0.000 C 
ATOM     21  C   UNL     1      -0.600  13.317  19.423  0.00  0.00    +0.000 A 
ATOM     22  O   UNL     1      -1.674  12.525  19.172  0.00  0.00    +0.000 OA
ATOM     23  N   UNL     1      -1.267  11.221  19.027  0.00  0.00    +0.000 NA
ATOM     24  C   UNL     1       0.066  11.211  19.195  0.00  0.00    +0.000 A 
ATOM     25  C   UNL     1       0.540  12.547  19.425  0.00  0.00    +0.000 A 
BRANCH  24  26
ATOM     26  C   UNL     1       0.813   9.948  19.167  0.00  0.00    +0.000 A 
ATOM     27  C   UNL     1       0.969   9.185  20.333  0.00  0.00    +0.000 A 
ATOM     28  C   UNL     1       1.689   7.986  20.312  0.00  0.00    +0.000 A 
ATOM     29  C   UNL     1       2.264   7.536  19.125  0.00  0.00    +0.000 A 
ATOM     30  C   UNL     1       2.129   8.289  17.962  0.00  0.00    +0.000 A 
ATOM     31  C   UNL     1       1.417   9.491  17.985  0.00  0.00    +0.000 A 
ENDBRANCH  24  26
ENDBRANCH   1  25
TORSDOF 4
ENDMDL
MODEL 9
REMARK VINA RESULT:      -7.5      5.879     10.141
REMARK  Name = 
REMARK  5 active torsions:
REMARK  status: ('A' for Active; 'I' for Inactive)
REMARK    1  A    between atoms: C_1  and  C_2
REMARK    2  A    between atoms: C_5  and  C_6
REMARK    3  A    between atoms: C_12  and  C_13
REMARK    4  A    between atoms: N_15  and  C_16
REMARK    5  A    between atoms: C_18  and  C_19
REMARK                            x       y       z     vdW  Elec       q    Type
REMARK                         _______ _______ _______ _____ _____    ______ ____
ROOT
ATOM      1  C   UNL     1       2.236  14.393  19.813  0.00  0.00    +0.000 C 
ATOM      2  O   UNL     1       2.916  14.256  20.822  0.00  0.00    +0.000 OA
ATOM      3  N   UNL     1       1.191  13.573  19.428  0.00  0.00    +0.000 N 
ATOM      4  H   UNL     1       0.759  13.705  18.525  0.00  0.00    +0.000 HD
ENDROOT
BRANCH   3   5
ATOM      5  C   UNL     1       0.820  12.422  20.146  0.00  0.00    +0.000 A 
ATOM      6  N   UNL     1       1.277  11.219  19.772  0.00  0.00    +0.000 NA
ATOM      7  C   UNL     1       0.879  10.100  20.405  0.00  0.00    +0.000 A 
ATOM      8  N   UNL     1       0.026  10.077  21.439  0.00  0.00    +0.000 NA
ATOM      9  C   UNL     1      -0.427  11.286  21.841  0.00  0.00    +0.000 A 
ATOM     10  C   UNL     1      -1.351  11.494  22.907  0.00  0.00    +0.000 A 
ATOM     11  C   UNL     1      -1.641  12.825  23.099  0.00  0.00    +0.000 A 
ATOM     12  S   UNL     1      -0.806  13.827  21.993  0.00  0.00    +0.000 S 
ATOM     13  C   UNL     1      -0.049  12.481  21.233  0.00  0.00    +0.000 A 
BRANCH   7  14
ATOM     14  C   UNL     1       1.433   8.820  19.887  0.00  0.00    +0.000 A 
ATOM     15  C   UNL     1       1.500   7.679  20.696  0.00  0.00    +0.000 A 
ATOM     16  C   UNL     1       2.039   6.498  20.187  0.00  0.00    +0.000 A 
ATOM     17  C   UNL     1       2.500   6.473  18.881  0.00  0.00    +0.000 A 
ATOM     18  C   UNL     1       2.403   7.635  18.135  0.00  0.00    +0.000 A 
ATOM     19  N   UNL     1       1.886   8.794  18.601  0.00  0.00    +0.000 NA
ENDBRANCH   7  14
ENDBRANCH   3   5
BRANCH   1  25
ATOM     20  C   UNL     1       4.890  14.759  17.844  0.00  0.00    +0.000 C 
ATOM     21  C   UNL     1       3.664  15.554  18.060  0.00  0.00    +0.000 A 
ATOM     22  O   UNL     1       3.522  16.635  17.250  0.00  0.00    +0.000 OA
ATOM     23  N   UNL     1       2.337  17.273  17.528  0.00  0.00    +0.000 NA
ATOM     24  C   UNL     1       1.749  16.582  18.518  0.00  0.00    +0.000 A 
ATOM     25  C   UNL     1       2.558  15.450  18.872  0.00  0.00    +0.000 A 
BRANCH  24  26
ATOM     26  C   UNL     1       0.483  17.042  19.100  0.00  0.00    +0.000 A 
ATOM     27  C   UNL     1       0.363  17.241  20.484  0.00  0.00    +0.000 A 
ATOM     28  C   UNL     1      -0.845  17.669  21.043  0.00  0.00    +0.000 A 
ATOM     29  C   UNL     1      -1.950  17.903  20.227  0.00  0.00    +0.000 A 
ATOM     30  C   UNL     1      -1.851  17.698  18.853  0.00  0.00    +0.000 A 
ATOM     31  C   UNL     1      -0.646  17.261  18.296  0.00  0.00    +0.000 A 
ENDBRANCH  24  26
ENDBRANCH   1  25
TORSDOF 4
ENDMDL
