MODEL 1
REMARK VINA RESULT:      -7.0      0.000      0.000
REMARK  Name = 
REMARK  5 active torsions:
REMARK  status: ('A' for Active; 'I' for Inactive)
REMARK    1  A    between atoms: C_1  and  C_2
REMARK    2  A    between atoms: C_2  and  C_3
REMARK    3  A    between atoms: C_3  and  C_4
REMARK    4  A    between atoms: C_4  and  O_5
REMARK    5  A    between atoms: O_5  and  C_6
REMARK                            x       y       z     vdW  Elec       q    Type
REMARK                         _______ _______ _______ _____ _____    ______ ____
ROOT
ATOM      1  C   UNL     1       5.295   4.805  18.352  0.00  0.00    +0.000 A 
ATOM      2  O   UNL     1       5.701   3.620  19.011  0.00  0.00    +0.000 OA
ATOM      3  C   UNL     1       4.871   2.901  19.815  0.00  0.00    +0.000 A 
ATOM      4  O   UNL     1       5.229   1.860  20.352  0.00  0.00    +0.000 OA
ATOM      5  C   UNL     1       3.511   3.448  20.020  0.00  0.00    +0.000 A 
ATOM      6  C   UNL     1       2.668   2.815  20.947  0.00  0.00    +0.000 A 
ATOM      7  C   UNL     1       1.388   3.312  21.178  0.00  0.00    +0.000 A 
ATOM      8  C   UNL     1       0.935   4.410  20.462  0.00  0.00    +0.000 A 
ATOM      9  C   UNL     1       1.770   5.034  19.528  0.00  0.00    +0.000 A 
ATOM     10  C   UNL     1       3.082   4.580  19.314  0.00  0.00    +0.000 A 
ATOM     11  C   UNL     1       4.040   5.271  18.445  0.00  0.00    +0.000 A 
ATOM     12 CL   UNL     1       3.565   6.718  17.618  0.00  0.00    +0.000 Cl
ENDROOT
BRANCH   1  13
ATOM     13  O   UNL     1       6.236   5.516  17.631  0.00  0.00    +0.000 OA
BRANCH  13  14
ATOM     14  C   UNL     1       7.564   5.410  18.141  0.00  0.00    +0.000 C 
BRANCH  14  15
ATOM     15  C   UNL     1       7.938   6.777  18.699  0.00  0.00    +0.000 C 
BRANCH  15  17
ATOM     16  C   UNL     1       8.368   9.183  18.150  0.00  0.00    +0.000 C 
ATOM     17  C   UNL     1       7.767   7.878  17.661  0.00  0.00    +0.000 C 
ENDBRANCH  15  17
ENDBRANCH  14  15
ENDBRANCH  13  14
ENDBRANCH   1  13
TORSDOF 4
ENDMDL
MODEL 2
REMARK VINA RESULT:      -6.9      2.093      5.492
REMARK  Name = 
REMARK  5 active torsions:
REMARK  status: ('A' for Active; 'I' for Inactive)
REMARK    1  A    between atoms: C_1  and  C_2
REMARK    2  A    between atoms: C_2  and  C_3
REMARK    3  A    between atoms: C_3  and  C_4
REMARK    4  A    between atoms: C_4  and  O_5
REMARK    5  A    between atoms: O_5  and  C_6
REMARK                            x       y       z     vdW  Elec       q    Type
REMARK                         _______ _______ _______ _____ _____    ______ ____
ROOT
ATOM      1  C   UNL     1       4.355   3.102  19.337  0.00  0.00    +0.000 A 
ATOM      2  O   UNL     1       5.370   3.879  19.945  0.00  0.00    +0.000 OA
ATOM      3  C   UNL     1       6.190   4.704  19.239  0.00  0.00    +0.000 A 
ATOM      4  O   UNL     1       7.042   5.394  19.786  0.00  0.00    +0.000 OA
ATOM      5  C   UNL     1       6.011   4.717  17.771  0.00  0.00    +0.000 A 
ATOM      6  C   UNL     1       6.923   5.446  16.991  0.00  0.00    +0.000 A 
ATOM      7  C   UNL     1       6.795   5.467  15.604  0.00  0.00    +0.000 A 
ATOM      8  C   UNL     1       5.742   4.797  14.999  0.00  0.00    +0.000 A 
ATOM      9  C   UNL     1       4.825   4.080  15.776  0.00  0.00    +0.000 A 
ATOM     10  C   UNL     1       4.963   4.005  17.172  0.00  0.00    +0.000 A 
ATOM     11  C   UNL     1       4.109   3.167  18.020  0.00  0.00    +0.000 A 
ATOM     12 CL   UNL     1       2.852   2.213  17.303  0.00  0.00    +0.000 Cl
ENDROOT
BRANCH   1  13
ATOM     13  O   UNL     1       3.633   2.224  20.126  0.00  0.00    +0.000 OA
BRANCH  13  14
ATOM     14  C   UNL     1       2.808   2.860  21.100  0.00  0.00    +0.000 C 
BRANCH  14  15
ATOM     15  C   UNL     1       1.383   2.831  20.563  0.00  0.00    +0.000 C 
BRANCH  15  17
ATOM     16  C   UNL     1       1.882   5.284  20.653  0.00  0.00    +0.000 C 
ATOM     17  C   UNL     1       0.839   4.233  20.321  0.00  0.00    +0.000 C 
ENDBRANCH  15  17
ENDBRANCH  14  15
ENDBRANCH  13  14
ENDBRANCH   1  13
TORSDOF 4
ENDMDL
MODEL 3
REMARK VINA RESULT:      -6.9      2.651      3.228
REMARK  Name = 
REMARK  5 active torsions:
REMARK  status: ('A' for Active; 'I' for Inactive)
REMARK    1  A    between atoms: C_1  and  C_2
REMARK    2  A    between atoms: C_2  and  C_3
REMARK    3  A    between atoms: C_3  and  C_4
REMARK    4  A    between atoms: C_4  and  O_5
REMARK    5  A    between atoms: O_5  and  C_6
REMARK                            x       y       z     vdW  Elec       q    Type
REMARK                         _______ _______ _______ _____ _____    ______ ____
ROOT
ATOM      1  C   UNL     1       4.489   4.578  17.004  0.00  0.00    +0.000 A 
ATOM      2  O   UNL     1       4.452   3.168  17.114  0.00  0.00    +0.000 OA
ATOM      3  C   UNL     1       3.651   2.517  18.002  0.00  0.00    +0.000 A 
ATOM      4  O   UNL     1       3.608   1.295  18.061  0.00  0.00    +0.000 OA
ATOM      5  C   UNL     1       2.840   3.364  18.905  0.00  0.00    +0.000 A 
ATOM      6  C   UNL     1       2.105   2.741  19.926  0.00  0.00    +0.000 A 
ATOM      7  C   UNL     1       1.344   3.507  20.805  0.00  0.00    +0.000 A 
ATOM      8  C   UNL     1       1.284   4.884  20.645  0.00  0.00    +0.000 A 
ATOM      9  C   UNL     1       2.007   5.505  19.619  0.00  0.00    +0.000 A 
ATOM     10  C   UNL     1       2.820   4.757  18.752  0.00  0.00    +0.000 A 
ATOM     11  C   UNL     1       3.694   5.366  17.745  0.00  0.00    +0.000 A 
ATOM     12 CL   UNL     1       3.751   7.091  17.581  0.00  0.00    +0.000 Cl
ENDROOT
BRANCH   1  13
ATOM     13  O   UNL     1       5.403   5.150  16.137  0.00  0.00    +0.000 OA
BRANCH  13  14
ATOM     14  C   UNL     1       6.489   4.295  15.788  0.00  0.00    +0.000 C 
BRANCH  14  15
ATOM     15  C   UNL     1       6.732   4.470  14.295  0.00  0.00    +0.000 C 
BRANCH  15  17
ATOM     16  C   UNL     1       6.127   3.274  12.178  0.00  0.00    +0.000 C 
ATOM     17  C   UNL     1       5.599   3.883  13.464  0.00  0.00    +0.000 C 
ENDBRANCH  15  17
ENDBRANCH  14  15
ENDBRANCH  13  14
ENDBRANCH   1  13
TORSDOF 4
ENDMDL
MODEL 4
REMARK VINA RESULT:      -6.9      1.494      1.729
REMARK  Name = 
REMARK  5 active torsions:
REMARK  status: ('A' for Active; 'I' for Inactive)
REMARK    1  A    between atoms: C_1  and  C_2
REMARK    2  A    between atoms: C_2  and  C_3
REMARK    3  A    between atoms: C_3  and  C_4
REMARK    4  A    between atoms: C_4  and  O_5
REMARK    5  A    between atoms: O_5  and  C_6
REMARK                            x       y       z     vdW  Elec       q    Type
REMARK                         _______ _______ _______ _____ _____    ______ ____
ROOT
ATOM      1  C   UNL     1       4.397   4.704  17.078  0.00  0.00    +0.000 A 
ATOM      2  O   UNL     1       4.461   3.290  17.084  0.00  0.00    +0.000 OA
ATOM      3  C   UNL     1       3.692   2.520  17.901  0.00  0.00    +0.000 A 
ATOM      4  O   UNL     1       3.737   1.297  17.871  0.00  0.00    +0.000 OA
ATOM      5  C   UNL     1       2.803   3.238  18.842  0.00  0.00    +0.000 A 
ATOM      6  C   UNL     1       2.094   2.490  19.796  0.00  0.00    +0.000 A 
ATOM      7  C   UNL     1       1.261   3.133  20.708  0.00  0.00    +0.000 A 
ATOM      8  C   UNL     1       1.103   4.509  20.646  0.00  0.00    +0.000 A 
ATOM      9  C   UNL     1       1.800   5.255  19.688  0.00  0.00    +0.000 A 
ATOM     10  C   UNL     1       2.683   4.633  18.789  0.00  0.00    +0.000 A 
ATOM     11  C   UNL     1       3.531   5.376  17.852  0.00  0.00    +0.000 A 
ATOM     12 CL   UNL     1       3.464   7.108  17.815  0.00  0.00    +0.000 Cl
ENDROOT
BRANCH   1  13
ATOM     13  O   UNL     1       5.283   5.403  16.278  0.00  0.00    +0.000 OA
BRANCH  13  14
ATOM     14  C   UNL     1       6.625   5.405  16.761  0.00  0.00    +0.000 C 
BRANCH  14  15
ATOM     15  C   UNL     1       6.971   6.848  17.106  0.00  0.00    +0.000 C 
BRANCH  15  17
ATOM     16  C   UNL     1       7.709   5.748  19.233  0.00  0.00    +0.000 C 
ATOM     17  C   UNL     1       7.903   6.935  18.308  0.00  0.00    +0.000 C 
ENDBRANCH  15  17
ENDBRANCH  14  15
ENDBRANCH  13  14
ENDBRANCH   1  13
TORSDOF 4
ENDMDL
MODEL 5
REMARK VINA RESULT:      -6.8      1.690      2.423
REMARK  Name = 
REMARK  5 active torsions:
REMARK  status: ('A' for Active; 'I' for Inactive)
REMARK    1  A    between atoms: C_1  and  C_2
REMARK    2  A    between atoms: C_2  and  C_3
REMARK    3  A    between atoms: C_3  and  C_4
REMARK    4  A    between atoms: C_4  and  O_5
REMARK    5  A    between atoms: O_5  and  C_6
REMARK                            x       y       z     vdW  Elec       q    Type
REMARK                         _______ _______ _______ _____ _____    ______ ____
ROOT
ATOM      1  C   UNL     1       5.230   4.871  18.584  0.00  0.00    +0.000 A 
ATOM      2  O   UNL     1       5.640   3.657  19.186  0.00  0.00    +0.000 OA
ATOM      3  C   UNL     1       4.790   2.851  19.877  0.00  0.00    +0.000 A 
ATOM      4  O   UNL     1       5.155   1.788  20.364  0.00  0.00    +0.000 OA
ATOM      5  C   UNL     1       3.397   3.329  20.023  0.00  0.00    +0.000 A 
ATOM      6  C   UNL     1       2.521   2.599  20.842  0.00  0.00    +0.000 A 
ATOM      7  C   UNL     1       1.207   3.029  21.016  0.00  0.00    +0.000 A 
ATOM      8  C   UNL     1       0.757   4.158  20.348  0.00  0.00    +0.000 A 
ATOM      9  C   UNL     1       1.627   4.879  19.521  0.00  0.00    +0.000 A 
ATOM     10  C   UNL     1       2.969   4.492  19.369  0.00  0.00    +0.000 A 
ATOM     11  C   UNL     1       3.952   5.280  18.621  0.00  0.00    +0.000 A 
ATOM     12 CL   UNL     1       3.474   6.765  17.864  0.00  0.00    +0.000 Cl
ENDROOT
BRANCH   1  13
ATOM     13  O   UNL     1       6.187   5.668  17.982  0.00  0.00    +0.000 OA
BRANCH  13  14
ATOM     14  C   UNL     1       6.981   4.991  17.010  0.00  0.00    +0.000 C 
BRANCH  14  15
ATOM     15  C   UNL     1       6.247   5.102  15.680  0.00  0.00    +0.000 C 
BRANCH  15  17
ATOM     16  C   UNL     1       5.666   3.964  13.525  0.00  0.00    +0.000 C 
ATOM     17  C   UNL     1       6.290   3.796  14.898  0.00  0.00    +0.000 C 
ENDBRANCH  15  17
ENDBRANCH  14  15
ENDBRANCH  13  14
ENDBRANCH   1  13
TORSDOF 4
ENDMDL
MODEL 6
REMARK VINA RESULT:      -6.8      2.853      3.464
REMARK  Name = 
REMARK  5 active torsions:
REMARK  status: ('A' for Active; 'I' for Inactive)
REMARK    1  A    between atoms: C_1  and  C_2
REMARK    2  A    between atoms: C_2  and  C_3
REMARK    3  A    between atoms: C_3  and  C_4
REMARK    4  A    between atoms: C_4  and  O_5
REMARK    5  A    between atoms: O_5  and  C_6
REMARK                            x       y       z     vdW  Elec       q    Type
REMARK                         _______ _______ _______ _____ _____    ______ ____
ROOT
ATOM      1  C   UNL     1       5.686   6.588  17.119  0.00  0.00    +0.000 A 
ATOM      2  O   UNL     1       4.619   7.412  17.551  0.00  0.00    +0.000 OA
ATOM      3  C   UNL     1       3.402   6.918  17.905  0.00  0.00    +0.000 A 
ATOM      4  O   UNL     1       2.500   7.642  18.307  0.00  0.00    +0.000 OA
ATOM      5  C   UNL     1       3.215   5.456  17.768  0.00  0.00    +0.000 A 
ATOM      6  C   UNL     1       1.937   4.920  17.989  0.00  0.00    +0.000 A 
ATOM      7  C   UNL     1       1.721   3.551  17.853  0.00  0.00    +0.000 A 
ATOM      8  C   UNL     1       2.780   2.714  17.534  0.00  0.00    +0.000 A 
ATOM      9  C   UNL     1       4.058   3.246  17.325  0.00  0.00    +0.000 A 
ATOM     10  C   UNL     1       4.289   4.630  17.410  0.00  0.00    +0.000 A 
ATOM     11  C   UNL     1       5.574   5.251  17.076  0.00  0.00    +0.000 A 
ATOM     12 CL   UNL     1       6.901   4.265  16.556  0.00  0.00    +0.000 Cl
ENDROOT
BRANCH   1  13
ATOM     13  O   UNL     1       6.856   7.190  16.693  0.00  0.00    +0.000 OA
BRANCH  13  14
ATOM     14  C   UNL     1       7.746   7.547  17.748  0.00  0.00    +0.000 C 
BRANCH  14  15
ATOM     15  C   UNL     1       7.913   9.060  17.698  0.00  0.00    +0.000 C 
BRANCH  15  17
ATOM     16  C   UNL     1       9.431  10.928  18.394  0.00  0.00    +0.000 C 
ATOM     17  C   UNL     1       8.886   9.559  18.758  0.00  0.00    +0.000 C 
ENDBRANCH  15  17
ENDBRANCH  14  15
ENDBRANCH  13  14
ENDBRANCH   1  13
TORSDOF 4
ENDMDL
MODEL 7
REMARK VINA RESULT:      -6.8      2.234      5.577
REMARK  Name = 
REMARK  5 active torsions:
REMARK  status: ('A' for Active; 'I' for Inactive)
REMARK    1  A    between atoms: C_1  and  C_2
REMARK    2  A    between atoms: C_2  and  C_3
REMARK    3  A    between atoms: C_3  and  C_4
REMARK    4  A    between atoms: C_4  and  O_5
REMARK    5  A    between atoms: O_5  and  C_6
REMARK                            x       y       z     vdW  Elec       q    Type
REMARK                         _______ _______ _______ _____ _____    ______ ____
ROOT
ATOM      1  C   UNL     1       3.799   5.242  19.398  0.00  0.00    +0.000 A 
ATOM      2  O   UNL     1       5.082   5.361  19.983  0.00  0.00    +0.000 OA
ATOM      3  C   UNL     1       6.234   5.252  19.266  0.00  0.00    +0.000 A 
ATOM      4  O   UNL     1       7.335   5.390  19.783  0.00  0.00    +0.000 OA
ATOM      5  C   UNL     1       6.090   4.946  17.826  0.00  0.00    +0.000 A 
ATOM      6  C   UNL     1       7.249   4.690  17.076  0.00  0.00    +0.000 A 
ATOM      7  C   UNL     1       7.150   4.381  15.722  0.00  0.00    +0.000 A 
ATOM      8  C   UNL     1       5.907   4.366  15.107  0.00  0.00    +0.000 A 
ATOM      9  C   UNL     1       4.751   4.633  15.850  0.00  0.00    +0.000 A 
ATOM     10  C   UNL     1       4.823   4.898  17.228  0.00  0.00    +0.000 A 
ATOM     11  C   UNL     1       3.639   5.058  18.078  0.00  0.00    +0.000 A 
ATOM     12 CL   UNL     1       2.055   4.929  17.385  0.00  0.00    +0.000 Cl
ENDROOT
BRANCH   1  13
ATOM     13  O   UNL     1       2.690   5.274  20.223  0.00  0.00    +0.000 OA
BRANCH  13  14
ATOM     14  C   UNL     1       2.442   4.052  20.914  0.00  0.00    +0.000 C 
BRANCH  14  15
ATOM     15  C   UNL     1       0.979   3.697  20.681  0.00  0.00    +0.000 C 
BRANCH  15  17
ATOM     16  C   UNL     1       2.055   1.903  19.301  0.00  0.00    +0.000 C 
ATOM     17  C   UNL     1       0.808   2.743  19.506  0.00  0.00    +0.000 C 
ENDBRANCH  15  17
ENDBRANCH  14  15
ENDBRANCH  13  14
ENDBRANCH   1  13
TORSDOF 4
ENDMDL
MODEL 8
REMARK VINA RESULT:      -6.7      1.093      1.100
REMARK  Name = 
REMARK  5 active torsions:
REMARK  status: ('A' for Active; 'I' for Inactive)
REMARK    1  A    between atoms: C_1  and  C_2
REMARK    2  A    between atoms: C_2  and  C_3
REMARK    3  A    between atoms: C_3  and  C_4
REMARK    4  A    between atoms: C_4  and  O_5
REMARK    5  A    between atoms: O_5  and  C_6
REMARK                            x       y       z     vdW  Elec       q    Type
REMARK                         _______ _______ _______ _____ _____    ______ ____
ROOT
ATOM      1  C   UNL     1       5.238   4.992  18.573  0.00  0.00    +0.000 A 
ATOM      2  O   UNL     1       5.569   3.846  19.334  0.00  0.00    +0.000 OA
ATOM      3  C   UNL     1       4.665   2.877  19.642  0.00  0.00    +0.000 A 
ATOM      4  O   UNL     1       4.976   1.876  20.275  0.00  0.00    +0.000 OA
ATOM      5  C   UNL     1       3.275   3.100  19.184  0.00  0.00    +0.000 A 
ATOM      6  C   UNL     1       2.281   2.197  19.595  0.00  0.00    +0.000 A 
ATOM      7  C   UNL     1       0.960   2.385  19.197  0.00  0.00    +0.000 A 
ATOM      8  C   UNL     1       0.636   3.444  18.362  0.00  0.00    +0.000 A 
ATOM      9  C   UNL     1       1.628   4.338  17.942  0.00  0.00    +0.000 A 
ATOM     10  C   UNL     1       2.958   4.196  18.371  0.00  0.00    +0.000 A 
ATOM     11  C   UNL     1       4.009   5.172  18.065  0.00  0.00    +0.000 A 
ATOM     12 CL   UNL     1       3.633   6.579  17.126  0.00  0.00    +0.000 Cl
ENDROOT
BRANCH   1  13
ATOM     13  O   UNL     1       6.203   5.966  18.391  0.00  0.00    +0.000 OA
BRANCH  13  14
ATOM     14  C   UNL     1       7.428   5.707  19.072  0.00  0.00    +0.000 C 
BRANCH  14  15
ATOM     15  C   UNL     1       8.310   6.935  18.886  0.00  0.00    +0.000 C 
BRANCH  15  17
ATOM     16  C   UNL     1       8.243   9.267  17.973  0.00  0.00    +0.000 C 
ATOM     17  C   UNL     1       7.805   7.830  17.761  0.00  0.00    +0.000 C 
ENDBRANCH  15  17
ENDBRANCH  14  15
ENDBRANCH  13  14
ENDBRANCH   1  13
TORSDOF 4
ENDMDL
MODEL 9
REMARK VINA RESULT:      -6.6      2.168      5.870
REMARK  Name = 
REMARK  5 active torsions:
REMARK  status: ('A' for Active; 'I' for Inactive)
REMARK    1  A    between atoms: C_1  and  C_2
REMARK    2  A    between atoms: C_2  and  C_3
REMARK    3  A    between atoms: C_3  and  C_4
REMARK    4  A    between atoms: C_4  and  O_5
REMARK    5  A    between atoms: O_5  and  C_6
REMARK                            x       y       z     vdW  Elec       q    Type
REMARK                         _______ _______ _______ _____ _____    ______ ____
ROOT
ATOM      1  C   UNL     1       4.301   4.512  18.912  0.00  0.00    +0.000 A 
ATOM      2  O   UNL     1       5.484   5.181  19.305  0.00  0.00    +0.000 OA
ATOM      3  C   UNL     1       6.474   5.506  18.429  0.00  0.00    +0.000 A 
ATOM      4  O   UNL     1       7.478   6.113  18.781  0.00  0.00    +0.000 OA
ATOM      5  C   UNL     1       6.283   5.075  17.026  0.00  0.00    +0.000 A 
ATOM      6  C   UNL     1       7.337   5.267  16.118  0.00  0.00    +0.000 A 
ATOM      7  C   UNL     1       7.199   4.859  14.794  0.00  0.00    +0.000 A 
ATOM      8  C   UNL     1       6.005   4.298  14.365  0.00  0.00    +0.000 A 
ATOM      9  C   UNL     1       4.949   4.118  15.267  0.00  0.00    +0.000 A 
ATOM     10  C   UNL     1       5.084   4.477  16.619  0.00  0.00    +0.000 A 
ATOM     11  C   UNL     1       4.060   4.195  17.630  0.00  0.00    +0.000 A 
ATOM     12 CL   UNL     1       2.596   3.387  17.174  0.00  0.00    +0.000 Cl
ENDROOT
BRANCH   1  13
ATOM     13  O   UNL     1       3.394   4.142  19.889  0.00  0.00    +0.000 OA
BRANCH  13  14
ATOM     14  C   UNL     1       2.522   5.193  20.302  0.00  0.00    +0.000 C 
BRANCH  14  15
ATOM     15  C   UNL     1       1.142   4.577  20.492  0.00  0.00    +0.000 C 
BRANCH  15  17
ATOM     16  C   UNL     1       1.439   2.494  21.852  0.00  0.00    +0.000 C 
ATOM     17  C   UNL     1       1.192   3.055  20.464  0.00  0.00    +0.000 C 
ENDBRANCH  15  17
ENDBRANCH  14  15
ENDBRANCH  13  14
ENDBRANCH   1  13
TORSDOF 4
ENDMDL
