MODEL 1
REMARK VINA RESULT:      -6.8      0.000      0.000
REMARK  Name = 
REMARK  5 active torsions:
REMARK  status: ('A' for Active; 'I' for Inactive)
REMARK    1  A    between atoms: C_1  and  O_2
REMARK    2  A    between atoms: O_2  and  C_3
REMARK    3  A    between atoms: C_7  and  C_8
REMARK    4  A    between atoms: C_13  and  C_14
REMARK    5  A    between atoms: N_20  and  C_21
REMARK                            x       y       z     vdW  Elec       q    Type
REMARK                         _______ _______ _______ _____ _____    ______ ____
ROOT
ATOM      1  C   UNL     1       4.865   3.597  18.734  0.00  0.00    +0.000 A 
ATOM      2  N   UNL     1       5.661   2.895  19.578  0.00  0.00    +0.000 NA
ATOM      3  N   UNL     1       4.830   2.405  20.532  0.00  0.00    +0.000 N 
ATOM      4  C   UNL     1       3.563   2.799  20.330  0.00  0.00    +0.000 A 
ATOM      5  C   UNL     1       3.539   3.554  19.194  0.00  0.00    +0.000 A 
ATOM      6  C   UNL     1       2.163   4.024  18.923  0.00  0.00    +0.000 C 
ATOM      7  N   UNL     1       1.460   3.426  20.093  0.00  0.00    +0.000 N 
ATOM      8  C   UNL     1       0.057   3.637  20.336  0.00  0.00    +0.000 C 
ATOM      9  C   UNL     1       2.291   2.688  20.940  0.00  0.00    +0.000 C 
ATOM     10  O   UNL     1       2.000   2.107  21.971  0.00  0.00    +0.000 OA
ATOM     11  H   UNL     1       5.215   1.830  21.277  0.00  0.00    +0.000 HD
ENDROOT
BRANCH   1  16
ATOM     12  C   UNL     1       6.873   5.945  16.572  0.00  0.00    +0.000 A 
ATOM     13  C   UNL     1       6.421   5.584  15.301  0.00  0.00    +0.000 A 
ATOM     14  C   UNL     1       5.466   4.578  15.148  0.00  0.00    +0.000 A 
ATOM     15  C   UNL     1       4.953   3.930  16.271  0.00  0.00    +0.000 A 
ATOM     16  C   UNL     1       5.400   4.272  17.553  0.00  0.00    +0.000 A 
ATOM     17  C   UNL     1       6.367   5.281  17.691  0.00  0.00    +0.000 A 
BRANCH  12  19
ATOM     18  C   UNL     1       7.691   7.884  17.675  0.00  0.00    +0.000 C 
ATOM     19  O   UNL     1       7.791   6.959  16.597  0.00  0.00    +0.000 OA
ENDBRANCH  12  19
ENDBRANCH   1  16
BRANCH   6  20
ATOM     20  C   UNL     1       2.174   5.536  18.890  0.00  0.00    +0.000 A 
ATOM     21  C   UNL     1       2.382   6.255  17.710  0.00  0.00    +0.000 A 
ATOM     22  C   UNL     1       2.394   7.646  17.754  0.00  0.00    +0.000 A 
ATOM     23  C   UNL     1       2.203   8.290  18.969  0.00  0.00    +0.000 A 
ATOM     24  C   UNL     1       2.011   7.514  20.097  0.00  0.00    +0.000 A 
ATOM     25  N   UNL     1       1.999   6.161  20.088  0.00  0.00    +0.000 NA
ENDBRANCH   6  20
TORSDOF 3
ENDMDL
MODEL 2
REMARK VINA RESULT:      -6.7      2.813      5.617
REMARK  Name = 
REMARK  5 active torsions:
REMARK  status: ('A' for Active; 'I' for Inactive)
REMARK    1  A    between atoms: C_1  and  O_2
REMARK    2  A    between atoms: O_2  and  C_3
REMARK    3  A    between atoms: C_7  and  C_8
REMARK    4  A    between atoms: C_13  and  C_14
REMARK    5  A    between atoms: N_20  and  C_21
REMARK                            x       y       z     vdW  Elec       q    Type
REMARK                         _______ _______ _______ _____ _____    ______ ____
ROOT
ATOM      1  C   UNL     1       3.465   6.936  18.021  0.00  0.00    +0.000 A 
ATOM      2  N   UNL     1       4.630   7.498  17.612  0.00  0.00    +0.000 NA
ATOM      3  N   UNL     1       5.282   6.520  16.934  0.00  0.00    +0.000 N 
ATOM      4  C   UNL     1       4.585   5.373  16.933  0.00  0.00    +0.000 A 
ATOM      5  C   UNL     1       3.420   5.595  17.608  0.00  0.00    +0.000 A 
ATOM      6  C   UNL     1       2.610   4.358  17.646  0.00  0.00    +0.000 C 
ATOM      7  N   UNL     1       3.522   3.439  16.910  0.00  0.00    +0.000 N 
ATOM      8  C   UNL     1       3.213   2.047  16.711  0.00  0.00    +0.000 C 
ATOM      9  C   UNL     1       4.706   4.040  16.477  0.00  0.00    +0.000 C 
ATOM     10  O   UNL     1       5.636   3.534  15.871  0.00  0.00    +0.000 OA
ATOM     11  H   UNL     1       6.189   6.722  16.522  0.00  0.00    +0.000 HD
ENDROOT
BRANCH   1  16
ATOM     12  C   UNL     1       0.877   9.526  18.923  0.00  0.00    +0.000 A 
ATOM     13  C   UNL     1       0.578   9.154  20.235  0.00  0.00    +0.000 A 
ATOM     14  C   UNL     1       1.215   8.060  20.824  0.00  0.00    +0.000 A 
ATOM     15  C   UNL     1       2.164   7.336  20.102  0.00  0.00    +0.000 A 
ATOM     16  C   UNL     1       2.471   7.690  18.782  0.00  0.00    +0.000 A 
ATOM     17  C   UNL     1       1.816   8.787  18.201  0.00  0.00    +0.000 A 
BRANCH  12  19
ATOM     18  C   UNL     1      -1.195  10.481  18.256  0.00  0.00    +0.000 C 
ATOM     19  O   UNL     1       0.206  10.626  18.463  0.00  0.00    +0.000 OA
ENDBRANCH  12  19
ENDBRANCH   1  16
BRANCH   6  20
ATOM     20  C   UNL     1       2.367   3.992  19.094  0.00  0.00    +0.000 A 
ATOM     21  C   UNL     1       1.083   3.930  19.643  0.00  0.00    +0.000 A 
ATOM     22  C   UNL     1       0.933   3.601  20.986  0.00  0.00    +0.000 A 
ATOM     23  C   UNL     1       2.061   3.344  21.754  0.00  0.00    +0.000 A 
ATOM     24  C   UNL     1       3.300   3.430  21.145  0.00  0.00    +0.000 A 
ATOM     25  N   UNL     1       3.478   3.753  19.844  0.00  0.00    +0.000 NA
ENDBRANCH   6  20
TORSDOF 3
ENDMDL
MODEL 3
REMARK VINA RESULT:      -6.7      5.166      7.858
REMARK  Name = 
REMARK  5 active torsions:
REMARK  status: ('A' for Active; 'I' for Inactive)
REMARK    1  A    between atoms: C_1  and  O_2
REMARK    2  A    between atoms: O_2  and  C_3
REMARK    3  A    between atoms: C_7  and  C_8
REMARK    4  A    between atoms: C_13  and  C_14
REMARK    5  A    between atoms: N_20  and  C_21
REMARK                            x       y       z     vdW  Elec       q    Type
REMARK                         _______ _______ _______ _____ _____    ______ ____
ROOT
ATOM      1  C   UNL     1       0.175   9.611  21.364  0.00  0.00    +0.000 A 
ATOM      2  N   UNL     1       0.037   9.046  22.589  0.00  0.00    +0.000 NA
ATOM      3  N   UNL     1      -0.755   9.895  23.290  0.00  0.00    +0.000 N 
ATOM      4  C   UNL     1      -1.087  10.972  22.561  0.00  0.00    +0.000 A 
ATOM      5  C   UNL     1      -0.521  10.829  21.328  0.00  0.00    +0.000 A 
ATOM      6  C   UNL     1      -0.848  11.995  20.479  0.00  0.00    +0.000 C 
ATOM      7  N   UNL     1      -1.654  12.791  21.447  0.00  0.00    +0.000 N 
ATOM      8  C   UNL     1      -2.186  14.088  21.120  0.00  0.00    +0.000 C 
ATOM      9  C   UNL     1      -1.805  12.184  22.696  0.00  0.00    +0.000 C 
ATOM     10  O   UNL     1      -2.392  12.604  23.679  0.00  0.00    +0.000 OA
ATOM     11  H   UNL     1      -1.003   9.665  24.248  0.00  0.00    +0.000 HD
ENDROOT
BRANCH   1  16
ATOM     12  C   UNL     1       2.401   7.163  19.554  0.00  0.00    +0.000 A 
ATOM     13  C   UNL     1       2.479   7.759  18.295  0.00  0.00    +0.000 A 
ATOM     14  C   UNL     1       1.806   8.954  18.033  0.00  0.00    +0.000 A 
ATOM     15  C   UNL     1       1.055   9.564  19.038  0.00  0.00    +0.000 A 
ATOM     16  C   UNL     1       0.960   8.976  20.307  0.00  0.00    +0.000 A 
ATOM     17  C   UNL     1       1.635   7.771  20.551  0.00  0.00    +0.000 A 
BRANCH  12  19
ATOM     18  C   UNL     1       4.092   5.732  18.694  0.00  0.00    +0.000 C 
ATOM     19  O   UNL     1       3.121   6.008  19.697  0.00  0.00    +0.000 OA
ENDBRANCH  12  19
ENDBRANCH   1  16
BRANCH   6  20
ATOM     20  C   UNL     1       0.446  12.644  20.041  0.00  0.00    +0.000 A 
ATOM     21  C   UNL     1       0.721  12.934  18.702  0.00  0.00    +0.000 A 
ATOM     22  C   UNL     1       1.938  13.518  18.368  0.00  0.00    +0.000 A 
ATOM     23  C   UNL     1       2.856  13.798  19.371  0.00  0.00    +0.000 A 
ATOM     24  C   UNL     1       2.520  13.478  20.673  0.00  0.00    +0.000 A 
ATOM     25  N   UNL     1       1.348  12.904  21.029  0.00  0.00    +0.000 NA
ENDBRANCH   6  20
TORSDOF 3
ENDMDL
MODEL 4
REMARK VINA RESULT:      -6.6      2.505      5.467
REMARK  Name = 
REMARK  5 active torsions:
REMARK  status: ('A' for Active; 'I' for Inactive)
REMARK    1  A    between atoms: C_1  and  O_2
REMARK    2  A    between atoms: O_2  and  C_3
REMARK    3  A    between atoms: C_7  and  C_8
REMARK    4  A    between atoms: C_13  and  C_14
REMARK    5  A    between atoms: N_20  and  C_21
REMARK                            x       y       z     vdW  Elec       q    Type
REMARK                         _______ _______ _______ _____ _____    ______ ____
ROOT
ATOM      1  C   UNL     1       3.658   6.978  17.762  0.00  0.00    +0.000 A 
ATOM      2  N   UNL     1       4.851   7.495  17.378  0.00  0.00    +0.000 NA
ATOM      3  N   UNL     1       5.521   6.465  16.802  0.00  0.00    +0.000 N 
ATOM      4  C   UNL     1       4.805   5.331  16.841  0.00  0.00    +0.000 A 
ATOM      5  C   UNL     1       3.611   5.613  17.438  0.00  0.00    +0.000 A 
ATOM      6  C   UNL     1       2.778   4.393  17.515  0.00  0.00    +0.000 C 
ATOM      7  N   UNL     1       3.711   3.414  16.891  0.00  0.00    +0.000 N 
ATOM      8  C   UNL     1       3.389   2.016  16.769  0.00  0.00    +0.000 C 
ATOM      9  C   UNL     1       4.927   3.968  16.482  0.00  0.00    +0.000 C 
ATOM     10  O   UNL     1       5.878   3.409  15.962  0.00  0.00    +0.000 OA
ATOM     11  H   UNL     1       6.451   6.626  16.427  0.00  0.00    +0.000 HD
ENDROOT
BRANCH   1  16
ATOM     12  C   UNL     1       1.310   8.323  20.389  0.00  0.00    +0.000 A 
ATOM     13  C   UNL     1       0.679   9.346  19.679  0.00  0.00    +0.000 A 
ATOM     14  C   UNL     1       1.018   9.600  18.349  0.00  0.00    +0.000 A 
ATOM     15  C   UNL     1       1.990   8.823  17.719  0.00  0.00    +0.000 A 
ATOM     16  C   UNL     1       2.639   7.796  18.417  0.00  0.00    +0.000 A 
ATOM     17  C   UNL     1       2.293   7.559  19.757  0.00  0.00    +0.000 A 
BRANCH  12  19
ATOM     18  C   UNL     1       0.686   9.337  22.446  0.00  0.00    +0.000 C 
ATOM     19  O   UNL     1       0.877   8.155  21.676  0.00  0.00    +0.000 OA
ENDBRANCH  12  19
ENDBRANCH   1  16
BRANCH   6  20
ATOM     20  C   UNL     1       2.454   4.129  18.969  0.00  0.00    +0.000 A 
ATOM     21  C   UNL     1       1.143   3.971  19.425  0.00  0.00    +0.000 A 
ATOM     22  C   UNL     1       0.915   3.745  20.778  0.00  0.00    +0.000 A 
ATOM     23  C   UNL     1       1.995   3.684  21.649  0.00  0.00    +0.000 A 
ATOM     24  C   UNL     1       3.265   3.857  21.128  0.00  0.00    +0.000 A 
ATOM     25  N   UNL     1       3.518   4.084  19.819  0.00  0.00    +0.000 NA
ENDBRANCH   6  20
TORSDOF 3
ENDMDL
MODEL 5
REMARK VINA RESULT:      -6.4      1.034      1.859
REMARK  Name = 
REMARK  5 active torsions:
REMARK  status: ('A' for Active; 'I' for Inactive)
REMARK    1  A    between atoms: C_1  and  O_2
REMARK    2  A    between atoms: O_2  and  C_3
REMARK    3  A    between atoms: C_7  and  C_8
REMARK    4  A    between atoms: C_13  and  C_14
REMARK    5  A    between atoms: N_20  and  C_21
REMARK                            x       y       z     vdW  Elec       q    Type
REMARK                         _______ _______ _______ _____ _____    ______ ____
ROOT
ATOM      1  C   UNL     1       4.894   3.595  18.835  0.00  0.00    +0.000 A 
ATOM      2  N   UNL     1       5.659   2.888  19.703  0.00  0.00    +0.000 NA
ATOM      3  N   UNL     1       4.794   2.386  20.620  0.00  0.00    +0.000 N 
ATOM      4  C   UNL     1       3.535   2.777  20.372  0.00  0.00    +0.000 A 
ATOM      5  C   UNL     1       3.552   3.543  19.243  0.00  0.00    +0.000 A 
ATOM      6  C   UNL     1       2.186   4.012  18.924  0.00  0.00    +0.000 C 
ATOM      7  N   UNL     1       1.440   3.401  20.060  0.00  0.00    +0.000 N 
ATOM      8  C   UNL     1       0.028   3.605  20.250  0.00  0.00    +0.000 C 
ATOM      9  C   UNL     1       2.240   2.657  20.931  0.00  0.00    +0.000 C 
ATOM     10  O   UNL     1       1.911   2.065  21.944  0.00  0.00    +0.000 OA
ATOM     11  H   UNL     1       5.151   1.805  21.373  0.00  0.00    +0.000 HD
ENDROOT
BRANCH   1  16
ATOM     12  C   UNL     1       5.618   4.595  15.272  0.00  0.00    +0.000 A 
ATOM     13  C   UNL     1       6.583   5.585  15.467  0.00  0.00    +0.000 A 
ATOM     14  C   UNL     1       6.995   5.929  16.755  0.00  0.00    +0.000 A 
ATOM     15  C   UNL     1       6.446   5.275  17.859  0.00  0.00    +0.000 A 
ATOM     16  C   UNL     1       5.472   4.284  17.683  0.00  0.00    +0.000 A 
ATOM     17  C   UNL     1       5.062   3.955  16.382  0.00  0.00    +0.000 A 
BRANCH  12  19
ATOM     18  C   UNL     1       6.341   3.741  13.175  0.00  0.00    +0.000 C 
ATOM     19  O   UNL     1       5.313   4.328  13.965  0.00  0.00    +0.000 OA
ENDBRANCH  12  19
ENDBRANCH   1  16
BRANCH   6  20
ATOM     20  C   UNL     1       2.192   5.524  18.905  0.00  0.00    +0.000 A 
ATOM     21  C   UNL     1       2.418   6.256  17.736  0.00  0.00    +0.000 A 
ATOM     22  C   UNL     1       2.425   7.645  17.794  0.00  0.00    +0.000 A 
ATOM     23  C   UNL     1       2.212   8.277  19.011  0.00  0.00    +0.000 A 
ATOM     24  C   UNL     1       2.003   7.489  20.129  0.00  0.00    +0.000 A 
ATOM     25  N   UNL     1       1.996   6.137  20.106  0.00  0.00    +0.000 NA
ENDBRANCH   6  20
TORSDOF 3
ENDMDL
MODEL 6
REMARK VINA RESULT:      -6.4      8.340     11.839
REMARK  Name = 
REMARK  5 active torsions:
REMARK  status: ('A' for Active; 'I' for Inactive)
REMARK    1  A    between atoms: C_1  and  O_2
REMARK    2  A    between atoms: O_2  and  C_3
REMARK    3  A    between atoms: C_7  and  C_8
REMARK    4  A    between atoms: C_13  and  C_14
REMARK    5  A    between atoms: N_20  and  C_21
REMARK                            x       y       z     vdW  Elec       q    Type
REMARK                         _______ _______ _______ _____ _____    ______ ____
ROOT
ATOM      1  C   UNL     1      10.697  13.769  17.888  0.00  0.00    +0.000 A 
ATOM      2  N   UNL     1      11.503  13.811  16.798  0.00  0.00    +0.000 NA
ATOM      3  N   UNL     1      11.729  15.129  16.569  0.00  0.00    +0.000 N 
ATOM      4  C   UNL     1      11.075  15.901  17.450  0.00  0.00    +0.000 A 
ATOM      5  C   UNL     1      10.411  15.077  18.311  0.00  0.00    +0.000 A 
ATOM      6  C   UNL     1       9.662  15.876  19.306  0.00  0.00    +0.000 C 
ATOM      7  N   UNL     1      10.009  17.247  18.837  0.00  0.00    +0.000 N 
ATOM      8  C   UNL     1       9.472  18.429  19.459  0.00  0.00    +0.000 C 
ATOM      9  C   UNL     1      10.857  17.271  17.728  0.00  0.00    +0.000 C 
ATOM     10  O   UNL     1      11.289  18.238  17.124  0.00  0.00    +0.000 OA
ATOM     11  H   UNL     1      12.325  15.402  15.792  0.00  0.00    +0.000 HD
ENDROOT
BRANCH   1  16
ATOM     12  C   UNL     1       8.870  10.496  18.299  0.00  0.00    +0.000 A 
ATOM     13  C   UNL     1       9.340  10.087  19.548  0.00  0.00    +0.000 A 
ATOM     14  C   UNL     1      10.251  10.873  20.255  0.00  0.00    +0.000 A 
ATOM     15  C   UNL     1      10.692  12.082  19.715  0.00  0.00    +0.000 A 
ATOM     16  C   UNL     1      10.238  12.504  18.459  0.00  0.00    +0.000 A 
ATOM     17  C   UNL     1       9.328  11.699  17.757  0.00  0.00    +0.000 A 
BRANCH  12  19
ATOM     18  C   UNL     1       8.059   8.275  18.054  0.00  0.00    +0.000 C 
ATOM     19  O   UNL     1       7.963   9.654  17.714  0.00  0.00    +0.000 OA
ENDBRANCH  12  19
ENDBRANCH   1  16
BRANCH   6  20
ATOM     20  C   UNL     1       8.197  15.516  19.201  0.00  0.00    +0.000 A 
ATOM     21  C   UNL     1       7.550  15.374  17.971  0.00  0.00    +0.000 A 
ATOM     22  C   UNL     1       6.196  15.056  17.947  0.00  0.00    +0.000 A 
ATOM     23  C   UNL     1       5.515  14.891  19.145  0.00  0.00    +0.000 A 
ATOM     24  C   UNL     1       6.218  15.055  20.325  0.00  0.00    +0.000 A 
ATOM     25  N   UNL     1       7.532  15.369  20.381  0.00  0.00    +0.000 NA
ENDBRANCH   6  20
TORSDOF 3
ENDMDL
MODEL 7
REMARK VINA RESULT:      -6.4      1.821      5.426
REMARK  Name = 
REMARK  5 active torsions:
REMARK  status: ('A' for Active; 'I' for Inactive)
REMARK    1  A    between atoms: C_1  and  O_2
REMARK    2  A    between atoms: O_2  and  C_3
REMARK    3  A    between atoms: C_7  and  C_8
REMARK    4  A    between atoms: C_13  and  C_14
REMARK    5  A    between atoms: N_20  and  C_21
REMARK                            x       y       z     vdW  Elec       q    Type
REMARK                         _______ _______ _______ _____ _____    ______ ____
ROOT
ATOM      1  C   UNL     1       4.304   3.500  17.355  0.00  0.00    +0.000 A 
ATOM      2  N   UNL     1       4.620   2.778  16.252  0.00  0.00    +0.000 NA
ATOM      3  N   UNL     1       5.664   3.430  15.681  0.00  0.00    +0.000 N 
ATOM      4  C   UNL     1       5.985   4.538  16.367  0.00  0.00    +0.000 A 
ATOM      5  C   UNL     1       5.149   4.618  17.443  0.00  0.00    +0.000 A 
ATOM      6  C   UNL     1       5.453   5.828  18.236  0.00  0.00    +0.000 C 
ATOM      7  N   UNL     1       6.559   6.394  17.414  0.00  0.00    +0.000 N 
ATOM      8  C   UNL     1       7.194   7.645  17.738  0.00  0.00    +0.000 C 
ATOM      9  C   UNL     1       6.886   5.626  16.294  0.00  0.00    +0.000 C 
ATOM     10  O   UNL     1       7.729   5.848  15.442  0.00  0.00    +0.000 OA
ATOM     11  H   UNL     1       6.077   3.057  14.831  0.00  0.00    +0.000 HD
ENDROOT
BRANCH   1  16
ATOM     12  C   UNL     1       2.405   2.685  20.510  0.00  0.00    +0.000 A 
ATOM     13  C   UNL     1       1.164   2.323  19.984  0.00  0.00    +0.000 A 
ATOM     14  C   UNL     1       0.944   2.346  18.606  0.00  0.00    +0.000 A 
ATOM     15  C   UNL     1       1.972   2.727  17.744  0.00  0.00    +0.000 A 
ATOM     16  C   UNL     1       3.223   3.101  18.254  0.00  0.00    +0.000 A 
ATOM     17  C   UNL     1       3.426   3.080  19.642  0.00  0.00    +0.000 A 
BRANCH  12  19
ATOM     18  C   UNL     1       1.305   2.340  22.588  0.00  0.00    +0.000 C 
ATOM     19  O   UNL     1       2.508   2.600  21.872  0.00  0.00    +0.000 OA
ENDBRANCH  12  19
ENDBRANCH   1  16
BRANCH   6  20
ATOM     20  C   UNL     1       4.205   6.681  18.300  0.00  0.00    +0.000 A 
ATOM     21  C   UNL     1       3.866   7.586  17.291  0.00  0.00    +0.000 A 
ATOM     22  C   UNL     1       2.711   8.350  17.421  0.00  0.00    +0.000 A 
ATOM     23  C   UNL     1       1.921   8.201  18.553  0.00  0.00    +0.000 A 
ATOM     24  C   UNL     1       2.322   7.291  19.514  0.00  0.00    +0.000 A 
ATOM     25  N   UNL     1       3.441   6.538  19.419  0.00  0.00    +0.000 NA
ENDBRANCH   6  20
TORSDOF 3
ENDMDL
MODEL 8
REMARK VINA RESULT:      -6.4      9.764     11.847
REMARK  Name = 
REMARK  5 active torsions:
REMARK  status: ('A' for Active; 'I' for Inactive)
REMARK    1  A    between atoms: C_1  and  O_2
REMARK    2  A    between atoms: O_2  and  C_3
REMARK    3  A    between atoms: C_7  and  C_8
REMARK    4  A    between atoms: C_13  and  C_14
REMARK    5  A    between atoms: N_20  and  C_21
REMARK                            x       y       z     vdW  Elec       q    Type
REMARK                         _______ _______ _______ _____ _____    ______ ____
ROOT
ATOM      1  C   UNL     1      10.306  12.772  20.461  0.00  0.00    +0.000 A 
ATOM      2  N   UNL     1      10.924  11.591  20.213  0.00  0.00    +0.000 NA
ATOM      3  N   UNL     1      11.570  11.763  19.032  0.00  0.00    +0.000 N 
ATOM      4  C   UNL     1      11.353  12.987  18.527  0.00  0.00    +0.000 A 
ATOM      5  C   UNL     1      10.559  13.665  19.407  0.00  0.00    +0.000 A 
ATOM      6  C   UNL     1      10.278  15.024  18.897  0.00  0.00    +0.000 C 
ATOM      7  N   UNL     1      11.022  14.966  17.608  0.00  0.00    +0.000 N 
ATOM      8  C   UNL     1      11.024  16.061  16.672  0.00  0.00    +0.000 C 
ATOM      9  C   UNL     1      11.671  13.750  17.379  0.00  0.00    +0.000 C 
ATOM     10  O   UNL     1      12.333  13.414  16.413  0.00  0.00    +0.000 OA
ATOM     11  H   UNL     1      12.117  10.997  18.650  0.00  0.00    +0.000 HD
ENDROOT
BRANCH   1  16
ATOM     12  C   UNL     1       7.986  12.131  23.364  0.00  0.00    +0.000 A 
ATOM     13  C   UNL     1       7.967  13.389  23.968  0.00  0.00    +0.000 A 
ATOM     14  C   UNL     1       8.709  14.444  23.434  0.00  0.00    +0.000 A 
ATOM     15  C   UNL     1       9.472  14.244  22.283  0.00  0.00    +0.000 A 
ATOM     16  C   UNL     1       9.509  12.987  21.667  0.00  0.00    +0.000 A 
ATOM     17  C   UNL     1       8.764  11.934  22.221  0.00  0.00    +0.000 A 
BRANCH  12  19
ATOM     18  C   UNL     1       6.550  11.566  25.171  0.00  0.00    +0.000 C 
ATOM     19  O   UNL     1       7.201  11.184  23.964  0.00  0.00    +0.000 OA
ENDBRANCH  12  19
ENDBRANCH   1  16
BRANCH   6  20
ATOM     20  C   UNL     1       8.780  15.183  18.763  0.00  0.00    +0.000 A 
ATOM     21  C   UNL     1       8.007  14.333  17.968  0.00  0.00    +0.000 A 
ATOM     22  C   UNL     1       6.635  14.546  17.879  0.00  0.00    +0.000 A 
ATOM     23  C   UNL     1       6.063  15.600  18.578  0.00  0.00    +0.000 A 
ATOM     24  C   UNL     1       6.890  16.405  19.340  0.00  0.00    +0.000 A 
ATOM     25  N   UNL     1       8.227  16.227  19.442  0.00  0.00    +0.000 NA
ENDBRANCH   6  20
TORSDOF 3
ENDMDL
MODEL 9
REMARK VINA RESULT:      -6.4      6.379     10.013
REMARK  Name = 
REMARK  5 active torsions:
REMARK  status: ('A' for Active; 'I' for Inactive)
REMARK    1  A    between atoms: C_1  and  O_2
REMARK    2  A    between atoms: O_2  and  C_3
REMARK    3  A    between atoms: C_7  and  C_8
REMARK    4  A    between atoms: C_13  and  C_14
REMARK    5  A    between atoms: N_20  and  C_21
REMARK                            x       y       z     vdW  Elec       q    Type
REMARK                         _______ _______ _______ _____ _____    ______ ____
ROOT
ATOM      1  C   UNL     1      -0.437  10.922  22.451  0.00  0.00    +0.000 A 
ATOM      2  N   UNL     1      -0.130  10.006  23.404  0.00  0.00    +0.000 NA
ATOM      3  N   UNL     1       0.632   9.075  22.776  0.00  0.00    +0.000 N 
ATOM      4  C   UNL     1       0.782   9.361  21.473  0.00  0.00    +0.000 A 
ATOM      5  C   UNL     1       0.124  10.530  21.225  0.00  0.00    +0.000 A 
ATOM      6  C   UNL     1       0.250  10.893  19.797  0.00  0.00    +0.000 C 
ATOM      7  N   UNL     1       1.055   9.735  19.315  0.00  0.00    +0.000 N 
ATOM      8  C   UNL     1       1.418   9.576  17.931  0.00  0.00    +0.000 C 
ATOM      9  C   UNL     1       1.380   8.814  20.313  0.00  0.00    +0.000 C 
ATOM     10  O   UNL     1       2.008   7.774  20.210  0.00  0.00    +0.000 OA
ATOM     11  H   UNL     1       0.988   8.286  23.307  0.00  0.00    +0.000 HD
ENDROOT
BRANCH   1  16
ATOM     12  C   UNL     1      -3.361  13.083  23.450  0.00  0.00    +0.000 A 
ATOM     13  C   UNL     1      -2.808  14.357  23.309  0.00  0.00    +0.000 A 
ATOM     14  C   UNL     1      -1.485  14.513  22.891  0.00  0.00    +0.000 A 
ATOM     15  C   UNL     1      -0.709  13.389  22.606  0.00  0.00    +0.000 A 
ATOM     16  C   UNL     1      -1.245  12.103  22.749  0.00  0.00    +0.000 A 
ATOM     17  C   UNL     1      -2.574  11.962  23.178  0.00  0.00    +0.000 A 
BRANCH  12  19
ATOM     18  C   UNL     1      -5.648  13.229  22.820  0.00  0.00    +0.000 C 
ATOM     19  O   UNL     1      -4.672  13.058  23.842  0.00  0.00    +0.000 OA
ENDBRANCH  12  19
ENDBRANCH   1  16
BRANCH   6  20
ATOM     20  C   UNL     1      -1.139  10.995  19.207  0.00  0.00    +0.000 A 
ATOM     21  C   UNL     1      -1.969  12.095  19.437  0.00  0.00    +0.000 A 
ATOM     22  C   UNL     1      -3.241  12.117  18.875  0.00  0.00    +0.000 A 
ATOM     23  C   UNL     1      -3.661  11.044  18.100  0.00  0.00    +0.000 A 
ATOM     24  C   UNL     1      -2.789   9.986  17.921  0.00  0.00    +0.000 A 
ATOM     25  N   UNL     1      -1.549   9.933  18.459  0.00  0.00    +0.000 NA
ENDBRANCH   6  20
TORSDOF 3
ENDMDL
