MODEL 1
REMARK VINA RESULT:      -8.8      0.000      0.000
REMARK  Name = 
REMARK  7 active torsions:
REMARK  status: ('A' for Active; 'I' for Inactive)
REMARK    1  A    between atoms: C_2  and  C_28
REMARK    2  A    between atoms: N_3  and  C_4
REMARK    3  A    between atoms: C_8  and  O_9
REMARK    4  A    between atoms: O_9  and  C_10
REMARK    5  A    between atoms: C_10  and  C_11
REMARK    6  A    between atoms: C_14  and  C_15
REMARK    7  A    between atoms: C_18  and  C_19
REMARK                            x       y       z     vdW  Elec       q    Type
REMARK                         _______ _______ _______ _____ _____    ______ ____
ROOT
ATOM      1  O   UNL     1       1.401   6.174  20.741  0.00  0.00    +0.000 OA
ENDROOT
BRANCH   1   6
ATOM      2  C   UNL     1       4.058   3.841  19.619  0.00  0.00    +0.000 A 
ATOM      3  C   UNL     1       3.569   2.671  20.198  0.00  0.00    +0.000 A 
ATOM      4  C   UNL     1       2.394   2.694  20.951  0.00  0.00    +0.000 A 
ATOM      5  C   UNL     1       1.695   3.888  21.117  0.00  0.00    +0.000 A 
ATOM      6  C   UNL     1       2.181   5.065  20.551  0.00  0.00    +0.000 A 
ATOM      7  C   UNL     1       3.382   5.040  19.829  0.00  0.00    +0.000 A 
BRANCH   2  10
ATOM      8  O   UNL     1       4.217   4.052  16.709  0.00  0.00    +0.000 OA
ATOM      9  C   UNL     1       5.215   3.985  17.424  0.00  0.00    +0.000 C 
ATOM     10  N   UNL     1       5.209   3.884  18.804  0.00  0.00    +0.000 N 
ATOM     11  H   UNL     1       6.088   4.036  19.281  0.00  0.00    +0.000 HD
BRANCH   9  12
ATOM     12  C   UNL     1       6.627   4.107  16.842  0.00  0.00    +0.000 C 
ATOM     13  C   UNL     1       7.593   4.769  17.836  0.00  0.00    +0.000 C 
ATOM     14  C   UNL     1       7.402   6.285  17.919  0.00  0.00    +0.000 C 
ATOM     15  N   UNL     1       7.449   6.917  16.600  0.00  0.00    +0.000 NA
ATOM     16  C   UNL     1       6.428   6.361  15.715  0.00  0.00    +0.000 C 
ATOM     17  C   UNL     1       6.633   4.862  15.508  0.00  0.00    +0.000 C 
ATOM     18  H   UNL     1       8.372   6.769  16.193  0.00  0.00    +0.000 HD
ENDBRANCH   9  12
ENDBRANCH   2  10
ENDBRANCH   1   6
BRANCH   1  19
ATOM     19  C   UNL     1       1.940   7.387  20.223  0.00  0.00    +0.000 C 
BRANCH  19  20
ATOM     20  C   UNL     1       1.211   8.550  20.824  0.00  0.00    +0.000 A 
ATOM     21  C   UNL     1       0.798   9.607  20.013  0.00  0.00    +0.000 A 
ATOM     22  C   UNL     1       0.106  10.680  20.566  0.00  0.00    +0.000 A 
ATOM     23  C   UNL     1      -0.205  10.725  21.937  0.00  0.00    +0.000 A 
ATOM     24  C   UNL     1       0.229   9.657  22.739  0.00  0.00    +0.000 A 
ATOM     25  C   UNL     1       0.940   8.587  22.193  0.00  0.00    +0.000 A 
BRANCH  23  26
ATOM     26  C   UNL     1      -0.970  11.856  22.503  0.00  0.00    +0.000 A 
ATOM     27  C   UNL     1      -2.217  11.644  23.114  0.00  0.00    +0.000 A 
ATOM     28  C   UNL     1      -2.961  12.701  23.637  0.00  0.00    +0.000 A 
ATOM     29  C   UNL     1      -2.466  14.008  23.585  0.00  0.00    +0.000 A 
ATOM     30  C   UNL     1      -1.221  14.236  22.990  0.00  0.00    +0.000 A 
ATOM     31  C   UNL     1      -0.489  13.174  22.448  0.00  0.00    +0.000 A 
BRANCH  29  32
ATOM     32  C   UNL     1      -3.255  15.151  24.165  0.00  0.00    +0.000 C 
ATOM     33  F   UNL     1      -2.742  16.375  23.856  0.00  0.00    +0.000 F 
ATOM     34  F   UNL     1      -4.544  15.168  23.728  0.00  0.00    +0.000 F 
ATOM     35  F   UNL     1      -3.321  15.106  25.525  0.00  0.00    +0.000 F 
ENDBRANCH  29  32
ENDBRANCH  23  26
ENDBRANCH  19  20
ENDBRANCH   1  19
TORSDOF 7
ENDMDL
MODEL 2
REMARK VINA RESULT:      -8.8      6.957     11.878
REMARK  Name = 
REMARK  7 active torsions:
REMARK  status: ('A' for Active; 'I' for Inactive)
REMARK    1  A    between atoms: C_2  and  C_28
REMARK    2  A    between atoms: N_3  and  C_4
REMARK    3  A    between atoms: C_8  and  O_9
REMARK    4  A    between atoms: O_9  and  C_10
REMARK    5  A    between atoms: C_10  and  C_11
REMARK    6  A    between atoms: C_14  and  C_15
REMARK    7  A    between atoms: C_18  and  C_19
REMARK                            x       y       z     vdW  Elec       q    Type
REMARK                         _______ _______ _______ _____ _____    ______ ____
ROOT
ATOM      1  O   UNL     1       0.330  11.365  21.723  0.00  0.00    +0.000 OA
ENDROOT
BRANCH   1   6
ATOM      2  C   UNL     1      -2.585  13.484  20.844  0.00  0.00    +0.000 A 
ATOM      3  C   UNL     1      -2.106  14.706  21.313  0.00  0.00    +0.000 A 
ATOM      4  C   UNL     1      -0.851  14.787  21.917  0.00  0.00    +0.000 A 
ATOM      5  C   UNL     1      -0.062  13.645  22.043  0.00  0.00    +0.000 A 
ATOM      6  C   UNL     1      -0.536  12.416  21.587  0.00  0.00    +0.000 A 
ATOM      7  C   UNL     1      -1.813  12.337  21.017  0.00  0.00    +0.000 A 
BRANCH   2  10
ATOM      8  O   UNL     1      -5.083  12.378  21.879  0.00  0.00    +0.000 OA
ATOM      9  C   UNL     1      -4.972  12.800  20.730  0.00  0.00    +0.000 C 
ATOM     10  N   UNL     1      -3.820  13.335  20.179  0.00  0.00    +0.000 N 
ATOM     11  H   UNL     1      -3.915  13.823  19.298  0.00  0.00    +0.000 HD
BRANCH   9  12
ATOM     12  C   UNL     1      -6.172  12.866  19.781  0.00  0.00    +0.000 C 
ATOM     13  C   UNL     1      -7.399  12.153  20.369  0.00  0.00    +0.000 C 
ATOM     14  C   UNL     1      -7.295  10.629  20.273  0.00  0.00    +0.000 C 
ATOM     15  N   UNL     1      -7.000  10.185  18.910  0.00  0.00    +0.000 NA
ATOM     16  C   UNL     1      -5.754  10.775  18.424  0.00  0.00    +0.000 C 
ATOM     17  C   UNL     1      -5.839  12.299  18.397  0.00  0.00    +0.000 C 
ATOM     18  H   UNL     1      -7.769  10.456  18.297  0.00  0.00    +0.000 HD
ENDBRANCH   9  12
ENDBRANCH   2  10
ENDBRANCH   1   6
BRANCH   1  19
ATOM     19  C   UNL     1      -0.259  10.076  21.584  0.00  0.00    +0.000 C 
BRANCH  19  20
ATOM     20  C   UNL     1       0.595   9.234  20.685  0.00  0.00    +0.000 A 
ATOM     21  C   UNL     1       0.858   9.655  19.381  0.00  0.00    +0.000 A 
ATOM     22  C   UNL     1       1.665   8.884  18.551  0.00  0.00    +0.000 A 
ATOM     23  C   UNL     1       2.241   7.681  18.996  0.00  0.00    +0.000 A 
ATOM     24  C   UNL     1       1.955   7.269  20.309  0.00  0.00    +0.000 A 
ATOM     25  C   UNL     1       1.132   8.029  21.141  0.00  0.00    +0.000 A 
BRANCH  23  26
ATOM     26  C   UNL     1       3.123   6.891  18.112  0.00  0.00    +0.000 A 
ATOM     27  C   UNL     1       4.100   7.522  17.324  0.00  0.00    +0.000 A 
ATOM     28  C   UNL     1       4.929   6.795  16.470  0.00  0.00    +0.000 A 
ATOM     29  C   UNL     1       4.820   5.403  16.395  0.00  0.00    +0.000 A 
ATOM     30  C   UNL     1       3.861   4.757  17.182  0.00  0.00    +0.000 A 
ATOM     31  C   UNL     1       3.019   5.494  18.020  0.00  0.00    +0.000 A 
BRANCH  29  32
ATOM     32  C   UNL     1       5.724   4.610  15.490  0.00  0.00    +0.000 C 
ATOM     33  F   UNL     1       6.748   5.343  14.969  0.00  0.00    +0.000 F 
ATOM     34  F   UNL     1       6.307   3.558  16.128  0.00  0.00    +0.000 F 
ATOM     35  F   UNL     1       5.063   4.081  14.422  0.00  0.00    +0.000 F 
ENDBRANCH  29  32
ENDBRANCH  23  26
ENDBRANCH  19  20
ENDBRANCH   1  19
TORSDOF 7
ENDMDL
MODEL 3
REMARK VINA RESULT:      -8.8      3.717      5.489
REMARK  Name = 
REMARK  7 active torsions:
REMARK  status: ('A' for Active; 'I' for Inactive)
REMARK    1  A    between atoms: C_2  and  C_28
REMARK    2  A    between atoms: N_3  and  C_4
REMARK    3  A    between atoms: C_8  and  O_9
REMARK    4  A    between atoms: O_9  and  C_10
REMARK    5  A    between atoms: C_10  and  C_11
REMARK    6  A    between atoms: C_14  and  C_15
REMARK    7  A    between atoms: C_18  and  C_19
REMARK                            x       y       z     vdW  Elec       q    Type
REMARK                         _______ _______ _______ _____ _____    ______ ____
ROOT
ATOM      1  O   UNL     1       4.699   6.258  17.057  0.00  0.00    +0.000 OA
ENDROOT
BRANCH   1   6
ATOM      2  C   UNL     1       7.828   8.048  17.937  0.00  0.00    +0.000 A 
ATOM      3  C   UNL     1       8.397   7.081  18.764  0.00  0.00    +0.000 A 
ATOM      4  C   UNL     1       7.726   5.884  19.017  0.00  0.00    +0.000 A 
ATOM      5  C   UNL     1       6.484   5.643  18.431  0.00  0.00    +0.000 A 
ATOM      6  C   UNL     1       5.901   6.607  17.612  0.00  0.00    +0.000 A 
ATOM      7  C   UNL     1       6.564   7.822  17.395  0.00  0.00    +0.000 A 
BRANCH   2  10
ATOM      8  O   UNL     1       9.122   9.977  19.708  0.00  0.00    +0.000 OA
ATOM      9  C   UNL     1       9.065  10.131  18.490  0.00  0.00    +0.000 C 
ATOM     10  N   UNL     1       8.469   9.258  17.597  0.00  0.00    +0.000 N 
ATOM     11  H   UNL     1       8.663   9.399  16.614  0.00  0.00    +0.000 HD
BRANCH   9  12
ATOM     12  C   UNL     1       9.760  11.307  17.797  0.00  0.00    +0.000 C 
ATOM     13  C   UNL     1      11.203  11.483  18.292  0.00  0.00    +0.000 C 
ATOM     14  C   UNL     1      11.276  12.139  19.672  0.00  0.00    +0.000 C 
ATOM     15  N   UNL     1      10.519  13.390  19.724  0.00  0.00    +0.000 NA
ATOM     16  C   UNL     1       9.117  13.171  19.380  0.00  0.00    +0.000 C 
ATOM     17  C   UNL     1       8.976  12.614  17.965  0.00  0.00    +0.000 C 
ATOM     18  H   UNL     1      10.931  14.057  19.072  0.00  0.00    +0.000 HD
ENDBRANCH   9  12
ENDBRANCH   2  10
ENDBRANCH   1   6
BRANCH   1  19
ATOM     19  C   UNL     1       3.811   5.565  17.927  0.00  0.00    +0.000 C 
BRANCH  19  20
ATOM     20  C   UNL     1       2.935   6.556  18.634  0.00  0.00    +0.000 A 
ATOM     21  C   UNL     1       2.451   6.270  19.910  0.00  0.00    +0.000 A 
ATOM     22  C   UNL     1       1.653   7.197  20.574  0.00  0.00    +0.000 A 
ATOM     23  C   UNL     1       1.324   8.435  19.994  0.00  0.00    +0.000 A 
ATOM     24  C   UNL     1       1.812   8.698  18.703  0.00  0.00    +0.000 A 
ATOM     25  C   UNL     1       2.599   7.766  18.024  0.00  0.00    +0.000 A 
BRANCH  23  26
ATOM     26  C   UNL     1       0.503   9.420  20.727  0.00  0.00    +0.000 A 
ATOM     27  C   UNL     1       0.189   9.226  22.082  0.00  0.00    +0.000 A 
ATOM     28  C   UNL     1      -0.600  10.135  22.786  0.00  0.00    +0.000 A 
ATOM     29  C   UNL     1      -1.082  11.287  22.156  0.00  0.00    +0.000 A 
ATOM     30  C   UNL     1      -0.769  11.503  20.810  0.00  0.00    +0.000 A 
ATOM     31  C   UNL     1       0.004  10.576  20.105  0.00  0.00    +0.000 A 
BRANCH  29  32
ATOM     32  C   UNL     1      -1.918  12.283  22.914  0.00  0.00    +0.000 C 
ATOM     33  F   UNL     1      -2.695  13.062  22.110  0.00  0.00    +0.000 F 
ATOM     34  F   UNL     1      -2.771  11.687  23.790  0.00  0.00    +0.000 F 
ATOM     35  F   UNL     1      -1.164  13.146  23.653  0.00  0.00    +0.000 F 
ENDBRANCH  29  32
ENDBRANCH  23  26
ENDBRANCH  19  20
ENDBRANCH   1  19
TORSDOF 7
ENDMDL
MODEL 4
REMARK VINA RESULT:      -8.7      0.412      1.431
REMARK  Name = 
REMARK  7 active torsions:
REMARK  status: ('A' for Active; 'I' for Inactive)
REMARK    1  A    between atoms: C_2  and  C_28
REMARK    2  A    between atoms: N_3  and  C_4
REMARK    3  A    between atoms: C_8  and  O_9
REMARK    4  A    between atoms: O_9  and  C_10
REMARK    5  A    between atoms: C_10  and  C_11
REMARK    6  A    between atoms: C_14  and  C_15
REMARK    7  A    between atoms: C_18  and  C_19
REMARK                            x       y       z     vdW  Elec       q    Type
REMARK                         _______ _______ _______ _____ _____    ______ ____
ROOT
ATOM      1  O   UNL     1       1.532   6.233  20.884  0.00  0.00    +0.000 OA
ENDROOT
BRANCH   1   6
ATOM      2  C   UNL     1       3.957   3.845  19.406  0.00  0.00    +0.000 A 
ATOM      3  C   UNL     1       3.329   2.655  19.770  0.00  0.00    +0.000 A 
ATOM      4  C   UNL     1       2.140   2.680  20.502  0.00  0.00    +0.000 A 
ATOM      5  C   UNL     1       1.568   3.898  20.863  0.00  0.00    +0.000 A 
ATOM      6  C   UNL     1       2.194   5.093  20.514  0.00  0.00    +0.000 A 
ATOM      7  C   UNL     1       3.407   5.059  19.813  0.00  0.00    +0.000 A 
BRANCH   2  10
ATOM      8  O   UNL     1       4.197   4.003  16.499  0.00  0.00    +0.000 OA
ATOM      9  C   UNL     1       5.175   3.973  17.243  0.00  0.00    +0.000 C 
ATOM     10  N   UNL     1       5.130   3.899  18.625  0.00  0.00    +0.000 N 
ATOM     11  H   UNL     1       5.991   4.081  19.124  0.00  0.00    +0.000 HD
BRANCH   9  12
ATOM     12  C   UNL     1       6.600   4.115  16.701  0.00  0.00    +0.000 C 
ATOM     13  C   UNL     1       7.563   4.647  17.773  0.00  0.00    +0.000 C 
ATOM     14  C   UNL     1       7.408   6.150  18.009  0.00  0.00    +0.000 C 
ATOM     15  N   UNL     1       7.496   6.912  16.763  0.00  0.00    +0.000 NA
ATOM     16  C   UNL     1       6.479   6.477  15.809  0.00  0.00    +0.000 C 
ATOM     17  C   UNL     1       6.650   5.003  15.452  0.00  0.00    +0.000 C 
ATOM     18  H   UNL     1       8.423   6.783  16.357  0.00  0.00    +0.000 HD
ENDBRANCH   9  12
ENDBRANCH   2  10
ENDBRANCH   1   6
BRANCH   1  19
ATOM     19  C   UNL     1       1.921   7.411  20.183  0.00  0.00    +0.000 C 
BRANCH  19  20
ATOM     20  C   UNL     1       1.168   8.585  20.732  0.00  0.00    +0.000 A 
ATOM     21  C   UNL     1       0.844   8.632  22.088  0.00  0.00    +0.000 A 
ATOM     22  C   UNL     1       0.160   9.730  22.601  0.00  0.00    +0.000 A 
ATOM     23  C   UNL     1      -0.208  10.815  21.785  0.00  0.00    +0.000 A 
ATOM     24  C   UNL     1       0.118  10.743  20.420  0.00  0.00    +0.000 A 
ATOM     25  C   UNL     1       0.787   9.636  19.895  0.00  0.00    +0.000 A 
BRANCH  23  26
ATOM     26  C   UNL     1      -0.904  11.987  22.354  0.00  0.00    +0.000 A 
ATOM     27  C   UNL     1      -0.376  13.280  22.199  0.00  0.00    +0.000 A 
ATOM     28  C   UNL     1      -1.009  14.396  22.743  0.00  0.00    +0.000 A 
ATOM     29  C   UNL     1      -2.211  14.256  23.445  0.00  0.00    +0.000 A 
ATOM     30  C   UNL     1      -2.757  12.978  23.599  0.00  0.00    +0.000 A 
ATOM     31  C   UNL     1      -2.106  11.859  23.068  0.00  0.00    +0.000 A 
BRANCH  29  32
ATOM     32  C   UNL     1      -2.910  15.458  24.019  0.00  0.00    +0.000 C 
ATOM     33  F   UNL     1      -3.806  15.148  24.998  0.00  0.00    +0.000 F 
ATOM     34  F   UNL     1      -2.043  16.347  24.577  0.00  0.00    +0.000 F 
ATOM     35  F   UNL     1      -3.609  16.156  23.080  0.00  0.00    +0.000 F 
ENDBRANCH  29  32
ENDBRANCH  23  26
ENDBRANCH  19  20
ENDBRANCH   1  19
TORSDOF 7
ENDMDL
MODEL 5
REMARK VINA RESULT:      -8.5      6.979     11.608
REMARK  Name = 
REMARK  7 active torsions:
REMARK  status: ('A' for Active; 'I' for Inactive)
REMARK    1  A    between atoms: C_2  and  C_28
REMARK    2  A    between atoms: N_3  and  C_4
REMARK    3  A    between atoms: C_8  and  O_9
REMARK    4  A    between atoms: O_9  and  C_10
REMARK    5  A    between atoms: C_10  and  C_11
REMARK    6  A    between atoms: C_14  and  C_15
REMARK    7  A    between atoms: C_18  and  C_19
REMARK                            x       y       z     vdW  Elec       q    Type
REMARK                         _______ _______ _______ _____ _____    ______ ____
ROOT
ATOM      1  O   UNL     1       0.427  10.716  21.834  0.00  0.00    +0.000 OA
ENDROOT
BRANCH   1   6
ATOM      2  C   UNL     1      -1.766  12.938  19.830  0.00  0.00    +0.000 A 
ATOM      3  C   UNL     1      -0.792  13.801  19.330  0.00  0.00    +0.000 A 
ATOM      4  C   UNL     1       0.548  13.632  19.683  0.00  0.00    +0.000 A 
ATOM      5  C   UNL     1       0.921  12.590  20.529  0.00  0.00    +0.000 A 
ATOM      6  C   UNL     1      -0.047  11.729  21.043  0.00  0.00    +0.000 A 
ATOM      7  C   UNL     1      -1.394  11.928  20.714  0.00  0.00    +0.000 A 
BRANCH   2  10
ATOM      8  O   UNL     1      -3.360  11.021  18.307  0.00  0.00    +0.000 OA
ATOM      9  C   UNL     1      -3.829  12.068  18.750  0.00  0.00    +0.000 C 
ATOM     10  N   UNL     1      -3.130  13.016  19.477  0.00  0.00    +0.000 N 
ATOM     11  H   UNL     1      -3.673  13.728  19.947  0.00  0.00    +0.000 HD
BRANCH   9  12
ATOM     12  C   UNL     1      -5.318  12.399  18.617  0.00  0.00    +0.000 C 
ATOM     13  C   UNL     1      -5.875  13.025  19.904  0.00  0.00    +0.000 C 
ATOM     14  C   UNL     1      -6.113  11.991  21.006  0.00  0.00    +0.000 C 
ATOM     15  N   UNL     1      -6.932  10.872  20.538  0.00  0.00    +0.000 NA
ATOM     16  C   UNL     1      -6.310  10.208  19.395  0.00  0.00    +0.000 C 
ATOM     17  C   UNL     1      -6.144  11.170  18.221  0.00  0.00    +0.000 C 
ATOM     18  H   UNL     1      -7.853  11.220  20.272  0.00  0.00    +0.000 HD
ENDBRANCH   9  12
ENDBRANCH   2  10
ENDBRANCH   1   6
BRANCH   1  19
ATOM     19  C   UNL     1      -0.108   9.427  21.549  0.00  0.00    +0.000 C 
BRANCH  19  20
ATOM     20  C   UNL     1       0.815   8.702  20.616  0.00  0.00    +0.000 A 
ATOM     21  C   UNL     1       1.373   7.482  20.998  0.00  0.00    +0.000 A 
ATOM     22  C   UNL     1       2.215   6.800  20.126  0.00  0.00    +0.000 A 
ATOM     23  C   UNL     1       2.516   7.305  18.848  0.00  0.00    +0.000 A 
ATOM     24  C   UNL     1       1.953   8.540  18.487  0.00  0.00    +0.000 A 
ATOM     25  C   UNL     1       1.122   9.238  19.364  0.00  0.00    +0.000 A 
BRANCH  23  26
ATOM     26  C   UNL     1       3.386   6.550  17.923  0.00  0.00    +0.000 A 
ATOM     27  C   UNL     1       3.331   5.148  17.869  0.00  0.00    +0.000 A 
ATOM     28  C   UNL     1       4.157   4.418  17.014  0.00  0.00    +0.000 A 
ATOM     29  C   UNL     1       5.053   5.075  16.165  0.00  0.00    +0.000 A 
ATOM     30  C   UNL     1       5.113   6.472  16.197  0.00  0.00    +0.000 A 
ATOM     31  C   UNL     1       4.297   7.197  17.071  0.00  0.00    +0.000 A 
BRANCH  29  32
ATOM     32  C   UNL     1       5.934   4.295  15.227  0.00  0.00    +0.000 C 
ATOM     33  F   UNL     1       7.235   4.699  15.244  0.00  0.00    +0.000 F 
ATOM     34  F   UNL     1       5.953   2.965  15.516  0.00  0.00    +0.000 F 
ATOM     35  F   UNL     1       5.531   4.392  13.928  0.00  0.00    +0.000 F 
ENDBRANCH  29  32
ENDBRANCH  23  26
ENDBRANCH  19  20
ENDBRANCH   1  19
TORSDOF 7
ENDMDL
MODEL 6
REMARK VINA RESULT:      -8.4      3.928      5.838
REMARK  Name = 
REMARK  7 active torsions:
REMARK  status: ('A' for Active; 'I' for Inactive)
REMARK    1  A    between atoms: C_2  and  C_28
REMARK    2  A    between atoms: N_3  and  C_4
REMARK    3  A    between atoms: C_8  and  O_9
REMARK    4  A    between atoms: O_9  and  C_10
REMARK    5  A    between atoms: C_10  and  C_11
REMARK    6  A    between atoms: C_14  and  C_15
REMARK    7  A    between atoms: C_18  and  C_19
REMARK                            x       y       z     vdW  Elec       q    Type
REMARK                         _______ _______ _______ _____ _____    ______ ____
ROOT
ATOM      1  O   UNL     1       5.259   6.574  16.459  0.00  0.00    +0.000 OA
ENDROOT
BRANCH   1   6
ATOM      2  C   UNL     1       8.069   8.426  18.020  0.00  0.00    +0.000 A 
ATOM      3  C   UNL     1       8.509   7.438  18.900  0.00  0.00    +0.000 A 
ATOM      4  C   UNL     1       7.856   6.206  18.961  0.00  0.00    +0.000 A 
ATOM      5  C   UNL     1       6.766   5.952  18.131  0.00  0.00    +0.000 A 
ATOM      6  C   UNL     1       6.311   6.936  17.256  0.00  0.00    +0.000 A 
ATOM      7  C   UNL     1       6.948   8.184  17.229  0.00  0.00    +0.000 A 
BRANCH   2  10
ATOM      8  O   UNL     1       9.228  10.136  20.085  0.00  0.00    +0.000 OA
ATOM      9  C   UNL     1       9.239  10.437  18.894  0.00  0.00    +0.000 C 
ATOM     10  N   UNL     1       8.709   9.673  17.867  0.00  0.00    +0.000 N 
ATOM     11  H   UNL     1       8.957   9.936  16.923  0.00  0.00    +0.000 HD
BRANCH   9  12
ATOM     12  C   UNL     1       9.953  11.695  18.391  0.00  0.00    +0.000 C 
ATOM     13  C   UNL     1      10.427  12.579  19.554  0.00  0.00    +0.000 C 
ATOM     14  C   UNL     1       9.286  13.374  20.191  0.00  0.00    +0.000 C 
ATOM     15  N   UNL     1       8.525  14.132  19.198  0.00  0.00    +0.000 NA
ATOM     16  C   UNL     1       7.971  13.249  18.175  0.00  0.00    +0.000 C 
ATOM     17  C   UNL     1       9.076  12.505  17.430  0.00  0.00    +0.000 C 
ATOM     18  H   UNL     1       9.140  14.819  18.760  0.00  0.00    +0.000 HD
ENDBRANCH   9  12
ENDBRANCH   2  10
ENDBRANCH   1   6
BRANCH   1  19
ATOM     19  C   UNL     1       4.260   5.786  17.099  0.00  0.00    +0.000 C 
BRANCH  19  20
ATOM     20  C   UNL     1       3.411   6.668  17.963  0.00  0.00    +0.000 A 
ATOM     21  C   UNL     1       3.012   7.922  17.500  0.00  0.00    +0.000 A 
ATOM     22  C   UNL     1       2.209   8.735  18.295  0.00  0.00    +0.000 A 
ATOM     23  C   UNL     1       1.772   8.319  19.565  0.00  0.00    +0.000 A 
ATOM     24  C   UNL     1       2.194   7.058  20.019  0.00  0.00    +0.000 A 
ATOM     25  C   UNL     1       3.014   6.246  19.234  0.00  0.00    +0.000 A 
BRANCH  23  26
ATOM     26  C   UNL     1       0.893   9.181  20.382  0.00  0.00    +0.000 A 
ATOM     27  C   UNL     1       0.480  10.438  19.909  0.00  0.00    +0.000 A 
ATOM     28  C   UNL     1      -0.335  11.273  20.673  0.00  0.00    +0.000 A 
ATOM     29  C   UNL     1      -0.783  10.863  21.932  0.00  0.00    +0.000 A 
ATOM     30  C   UNL     1      -0.392   9.610  22.414  0.00  0.00    +0.000 A 
ATOM     31  C   UNL     1       0.443   8.786  21.652  0.00  0.00    +0.000 A 
BRANCH  29  32
ATOM     32  C   UNL     1      -1.679  11.750  22.755  0.00  0.00    +0.000 C 
ATOM     33  F   UNL     1      -1.017  12.778  23.357  0.00  0.00    +0.000 F 
ATOM     34  F   UNL     1      -2.664  12.326  22.013  0.00  0.00    +0.000 F 
ATOM     35  F   UNL     1      -2.309  11.074  23.757  0.00  0.00    +0.000 F 
ENDBRANCH  29  32
ENDBRANCH  23  26
ENDBRANCH  19  20
ENDBRANCH   1  19
TORSDOF 7
ENDMDL
MODEL 7
REMARK VINA RESULT:      -8.4      1.384      1.851
REMARK  Name = 
REMARK  7 active torsions:
REMARK  status: ('A' for Active; 'I' for Inactive)
REMARK    1  A    between atoms: C_2  and  C_28
REMARK    2  A    between atoms: N_3  and  C_4
REMARK    3  A    between atoms: C_8  and  O_9
REMARK    4  A    between atoms: O_9  and  C_10
REMARK    5  A    between atoms: C_10  and  C_11
REMARK    6  A    between atoms: C_14  and  C_15
REMARK    7  A    between atoms: C_18  and  C_19
REMARK                            x       y       z     vdW  Elec       q    Type
REMARK                         _______ _______ _______ _____ _____    ______ ____
ROOT
ATOM      1  O   UNL     1       1.068   6.733  21.269  0.00  0.00    +0.000 OA
ENDROOT
BRANCH   1   6
ATOM      2  C   UNL     1       2.587   4.822  18.475  0.00  0.00    +0.000 A 
ATOM      3  C   UNL     1       1.939   3.605  18.676  0.00  0.00    +0.000 A 
ATOM      4  C   UNL     1       1.040   3.450  19.732  0.00  0.00    +0.000 A 
ATOM      5  C   UNL     1       0.775   4.519  20.586  0.00  0.00    +0.000 A 
ATOM      6  C   UNL     1       1.426   5.737  20.401  0.00  0.00    +0.000 A 
ATOM      7  C   UNL     1       2.356   5.872  19.361  0.00  0.00    +0.000 A 
BRANCH   2  10
ATOM      8  O   UNL     1       4.520   2.999  17.261  0.00  0.00    +0.000 OA
ATOM      9  C   UNL     1       4.364   4.155  16.871  0.00  0.00    +0.000 C 
ATOM     10  N   UNL     1       3.468   5.067  17.401  0.00  0.00    +0.000 N 
ATOM     11  H   UNL     1       3.299   5.910  16.868  0.00  0.00    +0.000 HD
BRANCH   9  12
ATOM     12  C   UNL     1       5.110   4.696  15.648  0.00  0.00    +0.000 C 
ATOM     13  C   UNL     1       6.511   4.078  15.521  0.00  0.00    +0.000 C 
ATOM     14  C   UNL     1       7.512   4.681  16.508  0.00  0.00    +0.000 C 
ATOM     15  N   UNL     1       7.545   6.142  16.429  0.00  0.00    +0.000 NA
ATOM     16  C   UNL     1       6.224   6.712  16.689  0.00  0.00    +0.000 C 
ATOM     17  C   UNL     1       5.203   6.226  15.664  0.00  0.00    +0.000 C 
ATOM     18  H   UNL     1       7.860   6.420  15.500  0.00  0.00    +0.000 HD
ENDBRANCH   9  12
ENDBRANCH   2  10
ENDBRANCH   1   6
BRANCH   1  19
ATOM     19  C   UNL     1       1.645   8.007  20.997  0.00  0.00    +0.000 C 
BRANCH  19  20
ATOM     20  C   UNL     1       0.669   9.083  21.367  0.00  0.00    +0.000 A 
ATOM     21  C   UNL     1       0.226   9.198  22.685  0.00  0.00    +0.000 A 
ATOM     22  C   UNL     1      -0.666  10.207  23.033  0.00  0.00    +0.000 A 
ATOM     23  C   UNL     1      -1.133  11.135  22.085  0.00  0.00    +0.000 A 
ATOM     24  C   UNL     1      -0.685  10.995  20.761  0.00  0.00    +0.000 A 
ATOM     25  C   UNL     1       0.196   9.974  20.402  0.00  0.00    +0.000 A 
BRANCH  23  26
ATOM     26  C   UNL     1      -2.055  12.220  22.479  0.00  0.00    +0.000 A 
ATOM     27  C   UNL     1      -2.877  12.088  23.611  0.00  0.00    +0.000 A 
ATOM     28  C   UNL     1      -3.766  13.094  23.988  0.00  0.00    +0.000 A 
ATOM     29  C   UNL     1      -3.844  14.280  23.253  0.00  0.00    +0.000 A 
ATOM     30  C   UNL     1      -3.025  14.434  22.130  0.00  0.00    +0.000 A 
ATOM     31  C   UNL     1      -2.150  13.413  21.744  0.00  0.00    +0.000 A 
BRANCH  29  32
ATOM     32  C   UNL     1      -4.787  15.379  23.664  0.00  0.00    +0.000 C 
ATOM     33  F   UNL     1      -4.553  15.851  24.921  0.00  0.00    +0.000 F 
ATOM     34  F   UNL     1      -4.718  16.460  22.841  0.00  0.00    +0.000 F 
ATOM     35  F   UNL     1      -6.091  14.981  23.652  0.00  0.00    +0.000 F 
ENDBRANCH  29  32
ENDBRANCH  23  26
ENDBRANCH  19  20
ENDBRANCH   1  19
TORSDOF 7
ENDMDL
MODEL 8
REMARK VINA RESULT:      -8.4      7.078     12.497
REMARK  Name = 
REMARK  7 active torsions:
REMARK  status: ('A' for Active; 'I' for Inactive)
REMARK    1  A    between atoms: C_2  and  C_28
REMARK    2  A    between atoms: N_3  and  C_4
REMARK    3  A    between atoms: C_8  and  O_9
REMARK    4  A    between atoms: O_9  and  C_10
REMARK    5  A    between atoms: C_10  and  C_11
REMARK    6  A    between atoms: C_14  and  C_15
REMARK    7  A    between atoms: C_18  and  C_19
REMARK                            x       y       z     vdW  Elec       q    Type
REMARK                         _______ _______ _______ _____ _____    ______ ____
ROOT
ATOM      1  O   UNL     1       0.673  10.443  21.846  0.00  0.00    +0.000 OA
ENDROOT
BRANCH   1   6
ATOM      2  C   UNL     1      -2.085  12.923  21.948  0.00  0.00    +0.000 A 
ATOM      3  C   UNL     1      -1.951  13.440  20.660  0.00  0.00    +0.000 A 
ATOM      4  C   UNL     1      -0.949  12.968  19.811  0.00  0.00    +0.000 A 
ATOM      5  C   UNL     1      -0.083  11.965  20.243  0.00  0.00    +0.000 A 
ATOM      6  C   UNL     1      -0.201  11.450  21.532  0.00  0.00    +0.000 A 
ATOM      7  C   UNL     1      -1.185  11.957  22.391  0.00  0.00    +0.000 A 
BRANCH   2  10
ATOM      8  O   UNL     1      -4.932  12.275  21.853  0.00  0.00    +0.000 OA
ATOM      9  C   UNL     1      -4.441  12.971  22.739  0.00  0.00    +0.000 C 
ATOM     10  N   UNL     1      -3.103  13.315  22.842  0.00  0.00    +0.000 N 
ATOM     11  H   UNL     1      -2.798  13.722  23.716  0.00  0.00    +0.000 HD
BRANCH   9  12
ATOM     12  C   UNL     1      -5.276  13.474  23.920  0.00  0.00    +0.000 C 
ATOM     13  C   UNL     1      -6.615  12.728  24.023  0.00  0.00    +0.000 C 
ATOM     14  C   UNL     1      -7.634  13.204  22.986  0.00  0.00    +0.000 C 
ATOM     15  N   UNL     1      -7.809  14.656  23.017  0.00  0.00    +0.000 NA
ATOM     16  C   UNL     1      -6.540  15.342  22.781  0.00  0.00    +0.000 C 
ATOM     17  C   UNL     1      -5.512  14.987  23.852  0.00  0.00    +0.000 C 
ATOM     18  H   UNL     1      -8.181  14.929  23.926  0.00  0.00    +0.000 HD
ENDBRANCH   9  12
ENDBRANCH   2  10
ENDBRANCH   1   6
BRANCH   1  19
ATOM     19  C   UNL     1       0.157   9.125  21.688  0.00  0.00    +0.000 C 
BRANCH  19  20
ATOM     20  C   UNL     1       1.000   8.379  20.698  0.00  0.00    +0.000 A 
ATOM     21  C   UNL     1       1.361   8.984  19.495  0.00  0.00    +0.000 A 
ATOM     22  C   UNL     1       2.158   8.299  18.583  0.00  0.00    +0.000 A 
ATOM     23  C   UNL     1       2.626   6.999  18.846  0.00  0.00    +0.000 A 
ATOM     24  C   UNL     1       2.241   6.402  20.059  0.00  0.00    +0.000 A 
ATOM     25  C   UNL     1       1.428   7.077  20.970  0.00  0.00    +0.000 A 
BRANCH  23  26
ATOM     26  C   UNL     1       3.498   6.299  17.881  0.00  0.00    +0.000 A 
ATOM     27  C   UNL     1       4.349   7.020  17.028  0.00  0.00    +0.000 A 
ATOM     28  C   UNL     1       5.166   6.378  16.098  0.00  0.00    +0.000 A 
ATOM     29  C   UNL     1       5.174   4.982  16.010  0.00  0.00    +0.000 A 
ATOM     30  C   UNL     1       4.342   4.247  16.860  0.00  0.00    +0.000 A 
ATOM     31  C   UNL     1       3.509   4.898  17.776  0.00  0.00    +0.000 A 
BRANCH  29  32
ATOM     32  C   UNL     1       6.067   4.281  15.022  0.00  0.00    +0.000 C 
ATOM     33  F   UNL     1       5.600   4.323  13.743  0.00  0.00    +0.000 F 
ATOM     34  F   UNL     1       7.317   4.817  14.980  0.00  0.00    +0.000 F 
ATOM     35  F   UNL     1       6.235   2.960  15.315  0.00  0.00    +0.000 F 
ENDBRANCH  29  32
ENDBRANCH  23  26
ENDBRANCH  19  20
ENDBRANCH   1  19
TORSDOF 7
ENDMDL
MODEL 9
REMARK VINA RESULT:      -8.3      6.926     11.941
REMARK  Name = 
REMARK  7 active torsions:
REMARK  status: ('A' for Active; 'I' for Inactive)
REMARK    1  A    between atoms: C_2  and  C_28
REMARK    2  A    between atoms: N_3  and  C_4
REMARK    3  A    between atoms: C_8  and  O_9
REMARK    4  A    between atoms: O_9  and  C_10
REMARK    5  A    between atoms: C_10  and  C_11
REMARK    6  A    between atoms: C_14  and  C_15
REMARK    7  A    between atoms: C_18  and  C_19
REMARK                            x       y       z     vdW  Elec       q    Type
REMARK                         _______ _______ _______ _____ _____    ______ ____
ROOT
ATOM      1  O   UNL     1       0.010  12.013  20.824  0.00  0.00    +0.000 OA
ENDROOT
BRANCH   1   6
ATOM      2  C   UNL     1      -3.279  13.711  20.575  0.00  0.00    +0.000 A 
ATOM      3  C   UNL     1      -2.890  14.985  20.987  0.00  0.00    +0.000 A 
ATOM      4  C   UNL     1      -1.566  15.236  21.349  0.00  0.00    +0.000 A 
ATOM      5  C   UNL     1      -0.620  14.214  21.287  0.00  0.00    +0.000 A 
ATOM      6  C   UNL     1      -1.000  12.935  20.887  0.00  0.00    +0.000 A 
ATOM      7  C   UNL     1      -2.340  12.682  20.562  0.00  0.00    +0.000 A 
BRANCH   2  10
ATOM      8  O   UNL     1      -5.376  12.296  22.036  0.00  0.00    +0.000 OA
ATOM      9  C   UNL     1      -5.536  12.719  20.893  0.00  0.00    +0.000 C 
ATOM     10  N   UNL     1      -4.586  13.396  20.147  0.00  0.00    +0.000 N 
ATOM     11  H   UNL     1      -4.905  13.860  19.306  0.00  0.00    +0.000 HD
BRANCH   9  12
ATOM     12  C   UNL     1      -6.889  12.620  20.183  0.00  0.00    +0.000 C 
ATOM     13  C   UNL     1      -7.772  11.524  20.798  0.00  0.00    +0.000 C 
ATOM     14  C   UNL     1      -7.345  10.118  20.372  0.00  0.00    +0.000 C 
ATOM     15  N   UNL     1      -7.246   9.993  18.918  0.00  0.00    +0.000 NA
ATOM     16  C   UNL     1      -6.296  10.959  18.372  0.00  0.00    +0.000 C 
ATOM     17  C   UNL     1      -6.729  12.391  18.675  0.00  0.00    +0.000 C 
ATOM     18  H   UNL     1      -8.166  10.147  18.506  0.00  0.00    +0.000 HD
ENDBRANCH   9  12
ENDBRANCH   2  10
ENDBRANCH   1   6
BRANCH   1  19
ATOM     19  C   UNL     1       0.550  11.797  19.524  0.00  0.00    +0.000 C 
BRANCH  19  20
ATOM     20  C   UNL     1       1.041  10.384  19.419  0.00  0.00    +0.000 A 
ATOM     21  C   UNL     1       1.021   9.556  20.541  0.00  0.00    +0.000 A 
ATOM     22  C   UNL     1       1.461   8.240  20.442  0.00  0.00    +0.000 A 
ATOM     23  C   UNL     1       1.920   7.708  19.224  0.00  0.00    +0.000 A 
ATOM     24  C   UNL     1       1.943   8.562  18.108  0.00  0.00    +0.000 A 
ATOM     25  C   UNL     1       1.520   9.888  18.205  0.00  0.00    +0.000 A 
BRANCH  23  26
ATOM     26  C   UNL     1       2.352   6.298  19.128  0.00  0.00    +0.000 A 
ATOM     27  C   UNL     1       3.143   5.862  18.053  0.00  0.00    +0.000 A 
ATOM     28  C   UNL     1       3.546   4.532  17.936  0.00  0.00    +0.000 A 
ATOM     29  C   UNL     1       3.186   3.596  18.911  0.00  0.00    +0.000 A 
ATOM     30  C   UNL     1       2.408   4.016  19.995  0.00  0.00    +0.000 A 
ATOM     31  C   UNL     1       1.990   5.347  20.095  0.00  0.00    +0.000 A 
BRANCH  29  32
ATOM     32  C   UNL     1       3.632   2.163  18.802  0.00  0.00    +0.000 C 
ATOM     33  F   UNL     1       2.657   1.266  19.120  0.00  0.00    +0.000 F 
ATOM     34  F   UNL     1       4.039   1.839  17.544  0.00  0.00    +0.000 F 
ATOM     35  F   UNL     1       4.683   1.878  19.622  0.00  0.00    +0.000 F 
ENDBRANCH  29  32
ENDBRANCH  23  26
ENDBRANCH  19  20
ENDBRANCH   1  19
TORSDOF 7
ENDMDL
