MODEL 1
REMARK VINA RESULT:      -8.0      0.000      0.000
REMARK  Name = 
REMARK  7 active torsions:
REMARK  status: ('A' for Active; 'I' for Inactive)
REMARK    1  A    between atoms: C_1  and  O_2
REMARK    2  A    between atoms: O_2  and  C_3
REMARK    3  A    between atoms: C_5  and  O_6
REMARK    4  A    between atoms: O_6  and  C_7
REMARK    5  A    between atoms: C_9  and  C_10
REMARK    6  A    between atoms: C_10  and  C_12
REMARK    7  A    between atoms: C_13  and  C_14
REMARK                            x       y       z     vdW  Elec       q    Type
REMARK                         _______ _______ _______ _____ _____    ______ ____
ROOT
ATOM      1  C   UNL     1       1.811   9.313  17.926  0.00  0.00    +0.000 C 
ATOM      2  O   UNL     1       2.490  10.030  17.203  0.00  0.00    +0.000 OA
ENDROOT
BRANCH   1   7
ATOM      3  C   UNL     1      -1.423  10.986  19.085  0.00  0.00    +0.000 A 
ATOM      4  C   UNL     1      -1.181  11.076  20.455  0.00  0.00    +0.000 A 
ATOM      5  C   UNL     1       0.015  10.595  21.004  0.00  0.00    +0.000 A 
ATOM      6  C   UNL     1       0.959   9.999  20.168  0.00  0.00    +0.000 A 
ATOM      7  C   UNL     1       0.733   9.907  18.785  0.00  0.00    +0.000 A 
ATOM      8  C   UNL     1      -0.458  10.414  18.257  0.00  0.00    +0.000 A 
BRANCH   3  10
ATOM      9  C   UNL     1      -3.417  10.662  17.827  0.00  0.00    +0.000 C 
ATOM     10  O   UNL     1      -2.620  11.503  18.657  0.00  0.00    +0.000 OA
ENDBRANCH   3  10
BRANCH   5  11
ATOM     11  O   UNL     1       0.136  10.785  22.354  0.00  0.00    +0.000 OA
ATOM     12  C   UNL     1      -1.035  10.603  23.140  0.00  0.00    +0.000 C 
ENDBRANCH   5  11
ENDBRANCH   1   7
BRANCH   1  13
ATOM     13  C   UNL     1       2.015   7.837  17.944  0.00  0.00    +0.000 C 
ATOM     14  C   UNL     1       3.195   7.302  18.303  0.00  0.00    +0.000 C 
BRANCH  14  15
ATOM     15  C   UNL     1       3.388   5.852  18.128  0.00  0.00    +0.000 A 
ATOM     16  C   UNL     1       4.223   5.459  17.067  0.00  0.00    +0.000 A 
ATOM     17  C   UNL     1       4.337   4.119  16.719  0.00  0.00    +0.000 A 
ATOM     18  C   UNL     1       3.577   3.163  17.387  0.00  0.00    +0.000 A 
ATOM     19  C   UNL     1       2.714   3.530  18.430  0.00  0.00    +0.000 A 
ATOM     20  C   UNL     1       1.888   2.569  19.033  0.00  0.00    +0.000 A 
ATOM     21  C   UNL     1       1.042   2.912  20.087  0.00  0.00    +0.000 A 
ATOM     22  C   UNL     1       1.052   4.208  20.586  0.00  0.00    +0.000 A 
ATOM     23  C   UNL     1       1.847   5.183  19.979  0.00  0.00    +0.000 A 
ATOM     24  C   UNL     1       2.657   4.880  18.859  0.00  0.00    +0.000 A 
ENDBRANCH  14  15
ENDBRANCH   1  13
TORSDOF 5
ENDMDL
MODEL 2
REMARK VINA RESULT:      -7.9      5.312      9.256
REMARK  Name = 
REMARK  7 active torsions:
REMARK  status: ('A' for Active; 'I' for Inactive)
REMARK    1  A    between atoms: C_1  and  O_2
REMARK    2  A    between atoms: O_2  and  C_3
REMARK    3  A    between atoms: C_5  and  O_6
REMARK    4  A    between atoms: O_6  and  C_7
REMARK    5  A    between atoms: C_9  and  C_10
REMARK    6  A    between atoms: C_10  and  C_12
REMARK    7  A    between atoms: C_13  and  C_14
REMARK                            x       y       z     vdW  Elec       q    Type
REMARK                         _______ _______ _______ _____ _____    ______ ____
ROOT
ATOM      1  C   UNL     1       6.451   4.453  14.015  0.00  0.00    +0.000 C 
ATOM      2  O   UNL     1       7.664   4.551  14.144  0.00  0.00    +0.000 OA
ENDROOT
BRANCH   1   7
ATOM      3  C   UNL     1       4.111   3.193  11.269  0.00  0.00    +0.000 A 
ATOM      4  C   UNL     1       4.825   2.081  10.824  0.00  0.00    +0.000 A 
ATOM      5  C   UNL     1       6.056   1.741  11.401  0.00  0.00    +0.000 A 
ATOM      6  C   UNL     1       6.578   2.543  12.416  0.00  0.00    +0.000 A 
ATOM      7  C   UNL     1       5.869   3.663  12.879  0.00  0.00    +0.000 A 
ATOM      8  C   UNL     1       4.633   3.970  12.303  0.00  0.00    +0.000 A 
BRANCH   3  10
ATOM      9  C   UNL     1       2.945   4.260   9.491  0.00  0.00    +0.000 C 
ATOM     10  O   UNL     1       2.913   3.422  10.642  0.00  0.00    +0.000 OA
ENDBRANCH   3  10
BRANCH   5  11
ATOM     11  O   UNL     1       6.624   0.604  10.896  0.00  0.00    +0.000 OA
ATOM     12  C   UNL     1       6.092  -0.638  11.342  0.00  0.00    +0.000 C 
ENDBRANCH   5  11
ENDBRANCH   1   7
BRANCH   1  13
ATOM     13  C   UNL     1       5.527   5.085  15.000  0.00  0.00    +0.000 C 
ATOM     14  C   UNL     1       5.174   4.449  16.130  0.00  0.00    +0.000 C 
BRANCH  14  15
ATOM     15  C   UNL     1       4.123   5.048  16.971  0.00  0.00    +0.000 A 
ATOM     16  C   UNL     1       4.247   6.424  17.235  0.00  0.00    +0.000 A 
ATOM     17  C   UNL     1       3.404   7.046  18.147  0.00  0.00    +0.000 A 
ATOM     18  C   UNL     1       2.466   6.293  18.848  0.00  0.00    +0.000 A 
ATOM     19  C   UNL     1       2.339   4.913  18.624  0.00  0.00    +0.000 A 
ATOM     20  C   UNL     1       1.452   4.152  19.402  0.00  0.00    +0.000 A 
ATOM     21  C   UNL     1       1.296   2.785  19.178  0.00  0.00    +0.000 A 
ATOM     22  C   UNL     1       1.985   2.173  18.139  0.00  0.00    +0.000 A 
ATOM     23  C   UNL     1       2.893   2.910  17.375  0.00  0.00    +0.000 A 
ATOM     24  C   UNL     1       3.128   4.282  17.631  0.00  0.00    +0.000 A 
ENDBRANCH  14  15
ENDBRANCH   1  13
TORSDOF 5
ENDMDL
MODEL 3
REMARK VINA RESULT:      -7.8      1.153      3.614
REMARK  Name = 
REMARK  7 active torsions:
REMARK  status: ('A' for Active; 'I' for Inactive)
REMARK    1  A    between atoms: C_1  and  O_2
REMARK    2  A    between atoms: O_2  and  C_3
REMARK    3  A    between atoms: C_5  and  O_6
REMARK    4  A    between atoms: O_6  and  C_7
REMARK    5  A    between atoms: C_9  and  C_10
REMARK    6  A    between atoms: C_10  and  C_12
REMARK    7  A    between atoms: C_13  and  C_14
REMARK                            x       y       z     vdW  Elec       q    Type
REMARK                         _______ _______ _______ _____ _____    ______ ____
ROOT
ATOM      1  C   UNL     1       1.790   9.874  18.196  0.00  0.00    +0.000 C 
ATOM      2  O   UNL     1       2.558  10.641  17.630  0.00  0.00    +0.000 OA
ENDROOT
BRANCH   1   7
ATOM      3  C   UNL     1      -0.072  10.782  21.406  0.00  0.00    +0.000 A 
ATOM      4  C   UNL     1      -1.241  11.322  20.873  0.00  0.00    +0.000 A 
ATOM      5  C   UNL     1      -1.427  11.398  19.486  0.00  0.00    +0.000 A 
ATOM      6  C   UNL     1      -0.417  10.949  18.636  0.00  0.00    +0.000 A 
ATOM      7  C   UNL     1       0.764  10.398  19.158  0.00  0.00    +0.000 A 
ATOM      8  C   UNL     1       0.918  10.311  20.545  0.00  0.00    +0.000 A 
BRANCH   3  10
ATOM      9  C   UNL     1       0.042   9.452  23.376  0.00  0.00    +0.000 C 
ATOM     10  O   UNL     1      -0.005  10.744  22.776  0.00  0.00    +0.000 OA
ENDBRANCH   3  10
BRANCH   5  11
ATOM     11  O   UNL     1      -2.637  11.911  19.103  0.00  0.00    +0.000 OA
ATOM     12  C   UNL     1      -3.175  11.445  17.871  0.00  0.00    +0.000 C 
ENDBRANCH   5  11
ENDBRANCH   1   7
BRANCH   1  13
ATOM     13  C   UNL     1       1.834   8.410  17.917  0.00  0.00    +0.000 C 
ATOM     14  C   UNL     1       2.896   7.666  18.271  0.00  0.00    +0.000 C 
BRANCH  14  15
ATOM     15  C   UNL     1       2.956   6.268  17.809  0.00  0.00    +0.000 A 
ATOM     16  C   UNL     1       1.884   5.441  18.190  0.00  0.00    +0.000 A 
ATOM     17  C   UNL     1       1.927   4.074  17.946  0.00  0.00    +0.000 A 
ATOM     18  C   UNL     1       3.062   3.508  17.371  0.00  0.00    +0.000 A 
ATOM     19  C   UNL     1       4.157   4.306  17.007  0.00  0.00    +0.000 A 
ATOM     20  C   UNL     1       5.329   3.711  16.512  0.00  0.00    +0.000 A 
ATOM     21  C   UNL     1       6.418   4.491  16.123  0.00  0.00    +0.000 A 
ATOM     22  C   UNL     1       6.329   5.875  16.174  0.00  0.00    +0.000 A 
ATOM     23  C   UNL     1       5.181   6.482  16.690  0.00  0.00    +0.000 A 
ATOM     24  C   UNL     1       4.091   5.713  17.164  0.00  0.00    +0.000 A 
ENDBRANCH  14  15
ENDBRANCH   1  13
TORSDOF 5
ENDMDL
MODEL 4
REMARK VINA RESULT:      -7.8      1.000      1.120
REMARK  Name = 
REMARK  7 active torsions:
REMARK  status: ('A' for Active; 'I' for Inactive)
REMARK    1  A    between atoms: C_1  and  O_2
REMARK    2  A    between atoms: O_2  and  C_3
REMARK    3  A    between atoms: C_5  and  O_6
REMARK    4  A    between atoms: O_6  and  C_7
REMARK    5  A    between atoms: C_9  and  C_10
REMARK    6  A    between atoms: C_10  and  C_12
REMARK    7  A    between atoms: C_13  and  C_14
REMARK                            x       y       z     vdW  Elec       q    Type
REMARK                         _______ _______ _______ _____ _____    ______ ____
ROOT
ATOM      1  C   UNL     1       1.661   9.506  17.926  0.00  0.00    +0.000 C 
ATOM      2  O   UNL     1       2.550  10.301  17.651  0.00  0.00    +0.000 OA
ENDROOT
BRANCH   1   7
ATOM      3  C   UNL     1      -2.096  10.198  17.892  0.00  0.00    +0.000 A 
ATOM      4  C   UNL     1      -2.208  11.027  19.007  0.00  0.00    +0.000 A 
ATOM      5  C   UNL     1      -1.079  11.358  19.769  0.00  0.00    +0.000 A 
ATOM      6  C   UNL     1       0.162  10.828  19.417  0.00  0.00    +0.000 A 
ATOM      7  C   UNL     1       0.291   9.996  18.293  0.00  0.00    +0.000 A 
ATOM      8  C   UNL     1      -0.845   9.698  17.534  0.00  0.00    +0.000 A 
BRANCH   3  10
ATOM      9  C   UNL     1      -3.567  10.832  16.132  0.00  0.00    +0.000 C 
ATOM     10  O   UNL     1      -3.263   9.954  17.212  0.00  0.00    +0.000 OA
ENDBRANCH   3  10
BRANCH   5  11
ATOM     11  O   UNL     1      -1.327  12.212  20.809  0.00  0.00    +0.000 OA
ATOM     12  C   UNL     1      -1.302  11.660  22.120  0.00  0.00    +0.000 C 
ENDBRANCH   5  11
ENDBRANCH   1   7
BRANCH   1  13
ATOM     13  C   UNL     1       1.909   8.037  17.867  0.00  0.00    +0.000 C 
ATOM     14  C   UNL     1       2.992   7.490  18.446  0.00  0.00    +0.000 C 
BRANCH  14  15
ATOM     15  C   UNL     1       3.272   6.065  18.200  0.00  0.00    +0.000 A 
ATOM     16  C   UNL     1       4.160   5.778  17.148  0.00  0.00    +0.000 A 
ATOM     17  C   UNL     1       4.362   4.468  16.732  0.00  0.00    +0.000 A 
ATOM     18  C   UNL     1       3.638   3.436  17.322  0.00  0.00    +0.000 A 
ATOM     19  C   UNL     1       2.724   3.696  18.355  0.00  0.00    +0.000 A 
ATOM     20  C   UNL     1       1.937   2.658  18.877  0.00  0.00    +0.000 A 
ATOM     21  C   UNL     1       1.042   2.894  19.920  0.00  0.00    +0.000 A 
ATOM     22  C   UNL     1       0.962   4.159  20.487  0.00  0.00    +0.000 A 
ATOM     23  C   UNL     1       1.718   5.209  19.961  0.00  0.00    +0.000 A 
ATOM     24  C   UNL     1       2.577   5.014  18.853  0.00  0.00    +0.000 A 
ENDBRANCH  14  15
ENDBRANCH   1  13
TORSDOF 5
ENDMDL
MODEL 5
REMARK VINA RESULT:      -7.8      1.071      2.660
REMARK  Name = 
REMARK  7 active torsions:
REMARK  status: ('A' for Active; 'I' for Inactive)
REMARK    1  A    between atoms: C_1  and  O_2
REMARK    2  A    between atoms: O_2  and  C_3
REMARK    3  A    between atoms: C_5  and  O_6
REMARK    4  A    between atoms: O_6  and  C_7
REMARK    5  A    between atoms: C_9  and  C_10
REMARK    6  A    between atoms: C_10  and  C_12
REMARK    7  A    between atoms: C_13  and  C_14
REMARK                            x       y       z     vdW  Elec       q    Type
REMARK                         _______ _______ _______ _____ _____    ______ ____
ROOT
ATOM      1  C   UNL     1       1.825   9.829  18.018  0.00  0.00    +0.000 C 
ATOM      2  O   UNL     1       2.666  10.611  17.592  0.00  0.00    +0.000 OA
ENDROOT
BRANCH   1   7
ATOM      3  C   UNL     1      -1.571  11.211  19.093  0.00  0.00    +0.000 A 
ATOM      4  C   UNL     1      -1.372  11.323  20.468  0.00  0.00    +0.000 A 
ATOM      5  C   UNL     1      -0.152  10.950  21.048  0.00  0.00    +0.000 A 
ATOM      6  C   UNL     1       0.862  10.440  20.236  0.00  0.00    +0.000 A 
ATOM      7  C   UNL     1       0.678  10.326  18.849  0.00  0.00    +0.000 A 
ATOM      8  C   UNL     1      -0.540  10.726  18.290  0.00  0.00    +0.000 A 
BRANCH   3  10
ATOM      9  C   UNL     1      -3.478  10.729  17.753  0.00  0.00    +0.000 C 
ATOM     10  O   UNL     1      -2.798  11.619  18.634  0.00  0.00    +0.000 OA
ENDBRANCH   3  10
BRANCH   5  11
ATOM     11  O   UNL     1      -0.080  11.152  22.399  0.00  0.00    +0.000 OA
ATOM     12  C   UNL     1      -0.875  10.306  23.222  0.00  0.00    +0.000 C 
ENDBRANCH   5  11
ENDBRANCH   1   7
BRANCH   1  13
ATOM     13  C   UNL     1       1.902   8.376  17.693  0.00  0.00    +0.000 C 
ATOM     14  C   UNL     1       2.799   7.576  18.296  0.00  0.00    +0.000 C 
BRANCH  14  15
ATOM     15  C   UNL     1       2.945   6.195  17.804  0.00  0.00    +0.000 A 
ATOM     16  C   UNL     1       1.903   5.306  18.125  0.00  0.00    +0.000 A 
ATOM     17  C   UNL     1       2.023   3.950  17.850  0.00  0.00    +0.000 A 
ATOM     18  C   UNL     1       3.205   3.456  17.304  0.00  0.00    +0.000 A 
ATOM     19  C   UNL     1       4.271   4.316  17.000  0.00  0.00    +0.000 A 
ATOM     20  C   UNL     1       5.488   3.792  16.535  0.00  0.00    +0.000 A 
ATOM     21  C   UNL     1       6.550   4.633  16.205  0.00  0.00    +0.000 A 
ATOM     22  C   UNL     1       6.389   6.010  16.286  0.00  0.00    +0.000 A 
ATOM     23  C   UNL     1       5.195   6.547  16.773  0.00  0.00    +0.000 A 
ATOM     24  C   UNL     1       4.129   5.713  17.188  0.00  0.00    +0.000 A 
ENDBRANCH  14  15
ENDBRANCH   1  13
TORSDOF 5
ENDMDL
MODEL 6
REMARK VINA RESULT:      -7.8      0.567      2.290
REMARK  Name = 
REMARK  7 active torsions:
REMARK  status: ('A' for Active; 'I' for Inactive)
REMARK    1  A    between atoms: C_1  and  O_2
REMARK    2  A    between atoms: O_2  and  C_3
REMARK    3  A    between atoms: C_5  and  O_6
REMARK    4  A    between atoms: O_6  and  C_7
REMARK    5  A    between atoms: C_9  and  C_10
REMARK    6  A    between atoms: C_10  and  C_12
REMARK    7  A    between atoms: C_13  and  C_14
REMARK                            x       y       z     vdW  Elec       q    Type
REMARK                         _______ _______ _______ _____ _____    ______ ____
ROOT
ATOM      1  C   UNL     1       1.889   9.116  18.013  0.00  0.00    +0.000 C 
ATOM      2  O   UNL     1       2.468   9.799  17.178  0.00  0.00    +0.000 OA
ENDROOT
BRANCH   1   7
ATOM      3  C   UNL     1      -0.129   9.929  21.154  0.00  0.00    +0.000 A 
ATOM      4  C   UNL     1      -0.976  10.918  20.657  0.00  0.00    +0.000 A 
ATOM      5  C   UNL     1      -0.895  11.326  19.319  0.00  0.00    +0.000 A 
ATOM      6  C   UNL     1       0.063  10.748  18.487  0.00  0.00    +0.000 A 
ATOM      7  C   UNL     1       0.920   9.746  18.970  0.00  0.00    +0.000 A 
ATOM      8  C   UNL     1       0.805   9.339  20.303  0.00  0.00    +0.000 A 
BRANCH   3  10
ATOM      9  C   UNL     1      -1.064  10.513  23.262  0.00  0.00    +0.000 C 
ATOM     10  O   UNL     1      -0.308   9.599  22.473  0.00  0.00    +0.000 OA
ENDBRANCH   3  10
BRANCH   5  11
ATOM     11  O   UNL     1      -1.813  12.274  18.958  0.00  0.00    +0.000 OA
ATOM     12  C   UNL     1      -3.111  11.813  18.598  0.00  0.00    +0.000 C 
ENDBRANCH   5  11
ENDBRANCH   1   7
BRANCH   1  13
ATOM     13  C   UNL     1       2.105   7.642  18.073  0.00  0.00    +0.000 C 
ATOM     14  C   UNL     1       3.336   7.126  18.233  0.00  0.00    +0.000 C 
BRANCH  14  15
ATOM     15  C   UNL     1       3.506   5.668  18.106  0.00  0.00    +0.000 A 
ATOM     16  C   UNL     1       4.313   5.227  17.042  0.00  0.00    +0.000 A 
ATOM     17  C   UNL     1       4.402   3.874  16.738  0.00  0.00    +0.000 A 
ATOM     18  C   UNL     1       3.643   2.952  17.455  0.00  0.00    +0.000 A 
ATOM     19  C   UNL     1       2.807   3.368  18.502  0.00  0.00    +0.000 A 
ATOM     20  C   UNL     1       1.981   2.440  19.155  0.00  0.00    +0.000 A 
ATOM     21  C   UNL     1       1.162   2.831  20.214  0.00  0.00    +0.000 A 
ATOM     22  C   UNL     1       1.200   4.143  20.667  0.00  0.00    +0.000 A 
ATOM     23  C   UNL     1       1.995   5.085  20.010  0.00  0.00    +0.000 A 
ATOM     24  C   UNL     1       2.777   4.732  18.885  0.00  0.00    +0.000 A 
ENDBRANCH  14  15
ENDBRANCH   1  13
TORSDOF 5
ENDMDL
MODEL 7
REMARK VINA RESULT:      -7.7      3.098      7.836
REMARK  Name = 
REMARK  7 active torsions:
REMARK  status: ('A' for Active; 'I' for Inactive)
REMARK    1  A    between atoms: C_1  and  O_2
REMARK    2  A    between atoms: O_2  and  C_3
REMARK    3  A    between atoms: C_5  and  O_6
REMARK    4  A    between atoms: O_6  and  C_7
REMARK    5  A    between atoms: C_9  and  C_10
REMARK    6  A    between atoms: C_10  and  C_12
REMARK    7  A    between atoms: C_13  and  C_14
REMARK                            x       y       z     vdW  Elec       q    Type
REMARK                         _______ _______ _______ _____ _____    ______ ____
ROOT
ATOM      1  C   UNL     1       2.774   5.997  18.228  0.00  0.00    +0.000 C 
ATOM      2  O   UNL     1       2.235   5.020  18.732  0.00  0.00    +0.000 OA
ENDROOT
BRANCH   1   7
ATOM      3  C   UNL     1       5.574   4.589  16.042  0.00  0.00    +0.000 A 
ATOM      4  C   UNL     1       6.512   5.616  16.145  0.00  0.00    +0.000 A 
ATOM      5  C   UNL     1       6.242   6.759  16.910  0.00  0.00    +0.000 A 
ATOM      6  C   UNL     1       5.010   6.874  17.553  0.00  0.00    +0.000 A 
ATOM      7  C   UNL     1       4.057   5.846  17.464  0.00  0.00    +0.000 A 
ATOM      8  C   UNL     1       4.358   4.705  16.714  0.00  0.00    +0.000 A 
BRANCH   3  10
ATOM      9  C   UNL     1       6.282   3.779  13.920  0.00  0.00    +0.000 C 
ATOM     10  O   UNL     1       5.951   3.513  15.280  0.00  0.00    +0.000 OA
ENDBRANCH   3  10
BRANCH   5  11
ATOM     11  O   UNL     1       7.265   7.665  16.956  0.00  0.00    +0.000 OA
ATOM     12  C   UNL     1       8.045   7.699  18.146  0.00  0.00    +0.000 C 
ENDBRANCH   5  11
ENDBRANCH   1   7
BRANCH   1  13
ATOM     13  C   UNL     1       2.153   7.348  18.334  0.00  0.00    +0.000 C 
ATOM     14  C   UNL     1       1.987   7.946  19.526  0.00  0.00    +0.000 C 
BRANCH  14  15
ATOM     15  C   UNL     1       1.208   9.195  19.580  0.00  0.00    +0.000 A 
ATOM     16  C   UNL     1       1.377  10.080  18.500  0.00  0.00    +0.000 A 
ATOM     17  C   UNL     1       0.817  11.351  18.534  0.00  0.00    +0.000 A 
ATOM     18  C   UNL     1       0.131  11.774  19.669  0.00  0.00    +0.000 A 
ATOM     19  C   UNL     1      -0.029  10.922  20.773  0.00  0.00    +0.000 A 
ATOM     20  C   UNL     1      -0.645  11.393  21.943  0.00  0.00    +0.000 A 
ATOM     21  C   UNL     1      -0.833  10.554  23.040  0.00  0.00    +0.000 A 
ATOM     22  C   UNL     1      -0.457   9.219  22.960  0.00  0.00    +0.000 A 
ATOM     23  C   UNL     1       0.182   8.742  21.813  0.00  0.00    +0.000 A 
ATOM     24  C   UNL     1       0.455   9.592  20.715  0.00  0.00    +0.000 A 
ENDBRANCH  14  15
ENDBRANCH   1  13
TORSDOF 5
ENDMDL
MODEL 8
REMARK VINA RESULT:      -7.7      1.573      2.505
REMARK  Name = 
REMARK  7 active torsions:
REMARK  status: ('A' for Active; 'I' for Inactive)
REMARK    1  A    between atoms: C_1  and  O_2
REMARK    2  A    between atoms: O_2  and  C_3
REMARK    3  A    between atoms: C_5  and  O_6
REMARK    4  A    between atoms: O_6  and  C_7
REMARK    5  A    between atoms: C_9  and  C_10
REMARK    6  A    between atoms: C_10  and  C_12
REMARK    7  A    between atoms: C_13  and  C_14
REMARK                            x       y       z     vdW  Elec       q    Type
REMARK                         _______ _______ _______ _____ _____    ______ ____
ROOT
ATOM      1  C   UNL     1       0.684  10.517  18.881  0.00  0.00    +0.000 C 
ATOM      2  O   UNL     1       1.278  11.394  19.495  0.00  0.00    +0.000 OA
ENDROOT
BRANCH   1   7
ATOM      3  C   UNL     1      -2.693  10.268  17.111  0.00  0.00    +0.000 A 
ATOM      4  C   UNL     1      -3.454  11.127  17.902  0.00  0.00    +0.000 A 
ATOM      5  C   UNL     1      -2.884  11.780  19.003  0.00  0.00    +0.000 A 
ATOM      6  C   UNL     1      -1.546  11.544  19.320  0.00  0.00    +0.000 A 
ATOM      7  C   UNL     1      -0.765  10.685  18.529  0.00  0.00    +0.000 A 
ATOM      8  C   UNL     1      -1.349  10.063  17.422  0.00  0.00    +0.000 A 
BRANCH   3  10
ATOM      9  C   UNL     1      -3.336  10.422  14.825  0.00  0.00    +0.000 C 
ATOM     10  O   UNL     1      -3.350   9.696  16.051  0.00  0.00    +0.000 OA
ENDBRANCH   3  10
BRANCH   5  11
ATOM     11  O   UNL     1      -3.733  12.625  19.664  0.00  0.00    +0.000 OA
ATOM     12  C   UNL     1      -3.420  12.927  21.019  0.00  0.00    +0.000 C 
ENDBRANCH   5  11
ENDBRANCH   1   7
BRANCH   1  13
ATOM     13  C   UNL     1       1.394   9.284  18.438  0.00  0.00    +0.000 C 
ATOM     14  C   UNL     1       1.734   8.324  19.316  0.00  0.00    +0.000 C 
BRANCH  14  15
ATOM     15  C   UNL     1       2.589   7.219  18.848  0.00  0.00    +0.000 A 
ATOM     16  C   UNL     1       3.467   7.516  17.791  0.00  0.00    +0.000 A 
ATOM     17  C   UNL     1       4.193   6.507  17.172  0.00  0.00    +0.000 A 
ATOM     18  C   UNL     1       4.009   5.183  17.561  0.00  0.00    +0.000 A 
ATOM     19  C   UNL     1       3.118   4.854  18.594  0.00  0.00    +0.000 A 
ATOM     20  C   UNL     1       2.876   3.509  18.915  0.00  0.00    +0.000 A 
ATOM     21  C   UNL     1       2.012   3.165  19.954  0.00  0.00    +0.000 A 
ATOM     22  C   UNL     1       1.422   4.163  20.719  0.00  0.00    +0.000 A 
ATOM     23  C   UNL     1       1.630   5.506  20.395  0.00  0.00    +0.000 A 
ATOM     24  C   UNL     1       2.441   5.881  19.298  0.00  0.00    +0.000 A 
ENDBRANCH  14  15
ENDBRANCH   1  13
TORSDOF 5
ENDMDL
MODEL 9
REMARK VINA RESULT:      -7.7      1.217      2.653
REMARK  Name = 
REMARK  7 active torsions:
REMARK  status: ('A' for Active; 'I' for Inactive)
REMARK    1  A    between atoms: C_1  and  O_2
REMARK    2  A    between atoms: O_2  and  C_3
REMARK    3  A    between atoms: C_5  and  O_6
REMARK    4  A    between atoms: O_6  and  C_7
REMARK    5  A    between atoms: C_9  and  C_10
REMARK    6  A    between atoms: C_10  and  C_12
REMARK    7  A    between atoms: C_13  and  C_14
REMARK                            x       y       z     vdW  Elec       q    Type
REMARK                         _______ _______ _______ _____ _____    ______ ____
ROOT
ATOM      1  C   UNL     1       1.838  10.118  18.051  0.00  0.00    +0.000 C 
ATOM      2  O   UNL     1       2.661  11.019  17.954  0.00  0.00    +0.000 OA
ENDROOT
BRANCH   1   7
ATOM      3  C   UNL     1      -1.256  11.361  19.916  0.00  0.00    +0.000 A 
ATOM      4  C   UNL     1      -2.263  10.869  19.087  0.00  0.00    +0.000 A 
ATOM      5  C   UNL     1      -1.947  10.146  17.929  0.00  0.00    +0.000 A 
ATOM      6  C   UNL     1      -0.608   9.940  17.597  0.00  0.00    +0.000 A 
ATOM      7  C   UNL     1       0.417  10.424  18.425  0.00  0.00    +0.000 A 
ATOM      8  C   UNL     1       0.078  11.123  19.587  0.00  0.00    +0.000 A 
BRANCH   3  10
ATOM      9  C   UNL     1      -0.672  12.469  21.940  0.00  0.00    +0.000 C 
ATOM     10  O   UNL     1      -1.681  12.041  21.029  0.00  0.00    +0.000 OA
ENDBRANCH   3  10
BRANCH   5  11
ATOM     11  O   UNL     1      -3.032   9.688  17.232  0.00  0.00    +0.000 OA
ATOM     12  C   UNL     1      -3.033   9.899  15.825  0.00  0.00    +0.000 C 
ENDBRANCH   5  11
ENDBRANCH   1   7
BRANCH   1  13
ATOM     13  C   UNL     1       2.220   8.705  17.766  0.00  0.00    +0.000 C 
ATOM     14  C   UNL     1       2.399   7.819  18.761  0.00  0.00    +0.000 C 
BRANCH  14  15
ATOM     15  C   UNL     1       2.947   6.494  18.426  0.00  0.00    +0.000 A 
ATOM     16  C   UNL     1       3.903   6.458  17.396  0.00  0.00    +0.000 A 
ATOM     17  C   UNL     1       4.358   5.244  16.896  0.00  0.00    +0.000 A 
ATOM     18  C   UNL     1       3.822   4.053  17.379  0.00  0.00    +0.000 A 
ATOM     19  C   UNL     1       2.847   4.060  18.387  0.00  0.00    +0.000 A 
ATOM     20  C   UNL     1       2.252   2.857  18.800  0.00  0.00    +0.000 A 
ATOM     21  C   UNL     1       1.298   2.842  19.817  0.00  0.00    +0.000 A 
ATOM     22  C   UNL     1       0.967   4.022  20.470  0.00  0.00    +0.000 A 
ATOM     23  C   UNL     1       1.529   5.232  20.052  0.00  0.00    +0.000 A 
ATOM     24  C   UNL     1       2.441   5.285  18.972  0.00  0.00    +0.000 A 
ENDBRANCH  14  15
ENDBRANCH   1  13
TORSDOF 5
ENDMDL
