MODEL 1
REMARK VINA RESULT:      -9.7      0.000      0.000
REMARK  Name = 
REMARK  5 active torsions:
REMARK  status: ('A' for Active; 'I' for Inactive)
REMARK    1  A    between atoms: C_1  and  C_2
REMARK    2  A    between atoms: C_5  and  N_6
REMARK    3  A    between atoms: N_9  and  C_10
REMARK    4  A    between atoms: C_12  and  C_13
REMARK    5  A    between atoms: C_12  and  C_15
REMARK                            x       y       z     vdW  Elec       q    Type
REMARK                         _______ _______ _______ _____ _____    ______ ____
ROOT
ATOM      1  N   UNL     1       1.374   8.782  19.199  0.00  0.00    +0.000 N 
ATOM      2  C   UNL     1       1.698   7.934  20.228  0.00  0.00    +0.000 C 
ATOM      3  O   UNL     1       1.412   8.077  21.406  0.00  0.00    +0.000 OA
ATOM      4  N   UNL     1       2.447   6.852  19.824  0.00  0.00    +0.000 N 
ATOM      5  H   UNL     1       2.146   8.834  18.551  0.00  0.00    +0.000 HD
ATOM      6  H   UNL     1       2.705   6.241  20.593  0.00  0.00    +0.000 HD
ENDROOT
BRANCH   1  11
ATOM      7  C   UNL     1      -2.795   9.513  15.852  0.00  0.00    +0.000 C 
ATOM      8  C   UNL     1      -2.136  10.265  16.966  0.00  0.00    +0.000 A 
ATOM      9  C   UNL     1      -1.071   9.702  17.680  0.00  0.00    +0.000 A 
ATOM     10  C   UNL     1      -0.407  10.462  18.666  0.00  0.00    +0.000 A 
ATOM     11  C   UNL     1       0.737  10.027  19.391  0.00  0.00    +0.000 A 
ATOM     12  C   UNL     1       1.405  10.911  20.254  0.00  0.00    +0.000 A 
ATOM     13  C   UNL     1       0.909  12.170  20.460  0.00  0.00    +0.000 A 
ATOM     14  F   UNL     1       1.540  12.992  21.303  0.00  0.00    +0.000 F 
ATOM     15  C   UNL     1      -0.215  12.630  19.793  0.00  0.00    +0.000 A 
ATOM     16  C   UNL     1      -0.866  11.786  18.886  0.00  0.00    +0.000 A 
ATOM     17  C   UNL     1      -1.949  12.241  18.143  0.00  0.00    +0.000 A 
ATOM     18  N   UNL     1      -2.583  11.520  17.194  0.00  0.00    +0.000 NA
ENDBRANCH   1  11
BRANCH   4  19
ATOM     19  C   UNL     1       2.522   6.311  18.481  0.00  0.00    +0.000 C 
ATOM     20  C   UNL     1       1.825   4.912  18.300  0.00  0.00    +0.000 C 
ATOM     21  C   UNL     1       2.516   3.839  19.202  0.00  0.00    +0.000 C 
ATOM     22  O   UNL     1       3.926   4.157  19.358  0.00  0.00    +0.000 OA
ATOM     23  C   UNL     1       4.414   4.800  18.243  0.00  0.00    +0.000 A 
ATOM     24  C   UNL     1       5.118   4.147  17.244  0.00  0.00    +0.000 A 
ATOM     25  C   UNL     1       5.496   4.870  16.110  0.00  0.00    +0.000 A 
ATOM     26 CL   UNL     1       6.095   4.037  14.727  0.00  0.00    +0.000 Cl
ATOM     27  C   UNL     1       5.299   6.252  16.040  0.00  0.00    +0.000 A 
ATOM     28  C   UNL     1       4.512   6.879  17.003  0.00  0.00    +0.000 A 
ATOM     29  C   UNL     1       3.944   6.091  18.009  0.00  0.00    +0.000 A 
BRANCH  21  30
ATOM     30  C   UNL     1       2.522   2.374  18.730  0.00  0.00    +0.000 C 
ATOM     31  F   UNL     1       2.227   2.369  17.387  0.00  0.00    +0.000 F 
ENDBRANCH  21  30
BRANCH  21  32
ATOM     32  C   UNL     1       1.744   3.810  20.534  0.00  0.00    +0.000 C 
ATOM     33  F   UNL     1       0.489   4.310  20.308  0.00  0.00    +0.000 F 
ENDBRANCH  21  32
ENDBRANCH   4  19
TORSDOF 4
ENDMDL
MODEL 2
REMARK VINA RESULT:      -8.9      1.843      2.741
REMARK  Name = 
REMARK  5 active torsions:
REMARK  status: ('A' for Active; 'I' for Inactive)
REMARK    1  A    between atoms: C_1  and  C_2
REMARK    2  A    between atoms: C_5  and  N_6
REMARK    3  A    between atoms: N_9  and  C_10
REMARK    4  A    between atoms: C_12  and  C_13
REMARK    5  A    between atoms: C_12  and  C_15
REMARK                            x       y       z     vdW  Elec       q    Type
REMARK                         _______ _______ _______ _____ _____    ______ ____
ROOT
ATOM      1  N   UNL     1       0.951   9.125  18.352  0.00  0.00    +0.000 N 
ATOM      2  C   UNL     1       1.487   8.622  19.510  0.00  0.00    +0.000 C 
ATOM      3  O   UNL     1       1.223   8.977  20.648  0.00  0.00    +0.000 OA
ATOM      4  N   UNL     1       2.431   7.644  19.292  0.00  0.00    +0.000 N 
ATOM      5  H   UNL     1       1.668   9.175  17.645  0.00  0.00    +0.000 HD
ATOM      6  H   UNL     1       2.842   7.293  20.152  0.00  0.00    +0.000 HD
ENDROOT
BRANCH   1  11
ATOM      7  C   UNL     1       3.506  13.829  19.042  0.00  0.00    +0.000 C 
ATOM      8  C   UNL     1       2.104  13.366  18.790  0.00  0.00    +0.000 A 
ATOM      9  C   UNL     1       1.822  12.010  18.589  0.00  0.00    +0.000 A 
ATOM     10  C   UNL     1       0.484  11.586  18.443  0.00  0.00    +0.000 A 
ATOM     11  C   UNL     1       0.072  10.230  18.319  0.00  0.00    +0.000 A 
ATOM     12  C   UNL     1      -1.294   9.903  18.314  0.00  0.00    +0.000 A 
ATOM     13  C   UNL     1      -2.233  10.897  18.349  0.00  0.00    +0.000 A 
ATOM     14  F   UNL     1      -3.530  10.574  18.318  0.00  0.00    +0.000 F 
ATOM     15  C   UNL     1      -1.880  12.233  18.447  0.00  0.00    +0.000 A 
ATOM     16  C   UNL     1      -0.526  12.580  18.508  0.00  0.00    +0.000 A 
ATOM     17  C   UNL     1      -0.137  13.904  18.684  0.00  0.00    +0.000 A 
ATOM     18  N   UNL     1       1.140  14.313  18.832  0.00  0.00    +0.000 NA
ENDBRANCH   1  11
BRANCH   4  19
ATOM     19  C   UNL     1       2.567   6.830  18.101  0.00  0.00    +0.000 C 
ATOM     20  C   UNL     1       1.804   5.455  18.157  0.00  0.00    +0.000 C 
ATOM     21  C   UNL     1       2.370   4.568  19.313  0.00  0.00    +0.000 C 
ATOM     22  O   UNL     1       3.782   4.853  19.511  0.00  0.00    +0.000 OA
ATOM     23  C   UNL     1       4.381   5.226  18.329  0.00  0.00    +0.000 A 
ATOM     24  C   UNL     1       5.112   4.349  17.545  0.00  0.00    +0.000 A 
ATOM     25  C   UNL     1       5.608   4.800  16.319  0.00  0.00    +0.000 A 
ATOM     26 CL   UNL     1       6.251   3.671  15.190  0.00  0.00    +0.000 Cl
ATOM     27  C   UNL     1       5.496   6.144  15.950  0.00  0.00    +0.000 A 
ATOM     28  C   UNL     1       4.682   6.991  16.698  0.00  0.00    +0.000 A 
ATOM     29  C   UNL     1       4.002   6.457  17.797  0.00  0.00    +0.000 A 
BRANCH  21  30
ATOM     30  C   UNL     1       2.324   3.038  19.157  0.00  0.00    +0.000 C 
ATOM     31  F   UNL     1       1.832   2.763  17.902  0.00  0.00    +0.000 F 
ENDBRANCH  21  30
BRANCH  21  32
ATOM     32  C   UNL     1       1.508   4.852  20.557  0.00  0.00    +0.000 C 
ATOM     33  F   UNL     1       0.775   3.728  20.831  0.00  0.00    +0.000 F 
ENDBRANCH  21  32
ENDBRANCH   4  19
TORSDOF 4
ENDMDL
MODEL 3
REMARK VINA RESULT:      -8.5      2.466      3.347
REMARK  Name = 
REMARK  5 active torsions:
REMARK  status: ('A' for Active; 'I' for Inactive)
REMARK    1  A    between atoms: C_1  and  C_2
REMARK    2  A    between atoms: C_5  and  N_6
REMARK    3  A    between atoms: N_9  and  C_10
REMARK    4  A    between atoms: C_12  and  C_13
REMARK    5  A    between atoms: C_12  and  C_15
REMARK                            x       y       z     vdW  Elec       q    Type
REMARK                         _______ _______ _______ _____ _____    ______ ____
ROOT
ATOM      1  N   UNL     1       1.256   8.835  19.018  0.00  0.00    +0.000 N 
ATOM      2  C   UNL     1       2.129   9.007  17.974  0.00  0.00    +0.000 C 
ATOM      3  O   UNL     1       2.312  10.034  17.340  0.00  0.00    +0.000 OA
ATOM      4  N   UNL     1       2.811   7.858  17.642  0.00  0.00    +0.000 N 
ATOM      5  H   UNL     1       0.835   7.921  18.956  0.00  0.00    +0.000 HD
ATOM      6  H   UNL     1       3.438   7.985  16.853  0.00  0.00    +0.000 HD
ENDROOT
BRANCH   1  11
ATOM      7  C   UNL     1      -2.668   9.725  15.421  0.00  0.00    +0.000 C 
ATOM      8  C   UNL     1      -2.288  10.227  16.780  0.00  0.00    +0.000 A 
ATOM      9  C   UNL     1      -1.191   9.688  17.463  0.00  0.00    +0.000 A 
ATOM     10  C   UNL     1      -0.797  10.237  18.702  0.00  0.00    +0.000 A 
ATOM     11  C   UNL     1       0.347   9.829  19.442  0.00  0.00    +0.000 A 
ATOM     12  C   UNL     1       0.728  10.530  20.598  0.00  0.00    +0.000 A 
ATOM     13  C   UNL     1      -0.046  11.559  21.059  0.00  0.00    +0.000 A 
ATOM     14  F   UNL     1       0.314  12.201  22.174  0.00  0.00    +0.000 F 
ATOM     15  C   UNL     1      -1.182  11.977  20.384  0.00  0.00    +0.000 A 
ATOM     16  C   UNL     1      -1.552  11.329  19.200  0.00  0.00    +0.000 A 
ATOM     17  C   UNL     1      -2.641  11.772  18.457  0.00  0.00    +0.000 A 
ATOM     18  N   UNL     1      -3.017  11.255  17.269  0.00  0.00    +0.000 NA
ENDBRANCH   1  11
BRANCH   4  19
ATOM     19  C   UNL     1       3.036   6.712  18.501  0.00  0.00    +0.000 C 
ATOM     20  C   UNL     1       4.529   6.521  18.961  0.00  0.00    +0.000 C 
ATOM     21  C   UNL     1       5.451   6.278  17.723  0.00  0.00    +0.000 C 
ATOM     22  O   UNL     1       4.708   5.591  16.678  0.00  0.00    +0.000 OA
ATOM     23  C   UNL     1       3.743   4.771  17.217  0.00  0.00    +0.000 A 
ATOM     24  C   UNL     1       3.921   3.408  17.386  0.00  0.00    +0.000 A 
ATOM     25  C   UNL     1       2.916   2.675  18.022  0.00  0.00    +0.000 A 
ATOM     26 CL   UNL     1       3.224   1.056  18.520  0.00  0.00    +0.000 Cl
ATOM     27  C   UNL     1       1.695   3.269  18.354  0.00  0.00    +0.000 A 
ATOM     28  C   UNL     1       1.563   4.653  18.265  0.00  0.00    +0.000 A 
ATOM     29  C   UNL     1       2.668   5.398  17.845  0.00  0.00    +0.000 A 
BRANCH  21  30
ATOM     30  C   UNL     1       6.712   5.415  17.902  0.00  0.00    +0.000 C 
ATOM     31  F   UNL     1       6.938   5.285  19.253  0.00  0.00    +0.000 F 
ENDBRANCH  21  30
BRANCH  21  32
ATOM     32  C   UNL     1       5.987   7.655  17.288  0.00  0.00    +0.000 C 
ATOM     33  F   UNL     1       7.355   7.594  17.279  0.00  0.00    +0.000 F 
ENDBRANCH  21  32
ENDBRANCH   4  19
TORSDOF 4
ENDMDL
MODEL 4
REMARK VINA RESULT:      -8.4      2.342      3.298
REMARK  Name = 
REMARK  5 active torsions:
REMARK  status: ('A' for Active; 'I' for Inactive)
REMARK    1  A    between atoms: C_1  and  C_2
REMARK    2  A    between atoms: C_5  and  N_6
REMARK    3  A    between atoms: N_9  and  C_10
REMARK    4  A    between atoms: C_12  and  C_13
REMARK    5  A    between atoms: C_12  and  C_15
REMARK                            x       y       z     vdW  Elec       q    Type
REMARK                         _______ _______ _______ _____ _____    ______ ____
ROOT
ATOM      1  N   UNL     1       1.241   8.898  19.201  0.00  0.00    +0.000 N 
ATOM      2  C   UNL     1       2.093   8.992  18.129  0.00  0.00    +0.000 C 
ATOM      3  O   UNL     1       2.254   9.966  17.411  0.00  0.00    +0.000 OA
ATOM      4  N   UNL     1       2.780   7.826  17.878  0.00  0.00    +0.000 N 
ATOM      5  H   UNL     1       0.827   7.979  19.221  0.00  0.00    +0.000 HD
ATOM      6  H   UNL     1       3.390   7.894  17.069  0.00  0.00    +0.000 HD
ENDROOT
BRANCH   1  11
ATOM      7  C   UNL     1      -2.616   9.634  15.499  0.00  0.00    +0.000 C 
ATOM      8  C   UNL     1      -2.256  10.199  16.838  0.00  0.00    +0.000 A 
ATOM      9  C   UNL     1      -1.174   9.688  17.565  0.00  0.00    +0.000 A 
ATOM     10  C   UNL     1      -0.798  10.293  18.783  0.00  0.00    +0.000 A 
ATOM     11  C   UNL     1       0.331   9.916  19.561  0.00  0.00    +0.000 A 
ATOM     12  C   UNL     1       0.696  10.669  20.688  0.00  0.00    +0.000 A 
ATOM     13  C   UNL     1      -0.080  11.723  21.086  0.00  0.00    +0.000 A 
ATOM     14  F   UNL     1       0.265  12.417  22.175  0.00  0.00    +0.000 F 
ATOM     15  C   UNL     1      -1.202  12.114  20.373  0.00  0.00    +0.000 A 
ATOM     16  C   UNL     1      -1.555  11.412  19.215  0.00  0.00    +0.000 A 
ATOM     17  C   UNL     1      -2.629  11.825  18.433  0.00  0.00    +0.000 A 
ATOM     18  N   UNL     1      -2.988  11.253  17.264  0.00  0.00    +0.000 NA
ENDBRANCH   1  11
BRANCH   4  19
ATOM     19  C   UNL     1       3.031   6.755  18.822  0.00  0.00    +0.000 C 
ATOM     20  C   UNL     1       4.525   6.262  18.869  0.00  0.00    +0.000 C 
ATOM     21  C   UNL     1       4.948   5.679  17.482  0.00  0.00    +0.000 C 
ATOM     22  O   UNL     1       3.797   5.085  16.822  0.00  0.00    +0.000 OA
ATOM     23  C   UNL     1       2.906   4.579  17.742  0.00  0.00    +0.000 A 
ATOM     24  C   UNL     1       2.857   3.237  18.084  0.00  0.00    +0.000 A 
ATOM     25  C   UNL     1       1.977   2.836  19.092  0.00  0.00    +0.000 A 
ATOM     26 CL   UNL     1       2.101   1.251  19.753  0.00  0.00    +0.000 Cl
ATOM     27  C   UNL     1       1.063   3.735  19.648  0.00  0.00    +0.000 A 
ATOM     28  C   UNL     1       1.183   5.094  19.364  0.00  0.00    +0.000 A 
ATOM     29  C   UNL     1       2.227   5.506  18.530  0.00  0.00    +0.000 A 
BRANCH  21  30
ATOM     30  C   UNL     1       6.007   4.563  17.445  0.00  0.00    +0.000 C 
ATOM     31  F   UNL     1       5.860   3.890  16.255  0.00  0.00    +0.000 F 
ENDBRANCH  21  30
BRANCH  21  32
ATOM     32  C   UNL     1       5.581   6.835  16.686  0.00  0.00    +0.000 C 
ATOM     33  F   UNL     1       4.906   6.954  15.501  0.00  0.00    +0.000 F 
ENDBRANCH  21  32
ENDBRANCH   4  19
TORSDOF 4
ENDMDL
MODEL 5
REMARK VINA RESULT:      -8.1      2.089      2.391
REMARK  Name = 
REMARK  5 active torsions:
REMARK  status: ('A' for Active; 'I' for Inactive)
REMARK    1  A    between atoms: C_1  and  C_2
REMARK    2  A    between atoms: C_5  and  N_6
REMARK    3  A    between atoms: N_9  and  C_10
REMARK    4  A    between atoms: C_12  and  C_13
REMARK    5  A    between atoms: C_12  and  C_15
REMARK                            x       y       z     vdW  Elec       q    Type
REMARK                         _______ _______ _______ _____ _____    ______ ____
ROOT
ATOM      1  N   UNL     1       1.371   8.542  19.909  0.00  0.00    +0.000 N 
ATOM      2  C   UNL     1       1.901   7.555  20.700  0.00  0.00    +0.000 C 
ATOM      3  O   UNL     1       1.780   7.450  21.911  0.00  0.00    +0.000 OA
ATOM      4  N   UNL     1       2.658   6.644  19.999  0.00  0.00    +0.000 N 
ATOM      5  H   UNL     1       2.033   8.787  19.189  0.00  0.00    +0.000 HD
ATOM      6  H   UNL     1       3.068   5.930  20.594  0.00  0.00    +0.000 HD
ENDROOT
BRANCH   1  11
ATOM      7  C   UNL     1       2.872  13.159  17.552  0.00  0.00    +0.000 C 
ATOM      8  C   UNL     1       1.888  12.727  18.595  0.00  0.00    +0.000 A 
ATOM      9  C   UNL     1       1.726  11.373  18.911  0.00  0.00    +0.000 A 
ATOM     10  C   UNL     1       0.859  10.995  19.957  0.00  0.00    +0.000 A 
ATOM     11  C   UNL     1       0.681   9.662  20.421  0.00  0.00    +0.000 A 
ATOM     12  C   UNL     1      -0.104   9.408  21.558  0.00  0.00    +0.000 A 
ATOM     13  C   UNL     1      -0.763  10.435  22.176  0.00  0.00    +0.000 A 
ATOM     14  F   UNL     1      -1.527  10.177  23.242  0.00  0.00    +0.000 F 
ATOM     15  C   UNL     1      -0.638  11.747  21.747  0.00  0.00    +0.000 A 
ATOM     16  C   UNL     1       0.182  12.032  20.649  0.00  0.00    +0.000 A 
ATOM     17  C   UNL     1       0.391  13.344  20.239  0.00  0.00    +0.000 A 
ATOM     18  N   UNL     1       1.225  13.711  19.243  0.00  0.00    +0.000 NA
ENDBRANCH   1  11
BRANCH   4  19
ATOM     19  C   UNL     1       2.575   6.369  18.579  0.00  0.00    +0.000 C 
ATOM     20  C   UNL     1       1.675   5.134  18.203  0.00  0.00    +0.000 C 
ATOM     21  C   UNL     1       2.258   3.826  18.829  0.00  0.00    +0.000 C 
ATOM     22  O   UNL     1       3.706   3.923  18.920  0.00  0.00    +0.000 OA
ATOM     23  C   UNL     1       4.214   4.702  17.905  0.00  0.00    +0.000 A 
ATOM     24  C   UNL     1       4.755   4.170  16.746  0.00  0.00    +0.000 A 
ATOM     25  C   UNL     1       5.165   5.044  15.736  0.00  0.00    +0.000 A 
ATOM     26 CL   UNL     1       5.555   4.425  14.177  0.00  0.00    +0.000 Cl
ATOM     27  C   UNL     1       5.164   6.427  15.939  0.00  0.00    +0.000 A 
ATOM     28  C   UNL     1       4.534   6.951  17.065  0.00  0.00    +0.000 A 
ATOM     29  C   UNL     1       3.919   6.064  17.953  0.00  0.00    +0.000 A 
BRANCH  21  30
ATOM     30  C   UNL     1       2.026   2.493  18.097  0.00  0.00    +0.000 C 
ATOM     31  F   UNL     1       3.029   1.631  18.476  0.00  0.00    +0.000 F 
ENDBRANCH  21  30
BRANCH  21  32
ATOM     32  C   UNL     1       1.570   3.639  20.194  0.00  0.00    +0.000 C 
ATOM     33  F   UNL     1       0.375   4.307  20.163  0.00  0.00    +0.000 F 
ENDBRANCH  21  32
ENDBRANCH   4  19
TORSDOF 4
ENDMDL
MODEL 6
REMARK VINA RESULT:      -7.8      2.937      8.155
REMARK  Name = 
REMARK  5 active torsions:
REMARK  status: ('A' for Active; 'I' for Inactive)
REMARK    1  A    between atoms: C_1  and  C_2
REMARK    2  A    between atoms: C_5  and  N_6
REMARK    3  A    between atoms: N_9  and  C_10
REMARK    4  A    between atoms: C_12  and  C_13
REMARK    5  A    between atoms: C_12  and  C_15
REMARK                            x       y       z     vdW  Elec       q    Type
REMARK                         _______ _______ _______ _____ _____    ______ ____
ROOT
ATOM      1  N   UNL     1       1.607   7.890  19.757  0.00  0.00    +0.000 N 
ATOM      2  C   UNL     1       1.482   8.728  20.837  0.00  0.00    +0.000 C 
ATOM      3  O   UNL     1       1.919   8.536  21.961  0.00  0.00    +0.000 OA
ATOM      4  N   UNL     1       0.754   9.863  20.562  0.00  0.00    +0.000 N 
ATOM      5  H   UNL     1       0.752   7.903  19.223  0.00  0.00    +0.000 HD
ATOM      6  H   UNL     1       0.644  10.467  21.371  0.00  0.00    +0.000 HD
ENDROOT
BRANCH   1  11
ATOM      7  C   UNL     1       5.047   6.919  15.714  0.00  0.00    +0.000 C 
ATOM      8  C   UNL     1       4.552   6.202  16.932  0.00  0.00    +0.000 A 
ATOM      9  C   UNL     1       3.672   6.826  17.824  0.00  0.00    +0.000 A 
ATOM     10  C   UNL     1       3.149   6.103  18.916  0.00  0.00    +0.000 A 
ATOM     11  C   UNL     1       2.186   6.605  19.834  0.00  0.00    +0.000 A 
ATOM     12  C   UNL     1       1.628   5.759  20.808  0.00  0.00    +0.000 A 
ATOM     13  C   UNL     1       2.069   4.469  20.924  0.00  0.00    +0.000 A 
ATOM     14  F   UNL     1       1.548   3.682  21.870  0.00  0.00    +0.000 F 
ATOM     15  C   UNL     1       3.021   3.942  20.067  0.00  0.00    +0.000 A 
ATOM     16  C   UNL     1       3.552   4.750  19.054  0.00  0.00    +0.000 A 
ATOM     17  C   UNL     1       4.452   4.232  18.129  0.00  0.00    +0.000 A 
ATOM     18  N   UNL     1       4.950   4.918  17.079  0.00  0.00    +0.000 NA
ENDBRANCH   1  11
BRANCH   4  19
ATOM     19  C   UNL     1       0.528  10.445  19.254  0.00  0.00    +0.000 C 
ATOM     20  C   UNL     1       0.699  12.008  19.194  0.00  0.00    +0.000 C 
ATOM     21  C   UNL     1      -0.345  12.704  20.125  0.00  0.00    +0.000 C 
ATOM     22  O   UNL     1      -1.559  11.907  20.192  0.00  0.00    +0.000 OA
ATOM     23  C   UNL     1      -1.765  11.221  19.017  0.00  0.00    +0.000 A 
ATOM     24  C   UNL     1      -2.627  11.664  18.027  0.00  0.00    +0.000 A 
ATOM     25  C   UNL     1      -2.702  10.943  16.833  0.00  0.00    +0.000 A 
ATOM     26 CL   UNL     1      -3.519  11.619  15.476  0.00  0.00    +0.000 Cl
ATOM     27  C   UNL     1      -2.034   9.723  16.687  0.00  0.00    +0.000 A 
ATOM     28  C   UNL     1      -1.102   9.336  17.647  0.00  0.00    +0.000 A 
ATOM     29  C   UNL     1      -0.869  10.194  18.726  0.00  0.00    +0.000 A 
BRANCH  21  30
ATOM     30  C   UNL     1      -0.849  14.108  19.746  0.00  0.00    +0.000 C 
ATOM     31  F   UNL     1      -0.365  14.399  18.492  0.00  0.00    +0.000 F 
ENDBRANCH  21  30
BRANCH  21  32
ATOM     32  C   UNL     1       0.336  12.898  21.493  0.00  0.00    +0.000 C 
ATOM     33  F   UNL     1      -0.367  12.179  22.423  0.00  0.00    +0.000 F 
ENDBRANCH  21  32
ENDBRANCH   4  19
TORSDOF 4
ENDMDL
MODEL 7
REMARK VINA RESULT:      -7.7      3.019      4.367
REMARK  Name = 
REMARK  5 active torsions:
REMARK  status: ('A' for Active; 'I' for Inactive)
REMARK    1  A    between atoms: C_1  and  C_2
REMARK    2  A    between atoms: C_5  and  N_6
REMARK    3  A    between atoms: N_9  and  C_10
REMARK    4  A    between atoms: C_12  and  C_13
REMARK    5  A    between atoms: C_12  and  C_15
REMARK                            x       y       z     vdW  Elec       q    Type
REMARK                         _______ _______ _______ _____ _____    ______ ____
ROOT
ATOM      1  N   UNL     1       1.445   8.702  18.815  0.00  0.00    +0.000 N 
ATOM      2  C   UNL     1       2.406   8.867  17.850  0.00  0.00    +0.000 C 
ATOM      3  O   UNL     1       2.641   9.889  17.225  0.00  0.00    +0.000 OA
ATOM      4  N   UNL     1       3.118   7.718  17.590  0.00  0.00    +0.000 N 
ATOM      5  H   UNL     1       1.033   7.785  18.725  0.00  0.00    +0.000 HD
ATOM      6  H   UNL     1       3.810   7.840  16.858  0.00  0.00    +0.000 HD
ENDROOT
BRANCH   1  11
ATOM      7  C   UNL     1       0.723   9.177  24.143  0.00  0.00    +0.000 C 
ATOM      8  C   UNL     1       0.212   9.840  22.901  0.00  0.00    +0.000 A 
ATOM      9  C   UNL     1       0.701   9.477  21.641  0.00  0.00    +0.000 A 
ATOM     10  C   UNL     1       0.143  10.050  20.479  0.00  0.00    +0.000 A 
ATOM     11  C   UNL     1       0.499   9.696  19.148  0.00  0.00    +0.000 A 
ATOM     12  C   UNL     1      -0.211  10.229  18.060  0.00  0.00    +0.000 A 
ATOM     13  C   UNL     1      -1.198  11.152  18.275  0.00  0.00    +0.000 A 
ATOM     14  F   UNL     1      -1.850  11.670  17.230  0.00  0.00    +0.000 F 
ATOM     15  C   UNL     1      -1.565  11.544  19.553  0.00  0.00    +0.000 A 
ATOM     16  C   UNL     1      -0.908  10.986  20.655  0.00  0.00    +0.000 A 
ATOM     17  C   UNL     1      -1.302  11.299  21.951  0.00  0.00    +0.000 A 
ATOM     18  N   UNL     1      -0.776  10.748  23.065  0.00  0.00    +0.000 NA
ENDBRANCH   1  11
BRANCH   4  19
ATOM     19  C   UNL     1       3.269   6.580  18.476  0.00  0.00    +0.000 C 
ATOM     20  C   UNL     1       4.739   6.335  18.981  0.00  0.00    +0.000 C 
ATOM     21  C   UNL     1       5.683   6.029  17.774  0.00  0.00    +0.000 C 
ATOM     22  O   UNL     1       4.941   5.354  16.722  0.00  0.00    +0.000 OA
ATOM     23  C   UNL     1       3.926   4.586  17.248  0.00  0.00    +0.000 A 
ATOM     24  C   UNL     1       4.041   3.220  17.447  0.00  0.00    +0.000 A 
ATOM     25  C   UNL     1       2.988   2.544  18.068  0.00  0.00    +0.000 A 
ATOM     26 CL   UNL     1       3.213   0.923  18.604  0.00  0.00    +0.000 Cl
ATOM     27  C   UNL     1       1.785   3.195  18.355  0.00  0.00    +0.000 A 
ATOM     28  C   UNL     1       1.715   4.581  18.237  0.00  0.00    +0.000 A 
ATOM     29  C   UNL     1       2.863   5.271  17.834  0.00  0.00    +0.000 A 
BRANCH  21  30
ATOM     30  C   UNL     1       6.901   5.117  18.004  0.00  0.00    +0.000 C 
ATOM     31  F   UNL     1       7.230   4.549  16.796  0.00  0.00    +0.000 F 
ENDBRANCH  21  30
BRANCH  21  32
ATOM     32  C   UNL     1       6.290   7.373  17.329  0.00  0.00    +0.000 C 
ATOM     33  F   UNL     1       7.624   7.361  17.640  0.00  0.00    +0.000 F 
ENDBRANCH  21  32
ENDBRANCH   4  19
TORSDOF 4
ENDMDL
MODEL 8
REMARK VINA RESULT:      -7.5      4.025      8.414
REMARK  Name = 
REMARK  5 active torsions:
REMARK  status: ('A' for Active; 'I' for Inactive)
REMARK    1  A    between atoms: C_1  and  C_2
REMARK    2  A    between atoms: C_5  and  N_6
REMARK    3  A    between atoms: N_9  and  C_10
REMARK    4  A    between atoms: C_12  and  C_13
REMARK    5  A    between atoms: C_12  and  C_15
REMARK                            x       y       z     vdW  Elec       q    Type
REMARK                         _______ _______ _______ _____ _____    ______ ____
ROOT
ATOM      1  N   UNL     1       1.833   8.138  18.745  0.00  0.00    +0.000 N 
ATOM      2  C   UNL     1       1.739   9.370  18.150  0.00  0.00    +0.000 C 
ATOM      3  O   UNL     1       2.314   9.734  17.136  0.00  0.00    +0.000 OA
ATOM      4  N   UNL     1       0.924  10.243  18.835  0.00  0.00    +0.000 N 
ATOM      5  H   UNL     1       1.832   8.248  19.748  0.00  0.00    +0.000 HD
ATOM      6  H   UNL     1       0.878  11.161  18.403  0.00  0.00    +0.000 HD
ENDROOT
BRANCH   1  11
ATOM      7  C   UNL     1       1.216   3.512  21.457  0.00  0.00    +0.000 C 
ATOM      8  C   UNL     1       2.059   4.021  20.329  0.00  0.00    +0.000 A 
ATOM      9  C   UNL     1       1.884   5.317  19.829  0.00  0.00    +0.000 A 
ATOM     10  C   UNL     1       2.748   5.806  18.827  0.00  0.00    +0.000 A 
ATOM     11  C   UNL     1       2.719   7.129  18.307  0.00  0.00    +0.000 A 
ATOM     12  C   UNL     1       3.709   7.557  17.408  0.00  0.00    +0.000 A 
ATOM     13  C   UNL     1       4.660   6.677  16.970  0.00  0.00    +0.000 A 
ATOM     14  F   UNL     1       5.583   7.090  16.095  0.00  0.00    +0.000 F 
ATOM     15  C   UNL     1       4.716   5.372  17.432  0.00  0.00    +0.000 A 
ATOM     16  C   UNL     1       3.772   4.937  18.369  0.00  0.00    +0.000 A 
ATOM     17  C   UNL     1       3.844   3.659  18.912  0.00  0.00    +0.000 A 
ATOM     18  N   UNL     1       3.024   3.189  19.875  0.00  0.00    +0.000 NA
ENDBRANCH   1  11
BRANCH   4  19
ATOM     19  C   UNL     1      -0.124   9.887  19.771  0.00  0.00    +0.000 C 
ATOM     20  C   UNL     1      -1.536   9.653  19.115  0.00  0.00    +0.000 C 
ATOM     21  C   UNL     1      -2.040  10.965  18.431  0.00  0.00    +0.000 C 
ATOM     22  O   UNL     1      -1.532  12.124  19.147  0.00  0.00    +0.000 OA
ATOM     23  C   UNL     1      -1.374  11.847  20.486  0.00  0.00    +0.000 A 
ATOM     24  C   UNL     1      -2.307  12.206  21.445  0.00  0.00    +0.000 A 
ATOM     25  C   UNL     1      -2.097  11.804  22.766  0.00  0.00    +0.000 A 
ATOM     26 CL   UNL     1      -3.367  11.962  23.919  0.00  0.00    +0.000 Cl
ATOM     27  C   UNL     1      -0.907  11.178  23.146  0.00  0.00    +0.000 A 
ATOM     28  C   UNL     1      -0.021  10.741  22.163  0.00  0.00    +0.000 A 
ATOM     29  C   UNL     1      -0.365  10.947  20.824  0.00  0.00    +0.000 A 
BRANCH  21  30
ATOM     30  C   UNL     1      -3.556  11.218  18.354  0.00  0.00    +0.000 C 
ATOM     31  F   UNL     1      -4.154  10.046  17.954  0.00  0.00    +0.000 F 
ENDBRANCH  21  30
BRANCH  21  32
ATOM     32  C   UNL     1      -1.587  10.905  16.961  0.00  0.00    +0.000 C 
ATOM     33  F   UNL     1      -1.574   9.592  16.573  0.00  0.00    +0.000 F 
ENDBRANCH  21  32
ENDBRANCH   4  19
TORSDOF 4
ENDMDL
MODEL 9
REMARK VINA RESULT:      -7.5      3.441      8.357
REMARK  Name = 
REMARK  5 active torsions:
REMARK  status: ('A' for Active; 'I' for Inactive)
REMARK    1  A    between atoms: C_1  and  C_2
REMARK    2  A    between atoms: C_5  and  N_6
REMARK    3  A    between atoms: N_9  and  C_10
REMARK    4  A    between atoms: C_12  and  C_13
REMARK    5  A    between atoms: C_12  and  C_15
REMARK                            x       y       z     vdW  Elec       q    Type
REMARK                         _______ _______ _______ _____ _____    ______ ____
ROOT
ATOM      1  N   UNL     1       1.848   8.100  18.246  0.00  0.00    +0.000 N 
ATOM      2  C   UNL     1       1.632   8.555  19.522  0.00  0.00    +0.000 C 
ATOM      3  O   UNL     1       2.281   8.268  20.516  0.00  0.00    +0.000 OA
ATOM      4  N   UNL     1       0.542   9.390  19.625  0.00  0.00    +0.000 N 
ATOM      5  H   UNL     1       0.962   7.937  17.794  0.00  0.00    +0.000 HD
ATOM      6  H   UNL     1       0.373   9.703  20.575  0.00  0.00    +0.000 HD
ENDROOT
BRANCH   1  11
ATOM      7  C   UNL     1       0.625   3.230  20.223  0.00  0.00    +0.000 C 
ATOM      8  C   UNL     1       1.709   3.836  19.386  0.00  0.00    +0.000 A 
ATOM      9  C   UNL     1       1.651   5.181  19.002  0.00  0.00    +0.000 A 
ATOM     10  C   UNL     1       2.726   5.754  18.290  0.00  0.00    +0.000 A 
ATOM     11  C   UNL     1       2.816   7.125  17.922  0.00  0.00    +0.000 A 
ATOM     12  C   UNL     1       3.989   7.623  17.333  0.00  0.00    +0.000 A 
ATOM     13  C   UNL     1       5.020   6.774  17.039  0.00  0.00    +0.000 A 
ATOM     14  F   UNL     1       6.122   7.256  16.456  0.00  0.00    +0.000 F 
ATOM     15  C   UNL     1       4.970   5.426  17.358  0.00  0.00    +0.000 A 
ATOM     16  C   UNL     1       3.833   4.916  17.995  0.00  0.00    +0.000 A 
ATOM     17  C   UNL     1       3.779   3.587  18.398  0.00  0.00    +0.000 A 
ATOM     18  N   UNL     1       2.756   3.036  19.085  0.00  0.00    +0.000 NA
ENDBRANCH   1  11
BRANCH   4  19
ATOM     19  C   UNL     1      -0.064  10.148  18.549  0.00  0.00    +0.000 C 
ATOM     20  C   UNL     1       0.325  11.672  18.522  0.00  0.00    +0.000 C 
ATOM     21  C   UNL     1      -0.158  12.379  19.830  0.00  0.00    +0.000 C 
ATOM     22  O   UNL     1      -1.369  11.741  20.320  0.00  0.00    +0.000 OA
ATOM     23  C   UNL     1      -2.115  11.233  19.280  0.00  0.00    +0.000 A 
ATOM     24  C   UNL     1      -3.202  11.898  18.738  0.00  0.00    +0.000 A 
ATOM     25  C   UNL     1      -3.842  11.341  17.628  0.00  0.00    +0.000 A 
ATOM     26 CL   UNL     1      -4.989  12.274  16.746  0.00  0.00    +0.000 Cl
ATOM     27  C   UNL     1      -3.490  10.073  17.157  0.00  0.00    +0.000 A 
ATOM     28  C   UNL     1      -2.340   9.458  17.648  0.00  0.00    +0.000 A 
ATOM     29  C   UNL     1      -1.577  10.143  18.598  0.00  0.00    +0.000 A 
BRANCH  21  30
ATOM     30  C   UNL     1      -0.530  13.871  19.766  0.00  0.00    +0.000 C 
ATOM     31  F   UNL     1      -0.504  14.250  18.444  0.00  0.00    +0.000 F 
ENDBRANCH  21  30
BRANCH  21  32
ATOM     32  C   UNL     1       1.013  12.319  20.829  0.00  0.00    +0.000 C 
ATOM     33  F   UNL     1       2.119  12.849  20.219  0.00  0.00    +0.000 F 
ENDBRANCH  21  32
ENDBRANCH   4  19
TORSDOF 4
ENDMDL
