MODEL 1
REMARK VINA RESULT:      -7.4      0.000      0.000
REMARK  Name = 
REMARK  8 active torsions:
REMARK  status: ('A' for Active; 'I' for Inactive)
REMARK    1  A    between atoms: C_1  and  O_2
REMARK    2  A    between atoms: O_2  and  C_3
REMARK    3  A    between atoms: C_11  and  O_12
REMARK    4  A    between atoms: O_12  and  C_13
REMARK    5  A    between atoms: C_14  and  O_15
REMARK    6  A    between atoms: O_15  and  C_16
REMARK    7  A    between atoms: C_20  and  O_21
REMARK    8  A    between atoms: O_21  and  C_22
REMARK                            x       y       z     vdW  Elec       q    Type
REMARK                         _______ _______ _______ _____ _____    ______ ____
ROOT
ATOM      1  C   UNL     1       1.088   9.357  19.401  0.00  0.00    +0.000 A 
ATOM      2  C   UNL     1       1.945   9.176  18.293  0.00  0.00    +0.000 A 
ATOM      3  C   UNL     1       2.741   8.016  18.172  0.00  0.00    +0.000 A 
ATOM      4  C   UNL     1       3.598   7.896  17.075  0.00  0.00    +0.000 A 
ATOM      5  C   UNL     1       4.359   6.747  16.888  0.00  0.00    +0.000 A 
ATOM      6  C   UNL     1       4.269   5.670  17.796  0.00  0.00    +0.000 A 
ATOM      7  C   UNL     1       5.062   4.521  17.557  0.00  0.00    +0.000 A 
ATOM      8  C   UNL     1       4.965   3.421  18.394  0.00  0.00    +0.000 A 
ATOM      9  C   UNL     1       4.092   3.415  19.486  0.00  0.00    +0.000 A 
ATOM     10  C   UNL     1       3.319   4.571  19.779  0.00  0.00    +0.000 A 
ATOM     11  C   UNL     1       3.407   5.741  18.933  0.00  0.00    +0.000 A 
ATOM     12  C   UNL     1       2.660   6.970  19.137  0.00  0.00    +0.000 A 
ATOM     13  C   UNL     1       1.834   7.222  20.262  0.00  0.00    +0.000 A 
ATOM     14  C   UNL     1       1.072   8.376  20.410  0.00  0.00    +0.000 A 
ATOM     15  C   UNL     1       6.057   4.474  16.415  0.00  0.00    +0.000 C 
ATOM     16  C   UNL     1       5.558   5.324  15.260  0.00  0.00    +0.000 C 
ATOM     17  N   UNL     1       5.203   6.637  15.745  0.00  0.00    +0.000 N 
ATOM     18  H   UNL     1       5.485   7.472  15.209  0.00  0.00    +0.000 HD
ENDROOT
BRANCH   1  20
ATOM     19  C   UNL     1      -0.781  10.785  18.707  0.00  0.00    +0.000 C 
ATOM     20  O   UNL     1       0.280  10.442  19.521  0.00  0.00    +0.000 OA
ENDBRANCH   1  20
BRANCH   9  21
ATOM     21  O   UNL     1       3.982   2.306  20.267  0.00  0.00    +0.000 OA
ATOM     22  C   UNL     1       5.017   1.558  20.790  0.00  0.00    +0.000 C 
ENDBRANCH   9  21
BRANCH  10  23
ATOM     23  O   UNL     1       2.457   4.574  20.832  0.00  0.00    +0.000 OA
ATOM     24  C   UNL     1       1.446   3.702  21.178  0.00  0.00    +0.000 C 
ENDBRANCH  10  23
BRANCH  14  25
ATOM     25  O   UNL     1       0.324   8.453  21.544  0.00  0.00    +0.000 OA
ATOM     26  C   UNL     1       0.508   9.258  22.648  0.00  0.00    +0.000 C 
ENDBRANCH  14  25
TORSDOF 4
ENDMDL
MODEL 2
REMARK VINA RESULT:      -6.9      2.851      6.212
REMARK  Name = 
REMARK  8 active torsions:
REMARK  status: ('A' for Active; 'I' for Inactive)
REMARK    1  A    between atoms: C_1  and  O_2
REMARK    2  A    between atoms: O_2  and  C_3
REMARK    3  A    between atoms: C_11  and  O_12
REMARK    4  A    between atoms: O_12  and  C_13
REMARK    5  A    between atoms: C_14  and  O_15
REMARK    6  A    between atoms: O_15  and  C_16
REMARK    7  A    between atoms: C_20  and  O_21
REMARK    8  A    between atoms: O_21  and  C_22
REMARK                            x       y       z     vdW  Elec       q    Type
REMARK                         _______ _______ _______ _____ _____    ______ ____
ROOT
ATOM      1  C   UNL     1       6.508   5.232  16.041  0.00  0.00    +0.000 A 
ATOM      2  C   UNL     1       5.763   4.068  16.329  0.00  0.00    +0.000 A 
ATOM      3  C   UNL     1       4.696   4.098  17.255  0.00  0.00    +0.000 A 
ATOM      4  C   UNL     1       4.008   2.914  17.533  0.00  0.00    +0.000 A 
ATOM      5  C   UNL     1       2.917   2.911  18.395  0.00  0.00    +0.000 A 
ATOM      6  C   UNL     1       2.472   4.109  18.997  0.00  0.00    +0.000 A 
ATOM      7  C   UNL     1       1.354   4.050  19.864  0.00  0.00    +0.000 A 
ATOM      8  C   UNL     1       0.852   5.210  20.433  0.00  0.00    +0.000 A 
ATOM      9  C   UNL     1       1.431   6.456  20.171  0.00  0.00    +0.000 A 
ATOM     10  C   UNL     1       2.583   6.539  19.343  0.00  0.00    +0.000 A 
ATOM     11  C   UNL     1       3.139   5.346  18.745  0.00  0.00    +0.000 A 
ATOM     12  C   UNL     1       4.308   5.319  17.881  0.00  0.00    +0.000 A 
ATOM     13  C   UNL     1       5.121   6.447  17.607  0.00  0.00    +0.000 A 
ATOM     14  C   UNL     1       6.197   6.421  16.725  0.00  0.00    +0.000 A 
ATOM     15  C   UNL     1       0.702   2.730  20.222  0.00  0.00    +0.000 C 
ATOM     16  C   UNL     1       0.835   1.757  19.063  0.00  0.00    +0.000 C 
ATOM     17  N   UNL     1       2.214   1.696  18.639  0.00  0.00    +0.000 N 
ATOM     18  H   UNL     1       2.643   0.782  18.431  0.00  0.00    +0.000 HD
ENDROOT
BRANCH   1  20
ATOM     19  C   UNL     1       7.418   4.917  13.785  0.00  0.00    +0.000 C 
ATOM     20  O   UNL     1       7.511   5.239  15.124  0.00  0.00    +0.000 OA
ENDBRANCH   1  20
BRANCH   9  21
ATOM     21  O   UNL     1       0.892   7.585  20.706  0.00  0.00    +0.000 OA
ATOM     22  C   UNL     1       1.427   8.356  21.718  0.00  0.00    +0.000 C 
ENDBRANCH   9  21
BRANCH  10  23
ATOM     23  O   UNL     1       3.148   7.747  19.071  0.00  0.00    +0.000 OA
ATOM     24  C   UNL     1       2.764   8.755  18.211  0.00  0.00    +0.000 C 
ENDBRANCH  10  23
BRANCH  14  25
ATOM     25  O   UNL     1       6.865   7.595  16.569  0.00  0.00    +0.000 OA
ATOM     26  C   UNL     1       7.681   8.252  17.466  0.00  0.00    +0.000 C 
ENDBRANCH  14  25
TORSDOF 4
ENDMDL
MODEL 3
REMARK VINA RESULT:      -6.7      2.307      4.070
REMARK  Name = 
REMARK  8 active torsions:
REMARK  status: ('A' for Active; 'I' for Inactive)
REMARK    1  A    between atoms: C_1  and  O_2
REMARK    2  A    between atoms: O_2  and  C_3
REMARK    3  A    between atoms: C_11  and  O_12
REMARK    4  A    between atoms: O_12  and  C_13
REMARK    5  A    between atoms: C_14  and  O_15
REMARK    6  A    between atoms: O_15  and  C_16
REMARK    7  A    between atoms: C_20  and  O_21
REMARK    8  A    between atoms: O_21  and  C_22
REMARK                            x       y       z     vdW  Elec       q    Type
REMARK                         _______ _______ _______ _____ _____    ______ ____
ROOT
ATOM      1  C   UNL     1       1.218   9.518  19.743  0.00  0.00    +0.000 A 
ATOM      2  C   UNL     1       1.063   8.356  20.531  0.00  0.00    +0.000 A 
ATOM      3  C   UNL     1       1.640   7.129  20.137  0.00  0.00    +0.000 A 
ATOM      4  C   UNL     1       1.433   5.998  20.932  0.00  0.00    +0.000 A 
ATOM      5  C   UNL     1       2.028   4.783  20.610  0.00  0.00    +0.000 A 
ATOM      6  C   UNL     1       2.867   4.670  19.479  0.00  0.00    +0.000 A 
ATOM      7  C   UNL     1       3.450   3.410  19.199  0.00  0.00    +0.000 A 
ATOM      8  C   UNL     1       4.321   3.269  18.131  0.00  0.00    +0.000 A 
ATOM      9  C   UNL     1       4.643   4.353  17.309  0.00  0.00    +0.000 A 
ATOM     10  C   UNL     1       4.036   5.617  17.537  0.00  0.00    +0.000 A 
ATOM     11  C   UNL     1       3.112   5.795  18.635  0.00  0.00    +0.000 A 
ATOM     12  C   UNL     1       2.441   7.042  18.960  0.00  0.00    +0.000 A 
ATOM     13  C   UNL     1       2.518   8.217  18.170  0.00  0.00    +0.000 A 
ATOM     14  C   UNL     1       1.925   9.423  18.529  0.00  0.00    +0.000 A 
ATOM     15  C   UNL     1       3.116   2.185  20.025  0.00  0.00    +0.000 C 
ATOM     16  C   UNL     1       2.807   2.594  21.455  0.00  0.00    +0.000 C 
ATOM     17  N   UNL     1       1.825   3.653  21.453  0.00  0.00    +0.000 N 
ATOM     18  H   UNL     1       1.042   3.622  22.124  0.00  0.00    +0.000 HD
ENDROOT
BRANCH   1  20
ATOM     19  C   UNL     1      -0.619  11.088  20.158  0.00  0.00    +0.000 C 
ATOM     20  O   UNL     1       0.711  10.720  20.120  0.00  0.00    +0.000 OA
ENDBRANCH   1  20
BRANCH   9  21
ATOM     21  O   UNL     1       5.536   4.199  16.294  0.00  0.00    +0.000 OA
ATOM     22  C   UNL     1       6.909   4.321  16.376  0.00  0.00    +0.000 C 
ENDBRANCH   9  21
BRANCH  10  23
ATOM     23  O   UNL     1       4.350   6.683  16.751  0.00  0.00    +0.000 OA
ATOM     24  C   UNL     1       5.474   7.483  16.714  0.00  0.00    +0.000 C 
ENDBRANCH  10  23
BRANCH  14  25
ATOM     25  O   UNL     1       2.106  10.455  17.664  0.00  0.00    +0.000 OA
ATOM     26  C   UNL     1       2.536  11.739  17.927  0.00  0.00    +0.000 C 
ENDBRANCH  14  25
TORSDOF 4
ENDMDL
MODEL 4
REMARK VINA RESULT:      -6.2      7.018     10.048
REMARK  Name = 
REMARK  8 active torsions:
REMARK  status: ('A' for Active; 'I' for Inactive)
REMARK    1  A    between atoms: C_1  and  O_2
REMARK    2  A    between atoms: O_2  and  C_3
REMARK    3  A    between atoms: C_11  and  O_12
REMARK    4  A    between atoms: O_12  and  C_13
REMARK    5  A    between atoms: C_14  and  O_15
REMARK    6  A    between atoms: O_15  and  C_16
REMARK    7  A    between atoms: C_20  and  O_21
REMARK    8  A    between atoms: O_21  and  C_22
REMARK                            x       y       z     vdW  Elec       q    Type
REMARK                         _______ _______ _______ _____ _____    ______ ____
ROOT
ATOM      1  C   UNL     1      -1.424  13.762  23.057  0.00  0.00    +0.000 A 
ATOM      2  C   UNL     1      -2.825  13.645  22.922  0.00  0.00    +0.000 A 
ATOM      3  C   UNL     1      -3.403  13.177  21.721  0.00  0.00    +0.000 A 
ATOM      4  C   UNL     1      -4.795  13.109  21.623  0.00  0.00    +0.000 A 
ATOM      5  C   UNL     1      -5.404  12.603  20.479  0.00  0.00    +0.000 A 
ATOM      6  C   UNL     1      -4.626  12.133  19.398  0.00  0.00    +0.000 A 
ATOM      7  C   UNL     1      -5.296  11.623  18.259  0.00  0.00    +0.000 A 
ATOM      8  C   UNL     1      -4.571  11.103  17.199  0.00  0.00    +0.000 A 
ATOM      9  C   UNL     1      -3.173  11.069  17.224  0.00  0.00    +0.000 A 
ATOM     10  C   UNL     1      -2.473  11.616  18.333  0.00  0.00    +0.000 A 
ATOM     11  C   UNL     1      -3.199  12.179  19.449  0.00  0.00    +0.000 A 
ATOM     12  C   UNL     1      -2.584  12.758  20.632  0.00  0.00    +0.000 A 
ATOM     13  C   UNL     1      -1.189  12.950  20.790  0.00  0.00    +0.000 A 
ATOM     14  C   UNL     1      -0.610  13.444  21.954  0.00  0.00    +0.000 A 
ATOM     15  C   UNL     1      -6.806  11.665  18.149  0.00  0.00    +0.000 C 
ATOM     16  C   UNL     1      -7.429  11.549  19.530  0.00  0.00    +0.000 C 
ATOM     17  N   UNL     1      -6.825  12.516  20.415  0.00  0.00    +0.000 N 
ATOM     18  H   UNL     1      -7.421  13.064  21.053  0.00  0.00    +0.000 HD
ENDROOT
BRANCH   1  20
ATOM     19  C   UNL     1      -1.133  15.305  24.940  0.00  0.00    +0.000 C 
ATOM     20  O   UNL     1      -0.841  14.168  24.214  0.00  0.00    +0.000 OA
ENDBRANCH   1  20
BRANCH   9  21
ATOM     21  O   UNL     1      -2.485  10.512  16.190  0.00  0.00    +0.000 OA
ATOM     22  C   UNL     1      -2.924  10.368  14.889  0.00  0.00    +0.000 C 
ENDBRANCH   9  21
BRANCH  10  23
ATOM     23  O   UNL     1      -1.113  11.578  18.374  0.00  0.00    +0.000 OA
ATOM     24  C   UNL     1      -0.238  10.516  18.476  0.00  0.00    +0.000 C 
ENDBRANCH  10  23
BRANCH  14  25
ATOM     25  O   UNL     1       0.745  13.555  21.943  0.00  0.00    +0.000 OA
ATOM     26  C   UNL     1       1.521  14.649  21.624  0.00  0.00    +0.000 C 
ENDBRANCH  14  25
TORSDOF 4
ENDMDL
MODEL 5
REMARK VINA RESULT:      -6.1      6.385      9.023
REMARK  Name = 
REMARK  8 active torsions:
REMARK  status: ('A' for Active; 'I' for Inactive)
REMARK    1  A    between atoms: C_1  and  O_2
REMARK    2  A    between atoms: O_2  and  C_3
REMARK    3  A    between atoms: C_11  and  O_12
REMARK    4  A    between atoms: O_12  and  C_13
REMARK    5  A    between atoms: C_14  and  O_15
REMARK    6  A    between atoms: O_15  and  C_16
REMARK    7  A    between atoms: C_20  and  O_21
REMARK    8  A    between atoms: O_21  and  C_22
REMARK                            x       y       z     vdW  Elec       q    Type
REMARK                         _______ _______ _______ _____ _____    ______ ____
ROOT
ATOM      1  C   UNL     1      -3.927  13.882  22.646  0.00  0.00    +0.000 A 
ATOM      2  C   UNL     1      -2.640  13.316  22.511  0.00  0.00    +0.000 A 
ATOM      3  C   UNL     1      -2.301  12.542  21.379  0.00  0.00    +0.000 A 
ATOM      4  C   UNL     1      -1.026  11.976  21.305  0.00  0.00    +0.000 A 
ATOM      5  C   UNL     1      -0.632  11.252  20.184  0.00  0.00    +0.000 A 
ATOM      6  C   UNL     1      -1.510  11.088  19.090  0.00  0.00    +0.000 A 
ATOM      7  C   UNL     1      -1.058  10.346  17.972  0.00  0.00    +0.000 A 
ATOM      8  C   UNL     1      -1.867  10.205  16.856  0.00  0.00    +0.000 A 
ATOM      9  C   UNL     1      -3.139  10.784  16.804  0.00  0.00    +0.000 A 
ATOM     10  C   UNL     1      -3.638  11.494  17.929  0.00  0.00    +0.000 A 
ATOM     11  C   UNL     1      -2.824  11.647  19.115  0.00  0.00    +0.000 A 
ATOM     12  C   UNL     1      -3.233  12.356  20.316  0.00  0.00    +0.000 A 
ATOM     13  C   UNL     1      -4.530  12.890  20.522  0.00  0.00    +0.000 A 
ATOM     14  C   UNL     1      -4.887  13.624  21.649  0.00  0.00    +0.000 A 
ATOM     15  C   UNL     1       0.292   9.659  17.975  0.00  0.00    +0.000 C 
ATOM     16  C   UNL     1       1.271  10.447  18.827  0.00  0.00    +0.000 C 
ATOM     17  N   UNL     1       0.683  10.710  20.120  0.00  0.00    +0.000 N 
ATOM     18  H   UNL     1       1.252  10.590  20.972  0.00  0.00    +0.000 HD
ENDROOT
BRANCH   1  20
ATOM     19  C   UNL     1      -3.446  15.064  24.739  0.00  0.00    +0.000 C 
ATOM     20  O   UNL     1      -4.265  14.665  23.702  0.00  0.00    +0.000 OA
ENDBRANCH   1  20
BRANCH   9  21
ATOM     21  O   UNL     1      -3.896  10.670  15.680  0.00  0.00    +0.000 OA
ATOM     22  C   UNL     1      -3.499  10.148  14.465  0.00  0.00    +0.000 C 
ENDBRANCH   9  21
BRANCH  10  23
ATOM     23  O   UNL     1      -4.869  12.073  17.887  0.00  0.00    +0.000 OA
ATOM     24  C   UNL     1      -6.129  11.518  17.798  0.00  0.00    +0.000 C 
ENDBRANCH  10  23
BRANCH  14  25
ATOM     25  O   UNL     1      -6.169  14.074  21.683  0.00  0.00    +0.000 OA
ATOM     26  C   UNL     1      -7.329  13.362  21.907  0.00  0.00    +0.000 C 
ENDBRANCH  14  25
TORSDOF 4
ENDMDL
MODEL 6
REMARK VINA RESULT:      -6.0      6.541     11.621
REMARK  Name = 
REMARK  8 active torsions:
REMARK  status: ('A' for Active; 'I' for Inactive)
REMARK    1  A    between atoms: C_1  and  O_2
REMARK    2  A    between atoms: O_2  and  C_3
REMARK    3  A    between atoms: C_11  and  O_12
REMARK    4  A    between atoms: O_12  and  C_13
REMARK    5  A    between atoms: C_14  and  O_15
REMARK    6  A    between atoms: O_15  and  C_16
REMARK    7  A    between atoms: C_20  and  O_21
REMARK    8  A    between atoms: O_21  and  C_22
REMARK                            x       y       z     vdW  Elec       q    Type
REMARK                         _______ _______ _______ _____ _____    ______ ____
ROOT
ATOM      1  C   UNL     1      -0.653  11.528  21.698  0.00  0.00    +0.000 A 
ATOM      2  C   UNL     1      -1.556  11.859  22.733  0.00  0.00    +0.000 A 
ATOM      3  C   UNL     1      -2.871  12.284  22.443  0.00  0.00    +0.000 A 
ATOM      4  C   UNL     1      -3.718  12.631  23.499  0.00  0.00    +0.000 A 
ATOM      5  C   UNL     1      -5.037  13.002  23.261  0.00  0.00    +0.000 A 
ATOM      6  C   UNL     1      -5.553  13.020  21.946  0.00  0.00    +0.000 A 
ATOM      7  C   UNL     1      -6.904  13.401  21.761  0.00  0.00    +0.000 A 
ATOM      8  C   UNL     1      -7.465  13.382  20.494  0.00  0.00    +0.000 A 
ATOM      9  C   UNL     1      -6.721  12.991  19.376  0.00  0.00    +0.000 A 
ATOM     10  C   UNL     1      -5.349  12.649  19.526  0.00  0.00    +0.000 A 
ATOM     11  C   UNL     1      -4.730  12.673  20.832  0.00  0.00    +0.000 A 
ATOM     12  C   UNL     1      -3.341  12.337  21.098  0.00  0.00    +0.000 A 
ATOM     13  C   UNL     1      -2.384  12.056  20.090  0.00  0.00    +0.000 A 
ATOM     14  C   UNL     1      -1.075  11.671  20.362  0.00  0.00    +0.000 A 
ATOM     15  C   UNL     1      -7.757  13.873  22.920  0.00  0.00    +0.000 C 
ATOM     16  C   UNL     1      -7.317  13.182  24.200  0.00  0.00    +0.000 C 
ATOM     17  N   UNL     1      -5.888  13.323  24.357  0.00  0.00    +0.000 N 
ATOM     18  H   UNL     1      -5.499  13.563  25.281  0.00  0.00    +0.000 HD
ENDROOT
BRANCH   1  20
ATOM     19  C   UNL     1       1.000   9.764  22.104  0.00  0.00    +0.000 C 
ATOM     20  O   UNL     1       0.602  11.077  21.950  0.00  0.00    +0.000 OA
ENDBRANCH   1  20
BRANCH   9  21
ATOM     21  O   UNL     1      -7.307  12.937  18.150  0.00  0.00    +0.000 OA
ATOM     22  C   UNL     1      -7.493  13.989  17.276  0.00  0.00    +0.000 C 
ENDBRANCH   9  21
BRANCH  10  23
ATOM     23  O   UNL     1      -4.618  12.256  18.448  0.00  0.00    +0.000 OA
ATOM     24  C   UNL     1      -4.662  11.102  17.693  0.00  0.00    +0.000 C 
ENDBRANCH  10  23
BRANCH  14  25
ATOM     25  O   UNL     1      -0.290  11.427  19.279  0.00  0.00    +0.000 OA
ATOM     26  C   UNL     1      -0.148  10.259  18.560  0.00  0.00    +0.000 C 
ENDBRANCH  14  25
TORSDOF 4
ENDMDL
MODEL 7
REMARK VINA RESULT:      -6.0      2.558      7.117
REMARK  Name = 
REMARK  8 active torsions:
REMARK  status: ('A' for Active; 'I' for Inactive)
REMARK    1  A    between atoms: C_1  and  O_2
REMARK    2  A    between atoms: O_2  and  C_3
REMARK    3  A    between atoms: C_11  and  O_12
REMARK    4  A    between atoms: O_12  and  C_13
REMARK    5  A    between atoms: C_14  and  O_15
REMARK    6  A    between atoms: O_15  and  C_16
REMARK    7  A    between atoms: C_20  and  O_21
REMARK    8  A    between atoms: O_21  and  C_22
REMARK                            x       y       z     vdW  Elec       q    Type
REMARK                         _______ _______ _______ _____ _____    ______ ____
ROOT
ATOM      1  C   UNL     1       2.679   6.600  18.979  0.00  0.00    +0.000 A 
ATOM      2  C   UNL     1       2.846   7.807  18.265  0.00  0.00    +0.000 A 
ATOM      3  C   UNL     1       2.200   8.993  18.680  0.00  0.00    +0.000 A 
ATOM      4  C   UNL     1       2.370  10.155  17.923  0.00  0.00    +0.000 A 
ATOM      5  C   UNL     1       1.797  11.357  18.327  0.00  0.00    +0.000 A 
ATOM      6  C   UNL     1       1.045  11.430  19.519  0.00  0.00    +0.000 A 
ATOM      7  C   UNL     1       0.487  12.679  19.886  0.00  0.00    +0.000 A 
ATOM      8  C   UNL     1      -0.213  12.807  21.075  0.00  0.00    +0.000 A 
ATOM      9  C   UNL     1      -0.388  11.718  21.935  0.00  0.00    +0.000 A 
ATOM     10  C   UNL     1       0.119  10.442  21.571  0.00  0.00    +0.000 A 
ATOM     11  C   UNL     1       0.843  10.272  20.330  0.00  0.00    +0.000 A 
ATOM     12  C   UNL     1       1.407   9.016  19.864  0.00  0.00    +0.000 A 
ATOM     13  C   UNL     1       1.218   7.770  20.514  0.00  0.00    +0.000 A 
ATOM     14  C   UNL     1       1.820   6.588  20.094  0.00  0.00    +0.000 A 
ATOM     15  C   UNL     1       0.605  13.891  18.984  0.00  0.00    +0.000 C 
ATOM     16  C   UNL     1       1.901  13.824  18.195  0.00  0.00    +0.000 C 
ATOM     17  N   UNL     1       2.009  12.534  17.553  0.00  0.00    +0.000 N 
ATOM     18  H   UNL     1       2.327  12.478  16.574  0.00  0.00    +0.000 HD
ENDROOT
BRANCH   1  20
ATOM     19  C   UNL     1       4.530   4.998  19.109  0.00  0.00    +0.000 C 
ATOM     20  O   UNL     1       3.321   5.457  18.626  0.00  0.00    +0.000 OA
ENDBRANCH   1  20
BRANCH   9  21
ATOM     21  O   UNL     1      -1.041  11.880  23.118  0.00  0.00    +0.000 OA
ATOM     22  C   UNL     1      -2.404  11.999  23.299  0.00  0.00    +0.000 C 
ENDBRANCH   9  21
BRANCH  10  23
ATOM     23  O   UNL     1      -0.034   9.378  22.404  0.00  0.00    +0.000 OA
ATOM     24  C   UNL     1       0.307   9.207  23.730  0.00  0.00    +0.000 C 
ENDBRANCH  10  23
BRANCH  14  25
ATOM     25  O   UNL     1       1.542   5.484  20.838  0.00  0.00    +0.000 OA
ATOM     26  C   UNL     1       0.984   4.288  20.436  0.00  0.00    +0.000 C 
ENDBRANCH  14  25
TORSDOF 4
ENDMDL
MODEL 8
REMARK VINA RESULT:      -5.9      5.263     10.254
REMARK  Name = 
REMARK  8 active torsions:
REMARK  status: ('A' for Active; 'I' for Inactive)
REMARK    1  A    between atoms: C_1  and  O_2
REMARK    2  A    between atoms: O_2  and  C_3
REMARK    3  A    between atoms: C_11  and  O_12
REMARK    4  A    between atoms: O_12  and  C_13
REMARK    5  A    between atoms: C_14  and  O_15
REMARK    6  A    between atoms: O_15  and  C_16
REMARK    7  A    between atoms: C_20  and  O_21
REMARK    8  A    between atoms: O_21  and  C_22
REMARK                            x       y       z     vdW  Elec       q    Type
REMARK                         _______ _______ _______ _____ _____    ______ ____
ROOT
ATOM      1  C   UNL     1      -0.040  10.696  18.633  0.00  0.00    +0.000 A 
ATOM      2  C   UNL     1      -1.148  10.806  17.764  0.00  0.00    +0.000 A 
ATOM      3  C   UNL     1      -2.398  11.264  18.235  0.00  0.00    +0.000 A 
ATOM      4  C   UNL     1      -3.474  11.325  17.345  0.00  0.00    +0.000 A 
ATOM      5  C   UNL     1      -4.708  11.822  17.753  0.00  0.00    +0.000 A 
ATOM      6  C   UNL     1      -4.894  12.291  19.072  0.00  0.00    +0.000 A 
ATOM      7  C   UNL     1      -6.168  12.791  19.434  0.00  0.00    +0.000 A 
ATOM      8  C   UNL     1      -6.379  13.310  20.701  0.00  0.00    +0.000 A 
ATOM      9  C   UNL     1      -5.350  13.352  21.648  0.00  0.00    +0.000 A 
ATOM     10  C   UNL     1      -4.074  12.814  21.329  0.00  0.00    +0.000 A 
ATOM     11  C   UNL     1      -3.826  12.253  20.020  0.00  0.00    +0.000 A 
ATOM     12  C   UNL     1      -2.560  11.683  19.588  0.00  0.00    +0.000 A 
ATOM     13  C   UNL     1      -1.440  11.498  20.437  0.00  0.00    +0.000 A 
ATOM     14  C   UNL     1      -0.214  11.014  19.994  0.00  0.00    +0.000 A 
ATOM     15  C   UNL     1      -7.337  12.741  18.471  0.00  0.00    +0.000 C 
ATOM     16  C   UNL     1      -6.836  12.861  17.043  0.00  0.00    +0.000 C 
ATOM     17  N   UNL     1      -5.780  11.901  16.819  0.00  0.00    +0.000 N 
ATOM     18  H   UNL     1      -5.768  11.352  15.946  0.00  0.00    +0.000 HD
ENDROOT
BRANCH   1  20
ATOM     19  C   UNL     1       1.579   9.015  17.883  0.00  0.00    +0.000 C 
ATOM     20  O   UNL     1       1.183  10.299  18.198  0.00  0.00    +0.000 OA
ENDBRANCH   1  20
BRANCH   9  21
ATOM     21  O   UNL     1      -5.570  13.907  22.871  0.00  0.00    +0.000 OA
ATOM     22  C   UNL     1      -6.408  13.428  23.857  0.00  0.00    +0.000 C 
ENDBRANCH   9  21
BRANCH  10  23
ATOM     23  O   UNL     1      -3.062  12.860  22.237  0.00  0.00    +0.000 OA
ATOM     24  C   UNL     1      -2.869  12.169  23.416  0.00  0.00    +0.000 C 
ENDBRANCH  10  23
BRANCH  14  25
ATOM     25  O   UNL     1       0.760  10.910  20.937  0.00  0.00    +0.000 OA
ATOM     26  C   UNL     1       1.010   9.873  21.811  0.00  0.00    +0.000 C 
ENDBRANCH  14  25
TORSDOF 4
ENDMDL
MODEL 9
REMARK VINA RESULT:      -5.8      6.030      8.705
REMARK  Name = 
REMARK  8 active torsions:
REMARK  status: ('A' for Active; 'I' for Inactive)
REMARK    1  A    between atoms: C_1  and  O_2
REMARK    2  A    between atoms: O_2  and  C_3
REMARK    3  A    between atoms: C_11  and  O_12
REMARK    4  A    between atoms: O_12  and  C_13
REMARK    5  A    between atoms: C_14  and  O_15
REMARK    6  A    between atoms: O_15  and  C_16
REMARK    7  A    between atoms: C_20  and  O_21
REMARK    8  A    between atoms: O_21  and  C_22
REMARK                            x       y       z     vdW  Elec       q    Type
REMARK                         _______ _______ _______ _____ _____    ______ ____
ROOT
ATOM      1  C   UNL     1      -3.556  10.612  16.012  0.00  0.00    +0.000 A 
ATOM      2  C   UNL     1      -2.376   9.989  16.473  0.00  0.00    +0.000 A 
ATOM      3  C   UNL     1      -1.836  10.302  17.740  0.00  0.00    +0.000 A 
ATOM      4  C   UNL     1      -0.649   9.683  18.140  0.00  0.00    +0.000 A 
ATOM      5  C   UNL     1      -0.112   9.921  19.401  0.00  0.00    +0.000 A 
ATOM      6  C   UNL     1      -0.766  10.782  20.310  0.00  0.00    +0.000 A 
ATOM      7  C   UNL     1      -0.179  10.986  21.582  0.00  0.00    +0.000 A 
ATOM      8  C   UNL     1      -0.814  11.780  22.523  0.00  0.00    +0.000 A 
ATOM      9  C   UNL     1      -2.038  12.396  22.245  0.00  0.00    +0.000 A 
ATOM     10  C   UNL     1      -2.627  12.248  20.960  0.00  0.00    +0.000 A 
ATOM     11  C   UNL     1      -1.983  11.437  19.951  0.00  0.00    +0.000 A 
ATOM     12  C   UNL     1      -2.499  11.215  18.611  0.00  0.00    +0.000 A 
ATOM     13  C   UNL     1      -3.645  11.861  18.083  0.00  0.00    +0.000 A 
ATOM     14  C   UNL     1      -4.167  11.588  16.822  0.00  0.00    +0.000 A 
ATOM     15  C   UNL     1       1.164  10.380  21.938  0.00  0.00    +0.000 C 
ATOM     16  C   UNL     1       1.348   9.064  21.202  0.00  0.00    +0.000 C 
ATOM     17  N   UNL     1       1.084   9.256  19.796  0.00  0.00    +0.000 N 
ATOM     18  H   UNL     1       1.713   8.831  19.097  0.00  0.00    +0.000 HD
ENDROOT
BRANCH   1  20
ATOM     19  C   UNL     1      -3.465   9.976  13.646  0.00  0.00    +0.000 C 
ATOM     20  O   UNL     1      -4.120  10.299  14.817  0.00  0.00    +0.000 OA
ENDBRANCH   1  20
BRANCH   9  21
ATOM     21  O   UNL     1      -2.664  13.134  23.201  0.00  0.00    +0.000 OA
ATOM     22  C   UNL     1      -2.159  14.242  23.852  0.00  0.00    +0.000 C 
ENDBRANCH   9  21
BRANCH  10  23
ATOM     23  O   UNL     1      -3.824  12.833  20.681  0.00  0.00    +0.000 OA
ATOM     24  C   UNL     1      -5.084  12.611  21.195  0.00  0.00    +0.000 C 
ENDBRANCH  10  23
BRANCH  14  25
ATOM     25  O   UNL     1      -5.279  12.288  16.475  0.00  0.00    +0.000 OA
ATOM     26  C   UNL     1      -6.361  12.636  17.257  0.00  0.00    +0.000 C 
ENDBRANCH  14  25
TORSDOF 4
ENDMDL
