MODEL 1
REMARK VINA RESULT:      -7.1      0.000      0.000
REMARK  Name = 
REMARK  4 active torsions:
REMARK  status: ('A' for Active; 'I' for Inactive)
REMARK    1  A    between atoms: C_2  and  C_3
REMARK    2  A    between atoms: C_6  and  S_7
REMARK    3  A    between atoms: S_7  and  N_10
REMARK    4  A    between atoms: N_18  and  C_27
REMARK                            x       y       z     vdW  Elec       q    Type
REMARK                         _______ _______ _______ _____ _____    ______ ____
ROOT
ATOM      1  O   UNL     1      -1.837  11.212  18.548  0.00  0.00    +0.000 OA
ATOM      2  C   UNL     1      -0.923  11.176  19.377  0.00  0.00    +0.000 C 
ATOM      3  N   UNL     1      -0.765  12.112  20.416  0.00  0.00    +0.000 N 
ATOM      4  C   UNL     1       0.465  12.655  20.873  0.00  0.00    +0.000 C 
ATOM      5  O   UNL     1       0.660  12.858  22.080  0.00  0.00    +0.000 OA
ATOM      6  N   UNL     1       1.517  12.887  19.981  0.00  0.00    +0.000 N 
ATOM      7  C   UNL     1       2.824  13.207  20.569  0.00  0.00    +0.000 C 
ATOM      8  C   UNL     1       3.502  14.362  19.840  0.00  0.00    +0.000 C 
ATOM      9  C   UNL     1       3.633  14.069  18.351  0.00  0.00    +0.000 C 
ATOM     10  C   UNL     1       2.270  13.753  17.759  0.00  0.00    +0.000 C 
ATOM     11  C   UNL     1       1.560  12.655  18.537  0.00  0.00    +0.000 C 
ENDROOT
BRANCH   2  12
ATOM     12  C   UNL     1       0.111  10.111  19.223  0.00  0.00    +0.000 A 
ATOM     13  C   UNL     1       0.541   9.400  20.358  0.00  0.00    +0.000 A 
ATOM     14  C   UNL     1       1.422   8.321  20.218  0.00  0.00    +0.000 A 
ATOM     15  C   UNL     1       1.912   8.002  18.947  0.00  0.00    +0.000 A 
ATOM     16  C   UNL     1       1.513   8.732  17.822  0.00  0.00    +0.000 A 
ATOM     17  C   UNL     1       0.612   9.787  17.960  0.00  0.00    +0.000 A 
BRANCH  15  18
ATOM     18  S   UNL     1       3.167   6.757  18.742  0.00  0.00    +0.000 S 
ATOM     19  O   UNL     1       3.988   7.200  17.636  0.00  0.00    +0.000 OA
ATOM     20  O   UNL     1       3.736   6.479  20.046  0.00  0.00    +0.000 OA
BRANCH  18  21
ATOM     21  N   UNL     1       2.284   5.384  18.251  0.00  0.00    +0.000 NA
ATOM     22  C   UNL     1       1.565   4.616  19.318  0.00  0.00    +0.000 C 
ATOM     23  C   UNL     1       2.509   3.632  20.033  0.00  0.00    +0.000 C 
ATOM     24  O   UNL     1       3.175   2.761  19.106  0.00  0.00    +0.000 OA
ATOM     25  C   UNL     1       3.925   3.509  18.136  0.00  0.00    +0.000 C 
ATOM     26  C   UNL     1       3.004   4.438  17.344  0.00  0.00    +0.000 C 
ENDBRANCH  18  21
ENDBRANCH  15  18
ENDBRANCH   2  12
BRANCH   3  27
ATOM     27  C   UNL     1      -1.917  12.269  21.312  0.00  0.00    +0.000 A 
ATOM     28  C   UNL     1      -1.916  11.693  22.598  0.00  0.00    +0.000 A 
ATOM     29  C   UNL     1      -2.927  11.985  23.527  0.00  0.00    +0.000 A 
ATOM     30  C   UNL     1      -3.978  12.827  23.180  0.00  0.00    +0.000 A 
ATOM     31  C   UNL     1      -4.041  13.352  21.893  0.00  0.00    +0.000 A 
ATOM     32  C   UNL     1      -3.023  13.069  20.968  0.00  0.00    +0.000 A 
ENDBRANCH   3  27
TORSDOF 4
ENDMDL
MODEL 2
REMARK VINA RESULT:      -6.7      4.315      7.585
REMARK  Name = 
REMARK  4 active torsions:
REMARK  status: ('A' for Active; 'I' for Inactive)
REMARK    1  A    between atoms: C_2  and  C_3
REMARK    2  A    between atoms: C_6  and  S_7
REMARK    3  A    between atoms: S_7  and  N_10
REMARK    4  A    between atoms: N_18  and  C_27
REMARK                            x       y       z     vdW  Elec       q    Type
REMARK                         _______ _______ _______ _____ _____    ______ ____
ROOT
ATOM      1  O   UNL     1       4.562  14.674  21.260  0.00  0.00    +0.000 OA
ATOM      2  C   UNL     1       3.962  14.803  20.189  0.00  0.00    +0.000 C 
ATOM      3  N   UNL     1       4.134  15.895  19.316  0.00  0.00    +0.000 N 
ATOM      4  C   UNL     1       3.108  16.551  18.586  0.00  0.00    +0.000 C 
ATOM      5  O   UNL     1       3.306  16.946  17.428  0.00  0.00    +0.000 OA
ATOM      6  N   UNL     1       1.824  16.685  19.123  0.00  0.00    +0.000 N 
ATOM      7  C   UNL     1       0.769  17.144  18.210  0.00  0.00    +0.000 C 
ATOM      8  C   UNL     1      -0.119  18.200  18.860  0.00  0.00    +0.000 C 
ATOM      9  C   UNL     1      -0.715  17.684  20.164  0.00  0.00    +0.000 C 
ATOM     10  C   UNL     1       0.391  17.226  21.100  0.00  0.00    +0.000 C 
ATOM     11  C   UNL     1       1.324  16.234  20.422  0.00  0.00    +0.000 C 
ENDROOT
BRANCH   2  12
ATOM     12  C   UNL     1       2.946  13.770  19.834  0.00  0.00    +0.000 A 
ATOM     13  C   UNL     1       2.878  13.296  18.512  0.00  0.00    +0.000 A 
ATOM     14  C   UNL     1       2.012  12.245  18.186  0.00  0.00    +0.000 A 
ATOM     15  C   UNL     1       1.176  11.720  19.178  0.00  0.00    +0.000 A 
ATOM     16  C   UNL     1       1.216  12.216  20.485  0.00  0.00    +0.000 A 
ATOM     17  C   UNL     1       2.101  13.242  20.814  0.00  0.00    +0.000 A 
BRANCH  15  18
ATOM     18  S   UNL     1      -0.064  10.508  18.773  0.00  0.00    +0.000 S 
ATOM     19  O   UNL     1       0.600   9.522  17.948  0.00  0.00    +0.000 OA
ATOM     20  O   UNL     1      -0.743  10.139  19.999  0.00  0.00    +0.000 OA
BRANCH  18  21
ATOM     21  N   UNL     1      -1.164  11.379  17.804  0.00  0.00    +0.000 NA
ATOM     22  C   UNL     1      -1.988  12.432  18.482  0.00  0.00    +0.000 C 
ATOM     23  C   UNL     1      -3.224  11.821  19.168  0.00  0.00    +0.000 C 
ATOM     24  O   UNL     1      -4.008  11.037  18.255  0.00  0.00    +0.000 OA
ATOM     25  C   UNL     1      -3.226   9.982  17.672  0.00  0.00    +0.000 C 
ATOM     26  C   UNL     1      -2.033  10.556  16.907  0.00  0.00    +0.000 C 
ENDBRANCH  18  21
ENDBRANCH  15  18
ENDBRANCH   2  12
BRANCH   3  27
ATOM     27  C   UNL     1       5.510  16.142  18.870  0.00  0.00    +0.000 A 
ATOM     28  C   UNL     1       6.208  17.294  19.283  0.00  0.00    +0.000 A 
ATOM     29  C   UNL     1       7.576  17.452  19.013  0.00  0.00    +0.000 A 
ATOM     30  C   UNL     1       8.267  16.482  18.295  0.00  0.00    +0.000 A 
ATOM     31  C   UNL     1       7.585  15.370  17.813  0.00  0.00    +0.000 A 
ATOM     32  C   UNL     1       6.219  15.206  18.093  0.00  0.00    +0.000 A 
ENDBRANCH   3  27
TORSDOF 4
ENDMDL
MODEL 3
REMARK VINA RESULT:      -6.5      4.552      8.629
REMARK  Name = 
REMARK  4 active torsions:
REMARK  status: ('A' for Active; 'I' for Inactive)
REMARK    1  A    between atoms: C_2  and  C_3
REMARK    2  A    between atoms: C_6  and  S_7
REMARK    3  A    between atoms: S_7  and  N_10
REMARK    4  A    between atoms: N_18  and  C_27
REMARK                            x       y       z     vdW  Elec       q    Type
REMARK                         _______ _______ _______ _____ _____    ______ ____
ROOT
ATOM      1  O   UNL     1      -0.031  16.501  18.583  0.00  0.00    +0.000 OA
ATOM      2  C   UNL     1       0.289  15.590  19.352  0.00  0.00    +0.000 C 
ATOM      3  N   UNL     1       1.397  14.744  19.153  0.00  0.00    +0.000 N 
ATOM      4  C   UNL     1       1.440  13.349  19.410  0.00  0.00    +0.000 C 
ATOM      5  O   UNL     1       2.456  12.822  19.887  0.00  0.00    +0.000 OA
ATOM      6  N   UNL     1       0.308  12.552  19.215  0.00  0.00    +0.000 N 
ATOM      7  C   UNL     1       0.364  11.182  19.740  0.00  0.00    +0.000 C 
ATOM      8  C   UNL     1      -0.195  10.173  18.743  0.00  0.00    +0.000 C 
ATOM      9  C   UNL     1      -1.616  10.540  18.332  0.00  0.00    +0.000 C 
ATOM     10  C   UNL     1      -1.652  11.955  17.780  0.00  0.00    +0.000 C 
ATOM     11  C   UNL     1      -1.019  12.949  18.742  0.00  0.00    +0.000 C 
ENDROOT
BRANCH   2  12
ATOM     12  C   UNL     1      -0.593  15.332  20.527  0.00  0.00    +0.000 A 
ATOM     13  C   UNL     1      -0.034  14.806  21.706  0.00  0.00    +0.000 A 
ATOM     14  C   UNL     1      -0.822  14.666  22.855  0.00  0.00    +0.000 A 
ATOM     15  C   UNL     1      -2.180  14.999  22.794  0.00  0.00    +0.000 A 
ATOM     16  C   UNL     1      -2.745  15.488  21.611  0.00  0.00    +0.000 A 
ATOM     17  C   UNL     1      -1.951  15.655  20.477  0.00  0.00    +0.000 A 
BRANCH  15  18
ATOM     18  S   UNL     1      -3.258  14.673  24.172  0.00  0.00    +0.000 S 
ATOM     19  O   UNL     1      -2.453  14.866  25.359  0.00  0.00    +0.000 OA
ATOM     20  O   UNL     1      -4.487  15.411  23.961  0.00  0.00    +0.000 OA
BRANCH  18  21
ATOM     21  N   UNL     1      -3.608  13.012  24.015  0.00  0.00    +0.000 NA
ATOM     22  C   UNL     1      -3.674  12.457  22.624  0.00  0.00    +0.000 C 
ATOM     23  C   UNL     1      -5.052  12.708  21.985  0.00  0.00    +0.000 C 
ATOM     24  O   UNL     1      -6.121  12.216  22.807  0.00  0.00    +0.000 OA
ATOM     25  C   UNL     1      -6.093  12.816  24.112  0.00  0.00    +0.000 C 
ATOM     26  C   UNL     1      -4.769  12.513  24.815  0.00  0.00    +0.000 C 
ENDBRANCH  18  21
ENDBRANCH  15  18
ENDBRANCH   2  12
BRANCH   3  27
ATOM     27  C   UNL     1       2.693  15.418  19.001  0.00  0.00    +0.000 A 
ATOM     28  C   UNL     1       3.191  16.263  20.012  0.00  0.00    +0.000 A 
ATOM     29  C   UNL     1       4.500  16.766  19.961  0.00  0.00    +0.000 A 
ATOM     30  C   UNL     1       5.326  16.467  18.883  0.00  0.00    +0.000 A 
ATOM     31  C   UNL     1       4.834  15.695  17.835  0.00  0.00    +0.000 A 
ATOM     32  C   UNL     1       3.528  15.182  17.893  0.00  0.00    +0.000 A 
ENDBRANCH   3  27
TORSDOF 4
ENDMDL
MODEL 4
REMARK VINA RESULT:      -6.4      8.252     10.888
REMARK  Name = 
REMARK  4 active torsions:
REMARK  status: ('A' for Active; 'I' for Inactive)
REMARK    1  A    between atoms: C_2  and  C_3
REMARK    2  A    between atoms: C_6  and  S_7
REMARK    3  A    between atoms: S_7  and  N_10
REMARK    4  A    between atoms: N_18  and  C_27
REMARK                            x       y       z     vdW  Elec       q    Type
REMARK                         _______ _______ _______ _____ _____    ______ ____
ROOT
ATOM      1  O   UNL     1      10.682  15.734  21.489  0.00  0.00    +0.000 OA
ATOM      2  C   UNL     1       9.648  15.100  21.260  0.00  0.00    +0.000 C 
ATOM      3  N   UNL     1       9.204  14.757  19.968  0.00  0.00    +0.000 N 
ATOM      4  C   UNL     1       7.859  14.776  19.514  0.00  0.00    +0.000 C 
ATOM      5  O   UNL     1       7.434  13.896  18.751  0.00  0.00    +0.000 OA
ATOM      6  N   UNL     1       6.960  15.736  19.987  0.00  0.00    +0.000 N 
ATOM      7  C   UNL     1       5.542  15.531  19.664  0.00  0.00    +0.000 C 
ATOM      8  C   UNL     1       4.874  16.826  19.213  0.00  0.00    +0.000 C 
ATOM      9  C   UNL     1       5.040  17.920  20.261  0.00  0.00    +0.000 C 
ATOM     10  C   UNL     1       6.513  18.126  20.573  0.00  0.00    +0.000 C 
ATOM     11  C   UNL     1       7.197  16.818  20.943  0.00  0.00    +0.000 C 
ENDROOT
BRANCH   2  12
ATOM     12  C   UNL     1       8.785  14.736  22.422  0.00  0.00    +0.000 A 
ATOM     13  C   UNL     1       8.244  13.440  22.498  0.00  0.00    +0.000 A 
ATOM     14  C   UNL     1       7.530  13.044  23.636  0.00  0.00    +0.000 A 
ATOM     15  C   UNL     1       7.313  13.971  24.661  0.00  0.00    +0.000 A 
ATOM     16  C   UNL     1       7.821  15.272  24.569  0.00  0.00    +0.000 A 
ATOM     17  C   UNL     1       8.557  15.655  23.449  0.00  0.00    +0.000 A 
BRANCH  15  18
ATOM     18  S   UNL     1       6.264  13.570  26.042  0.00  0.00    +0.000 S 
ATOM     19  O   UNL     1       6.777  14.330  27.162  0.00  0.00    +0.000 OA
ATOM     20  O   UNL     1       4.888  13.695  25.607  0.00  0.00    +0.000 OA
BRANCH  18  21
ATOM     21  N   UNL     1       6.583  11.918  26.313  0.00  0.00    +0.000 NA
ATOM     22  C   UNL     1       5.515  10.943  25.921  0.00  0.00    +0.000 C 
ATOM     23  C   UNL     1       4.442  10.816  27.019  0.00  0.00    +0.000 C 
ATOM     24  O   UNL     1       5.017  10.492  28.294  0.00  0.00    +0.000 OA
ATOM     25  C   UNL     1       5.983  11.477  28.694  0.00  0.00    +0.000 C 
ATOM     26  C   UNL     1       7.113  11.571  27.668  0.00  0.00    +0.000 C 
ENDBRANCH  18  21
ENDBRANCH  15  18
ENDBRANCH   2  12
BRANCH   3  27
ATOM     27  C   UNL     1      10.157  13.996  19.150  0.00  0.00    +0.000 A 
ATOM     28  C   UNL     1      10.600  12.722  19.554  0.00  0.00    +0.000 A 
ATOM     29  C   UNL     1      11.364  11.912  18.699  0.00  0.00    +0.000 A 
ATOM     30  C   UNL     1      11.732  12.371  17.440  0.00  0.00    +0.000 A 
ATOM     31  C   UNL     1      11.368  13.654  17.044  0.00  0.00    +0.000 A 
ATOM     32  C   UNL     1      10.594  14.459  17.895  0.00  0.00    +0.000 A 
ENDBRANCH   3  27
TORSDOF 4
ENDMDL
MODEL 5
REMARK VINA RESULT:      -6.4      4.522      7.380
REMARK  Name = 
REMARK  4 active torsions:
REMARK  status: ('A' for Active; 'I' for Inactive)
REMARK    1  A    between atoms: C_2  and  C_3
REMARK    2  A    between atoms: C_6  and  S_7
REMARK    3  A    between atoms: S_7  and  N_10
REMARK    4  A    between atoms: N_18  and  C_27
REMARK                            x       y       z     vdW  Elec       q    Type
REMARK                         _______ _______ _______ _____ _____    ______ ____
ROOT
ATOM      1  O   UNL     1       1.109  12.233  18.593  0.00  0.00    +0.000 OA
ATOM      2  C   UNL     1       1.352  12.966  19.557  0.00  0.00    +0.000 C 
ATOM      3  N   UNL     1       0.515  13.093  20.681  0.00  0.00    +0.000 N 
ATOM      4  C   UNL     1       0.228  14.295  21.378  0.00  0.00    +0.000 C 
ATOM      5  O   UNL     1       0.125  14.304  22.613  0.00  0.00    +0.000 OA
ATOM      6  N   UNL     1       0.144  15.513  20.696  0.00  0.00    +0.000 N 
ATOM      7  C   UNL     1       0.096  16.730  21.517  0.00  0.00    +0.000 C 
ATOM      8  C   UNL     1      -0.954  17.712  21.008  0.00  0.00    +0.000 C 
ATOM      9  C   UNL     1      -0.718  18.054  19.542  0.00  0.00    +0.000 C 
ATOM     10  C   UNL     1      -0.685  16.784  18.708  0.00  0.00    +0.000 C 
ATOM     11  C   UNL     1       0.305  15.772  19.265  0.00  0.00    +0.000 C 
ENDROOT
BRANCH   2  12
ATOM     12  C   UNL     1       2.578  13.815  19.490  0.00  0.00    +0.000 A 
ATOM     13  C   UNL     1       3.330  14.031  20.659  0.00  0.00    +0.000 A 
ATOM     14  C   UNL     1       4.543  14.727  20.594  0.00  0.00    +0.000 A 
ATOM     15  C   UNL     1       4.961  15.253  19.366  0.00  0.00    +0.000 A 
ATOM     16  C   UNL     1       4.195  15.070  18.211  0.00  0.00    +0.000 A 
ATOM     17  C   UNL     1       3.002  14.351  18.272  0.00  0.00    +0.000 A 
BRANCH  15  18
ATOM     18  S   UNL     1       6.402  16.294  19.267  0.00  0.00    +0.000 S 
ATOM     19  O   UNL     1       5.940  17.561  18.743  0.00  0.00    +0.000 OA
ATOM     20  O   UNL     1       7.103  16.206  20.533  0.00  0.00    +0.000 OA
BRANCH  18  21
ATOM     21  N   UNL     1       7.360  15.530  18.081  0.00  0.00    +0.000 NA
ATOM     22  C   UNL     1       7.607  14.061  18.244  0.00  0.00    +0.000 C 
ATOM     23  C   UNL     1       8.770  13.793  19.217  0.00  0.00    +0.000 C 
ATOM     24  O   UNL     1       9.962  14.495  18.831  0.00  0.00    +0.000 OA
ATOM     25  C   UNL     1       9.731  15.911  18.755  0.00  0.00    +0.000 C 
ATOM     26  C   UNL     1       8.638  16.223  17.732  0.00  0.00    +0.000 C 
ENDBRANCH  18  21
ENDBRANCH  15  18
ENDBRANCH   2  12
BRANCH   3  27
ATOM     27  C   UNL     1       0.198  11.842  21.383  0.00  0.00    +0.000 A 
ATOM     28  C   UNL     1       1.028  10.711  21.253  0.00  0.00    +0.000 A 
ATOM     29  C   UNL     1       0.840   9.575  22.055  0.00  0.00    +0.000 A 
ATOM     30  C   UNL     1      -0.201   9.530  22.976  0.00  0.00    +0.000 A 
ATOM     31  C   UNL     1      -1.078  10.605  23.074  0.00  0.00    +0.000 A 
ATOM     32  C   UNL     1      -0.882  11.746  22.280  0.00  0.00    +0.000 A 
ENDBRANCH   3  27
TORSDOF 4
ENDMDL
MODEL 6
REMARK VINA RESULT:      -6.4      2.182      4.048
REMARK  Name = 
REMARK  4 active torsions:
REMARK  status: ('A' for Active; 'I' for Inactive)
REMARK    1  A    between atoms: C_2  and  C_3
REMARK    2  A    between atoms: C_6  and  S_7
REMARK    3  A    between atoms: S_7  and  N_10
REMARK    4  A    between atoms: N_18  and  C_27
REMARK                            x       y       z     vdW  Elec       q    Type
REMARK                         _______ _______ _______ _____ _____    ______ ____
ROOT
ATOM      1  O   UNL     1      -0.248  10.997  22.052  0.00  0.00    +0.000 OA
ATOM      2  C   UNL     1       0.098  11.134  20.875  0.00  0.00    +0.000 C 
ATOM      3  N   UNL     1      -0.152  12.289  20.109  0.00  0.00    +0.000 N 
ATOM      4  C   UNL     1      -0.531  12.320  18.742  0.00  0.00    +0.000 C 
ATOM      5  O   UNL     1      -0.084  13.188  17.978  0.00  0.00    +0.000 OA
ATOM      6  N   UNL     1      -1.344  11.318  18.204  0.00  0.00    +0.000 N 
ATOM      7  C   UNL     1      -1.478  11.287  16.741  0.00  0.00    +0.000 C 
ATOM      8  C   UNL     1      -2.924  11.064  16.313  0.00  0.00    +0.000 C 
ATOM      9  C   UNL     1      -3.490   9.795  16.937  0.00  0.00    +0.000 C 
ATOM     10  C   UNL     1      -3.355   9.851  18.449  0.00  0.00    +0.000 C 
ATOM     11  C   UNL     1      -1.926  10.154  18.874  0.00  0.00    +0.000 C 
ENDROOT
BRANCH   2  12
ATOM     12  C   UNL     1       0.764   9.977  20.209  0.00  0.00    +0.000 A 
ATOM     13  C   UNL     1       1.376  10.162  18.956  0.00  0.00    +0.000 A 
ATOM     14  C   UNL     1       2.104   9.120  18.370  0.00  0.00    +0.000 A 
ATOM     15  C   UNL     1       2.162   7.881  19.018  0.00  0.00    +0.000 A 
ATOM     16  C   UNL     1       1.522   7.685  20.246  0.00  0.00    +0.000 A 
ATOM     17  C   UNL     1       0.822   8.733  20.843  0.00  0.00    +0.000 A 
BRANCH  15  18
ATOM     18  S   UNL     1       2.924   6.478  18.230  0.00  0.00    +0.000 S 
ATOM     19  O   UNL     1       1.837   5.609  17.831  0.00  0.00    +0.000 OA
ATOM     20  O   UNL     1       3.889   6.976  17.270  0.00  0.00    +0.000 OA
BRANCH  18  21
ATOM     21  N   UNL     1       3.781   5.730  19.500  0.00  0.00    +0.000 NA
ATOM     22  C   UNL     1       5.260   5.567  19.322  0.00  0.00    +0.000 C 
ATOM     23  C   UNL     1       5.590   4.313  18.491  0.00  0.00    +0.000 C 
ATOM     24  O   UNL     1       4.985   3.133  19.042  0.00  0.00    +0.000 OA
ATOM     25  C   UNL     1       3.559   3.273  19.133  0.00  0.00    +0.000 C 
ATOM     26  C   UNL     1       3.191   4.460  20.024  0.00  0.00    +0.000 C 
ENDBRANCH  18  21
ENDBRANCH  15  18
ENDBRANCH   2  12
BRANCH   3  27
ATOM     27  C   UNL     1       0.353  13.548  20.673  0.00  0.00    +0.000 A 
ATOM     28  C   UNL     1      -0.534  14.563  21.081  0.00  0.00    +0.000 A 
ATOM     29  C   UNL     1      -0.077  15.689  21.784  0.00  0.00    +0.000 A 
ATOM     30  C   UNL     1       1.277  15.842  22.062  0.00  0.00    +0.000 A 
ATOM     31  C   UNL     1       2.182  14.889  21.607  0.00  0.00    +0.000 A 
ATOM     32  C   UNL     1       1.723  13.757  20.914  0.00  0.00    +0.000 A 
ENDBRANCH   3  27
TORSDOF 4
ENDMDL
MODEL 7
REMARK VINA RESULT:      -6.3      4.070      7.508
REMARK  Name = 
REMARK  4 active torsions:
REMARK  status: ('A' for Active; 'I' for Inactive)
REMARK    1  A    between atoms: C_2  and  C_3
REMARK    2  A    between atoms: C_6  and  S_7
REMARK    3  A    between atoms: S_7  and  N_10
REMARK    4  A    between atoms: N_18  and  C_27
REMARK                            x       y       z     vdW  Elec       q    Type
REMARK                         _______ _______ _______ _____ _____    ______ ____
ROOT
ATOM      1  O   UNL     1      -3.229  13.250  20.310  0.00  0.00    +0.000 OA
ATOM      2  C   UNL     1      -2.131  12.802  19.969  0.00  0.00    +0.000 C 
ATOM      3  N   UNL     1      -1.955  11.585  19.283  0.00  0.00    +0.000 N 
ATOM      4  C   UNL     1      -0.920  10.639  19.510  0.00  0.00    +0.000 C 
ATOM      5  O   UNL     1      -0.393  10.036  18.564  0.00  0.00    +0.000 OA
ATOM      6  N   UNL     1      -0.412  10.433  20.796  0.00  0.00    +0.000 N 
ATOM      7  C   UNL     1       0.815   9.633  20.902  0.00  0.00    +0.000 C 
ATOM      8  C   UNL     1       0.732   8.622  22.041  0.00  0.00    +0.000 C 
ATOM      9  C   UNL     1       0.418   9.313  23.362  0.00  0.00    +0.000 C 
ATOM     10  C   UNL     1      -0.861  10.125  23.237  0.00  0.00    +0.000 C 
ATOM     11  C   UNL     1      -0.808  11.075  22.050  0.00  0.00    +0.000 C 
ENDROOT
BRANCH   2  12
ATOM     12  C   UNL     1      -0.914  13.568  20.370  0.00  0.00    +0.000 A 
ATOM     13  C   UNL     1      -0.856  14.148  21.650  0.00  0.00    +0.000 A 
ATOM     14  C   UNL     1       0.320  14.770  22.086  0.00  0.00    +0.000 A 
ATOM     15  C   UNL     1       1.408  14.858  21.211  0.00  0.00    +0.000 A 
ATOM     16  C   UNL     1       1.338  14.313  19.924  0.00  0.00    +0.000 A 
ATOM     17  C   UNL     1       0.177  13.668  19.503  0.00  0.00    +0.000 A 
BRANCH  15  18
ATOM     18  S   UNL     1       2.858  15.791  21.654  0.00  0.00    +0.000 S 
ATOM     19  O   UNL     1       2.875  16.938  20.771  0.00  0.00    +0.000 OA
ATOM     20  O   UNL     1       2.867  15.943  23.095  0.00  0.00    +0.000 OA
BRANCH  18  21
ATOM     21  N   UNL     1       4.141  14.754  21.226  0.00  0.00    +0.000 NA
ATOM     22  C   UNL     1       4.932  14.147  22.346  0.00  0.00    +0.000 C 
ATOM     23  C   UNL     1       6.014  15.117  22.857  0.00  0.00    +0.000 C 
ATOM     24  O   UNL     1       6.862  15.579  21.795  0.00  0.00    +0.000 OA
ATOM     25  C   UNL     1       6.099  16.229  20.765  0.00  0.00    +0.000 C 
ATOM     26  C   UNL     1       5.069  15.268  20.171  0.00  0.00    +0.000 C 
ENDBRANCH  18  21
ENDBRANCH  15  18
ENDBRANCH   2  12
BRANCH   3  27
ATOM     27  C   UNL     1      -2.687  11.457  18.017  0.00  0.00    +0.000 A 
ATOM     28  C   UNL     1      -2.008  11.174  16.815  0.00  0.00    +0.000 A 
ATOM     29  C   UNL     1      -2.709  10.871  15.637  0.00  0.00    +0.000 A 
ATOM     30  C   UNL     1      -4.099  10.881  15.625  0.00  0.00    +0.000 A 
ATOM     31  C   UNL     1      -4.793  11.228  16.780  0.00  0.00    +0.000 A 
ATOM     32  C   UNL     1      -4.092  11.519  17.961  0.00  0.00    +0.000 A 
ENDBRANCH   3  27
TORSDOF 4
ENDMDL
MODEL 8
REMARK VINA RESULT:      -6.2      4.546      7.566
REMARK  Name = 
REMARK  4 active torsions:
REMARK  status: ('A' for Active; 'I' for Inactive)
REMARK    1  A    between atoms: C_2  and  C_3
REMARK    2  A    between atoms: C_6  and  S_7
REMARK    3  A    between atoms: S_7  and  N_10
REMARK    4  A    between atoms: N_18  and  C_27
REMARK                            x       y       z     vdW  Elec       q    Type
REMARK                         _______ _______ _______ _____ _____    ______ ____
ROOT
ATOM      1  O   UNL     1      -0.504  12.955  23.422  0.00  0.00    +0.000 OA
ATOM      2  C   UNL     1      -0.825  13.327  22.290  0.00  0.00    +0.000 C 
ATOM      3  N   UNL     1      -2.089  13.097  21.714  0.00  0.00    +0.000 N 
ATOM      4  C   UNL     1      -2.341  12.748  20.362  0.00  0.00    +0.000 C 
ATOM      5  O   UNL     1      -3.318  13.214  19.757  0.00  0.00    +0.000 OA
ATOM      6  N   UNL     1      -1.444  11.942  19.654  0.00  0.00    +0.000 N 
ATOM      7  C   UNL     1      -1.649  11.840  18.203  0.00  0.00    +0.000 C 
ATOM      8  C   UNL     1      -1.508  10.402  17.715  0.00  0.00    +0.000 C 
ATOM      9  C   UNL     1      -0.159   9.818  18.116  0.00  0.00    +0.000 C 
ATOM     10  C   UNL     1       0.029   9.921  19.620  0.00  0.00    +0.000 C 
ATOM     11  C   UNL     1      -0.193  11.342  20.117  0.00  0.00    +0.000 C 
ENDROOT
BRANCH   2  12
ATOM     12  C   UNL     1       0.216  14.002  21.460  0.00  0.00    +0.000 A 
ATOM     13  C   UNL     1       1.498  13.432  21.366  0.00  0.00    +0.000 A 
ATOM     14  C   UNL     1       2.450  13.987  20.502  0.00  0.00    +0.000 A 
ATOM     15  C   UNL     1       2.127  15.144  19.785  0.00  0.00    +0.000 A 
ATOM     16  C   UNL     1       0.864  15.732  19.907  0.00  0.00    +0.000 A 
ATOM     17  C   UNL     1      -0.093  15.161  20.744  0.00  0.00    +0.000 A 
BRANCH  15  18
ATOM     18  S   UNL     1       3.359  15.984  18.813  0.00  0.00    +0.000 S 
ATOM     19  O   UNL     1       3.519  15.197  17.609  0.00  0.00    +0.000 OA
ATOM     20  O   UNL     1       3.004  17.388  18.760  0.00  0.00    +0.000 OA
BRANCH  18  21
ATOM     21  N   UNL     1       4.773  15.835  19.754  0.00  0.00    +0.000 NA
ATOM     22  C   UNL     1       4.932  16.782  20.904  0.00  0.00    +0.000 C 
ATOM     23  C   UNL     1       5.501  18.136  20.441  0.00  0.00    +0.000 C 
ATOM     24  O   UNL     1       6.725  17.979  19.706  0.00  0.00    +0.000 OA
ATOM     25  C   UNL     1       6.539  17.131  18.561  0.00  0.00    +0.000 C 
ATOM     26  C   UNL     1       6.056  15.745  18.990  0.00  0.00    +0.000 C 
ENDBRANCH  18  21
ENDBRANCH  15  18
ENDBRANCH   2  12
BRANCH   3  27
ATOM     27  C   UNL     1      -3.238  13.595  22.482  0.00  0.00    +0.000 A 
ATOM     28  C   UNL     1      -3.481  14.977  22.603  0.00  0.00    +0.000 A 
ATOM     29  C   UNL     1      -4.669  15.459  23.177  0.00  0.00    +0.000 A 
ATOM     30  C   UNL     1      -5.618  14.574  23.675  0.00  0.00    +0.000 A 
ATOM     31  C   UNL     1      -5.369  13.206  23.634  0.00  0.00    +0.000 A 
ATOM     32  C   UNL     1      -4.187  12.724  23.049  0.00  0.00    +0.000 A 
ENDBRANCH   3  27
TORSDOF 4
ENDMDL
MODEL 9
REMARK VINA RESULT:      -6.2      3.228      8.163
REMARK  Name = 
REMARK  4 active torsions:
REMARK  status: ('A' for Active; 'I' for Inactive)
REMARK    1  A    between atoms: C_2  and  C_3
REMARK    2  A    between atoms: C_6  and  S_7
REMARK    3  A    between atoms: S_7  and  N_10
REMARK    4  A    between atoms: N_18  and  C_27
REMARK                            x       y       z     vdW  Elec       q    Type
REMARK                         _______ _______ _______ _____ _____    ______ ____
ROOT
ATOM      1  O   UNL     1       1.284   9.606  22.582  0.00  0.00    +0.000 OA
ATOM      2  C   UNL     1       0.746  10.031  21.555  0.00  0.00    +0.000 C 
ATOM      3  N   UNL     1       1.289   9.889  20.264  0.00  0.00    +0.000 N 
ATOM      4  C   UNL     1       1.267  10.867  19.236  0.00  0.00    +0.000 C 
ATOM      5  O   UNL     1       1.088  10.542  18.053  0.00  0.00    +0.000 OA
ATOM      6  N   UNL     1       1.358  12.228  19.544  0.00  0.00    +0.000 N 
ATOM      7  C   UNL     1       1.076  13.173  18.456  0.00  0.00    +0.000 C 
ATOM      8  C   UNL     1       2.090  14.312  18.422  0.00  0.00    +0.000 C 
ATOM      9  C   UNL     1       2.150  15.031  19.764  0.00  0.00    +0.000 C 
ATOM     10  C   UNL     1       2.455  14.039  20.874  0.00  0.00    +0.000 C 
ATOM     11  C   UNL     1       1.493  12.862  20.856  0.00  0.00    +0.000 C 
ENDROOT
BRANCH   2  12
ATOM     12  C   UNL     1      -0.525  10.799  21.705  0.00  0.00    +0.000 A 
ATOM     13  C   UNL     1      -0.952  11.180  22.990  0.00  0.00    +0.000 A 
ATOM     14  C   UNL     1      -2.077  11.999  23.142  0.00  0.00    +0.000 A 
ATOM     15  C   UNL     1      -2.801  12.379  22.005  0.00  0.00    +0.000 A 
ATOM     16  C   UNL     1      -2.398  11.969  20.730  0.00  0.00    +0.000 A 
ATOM     17  C   UNL     1      -1.260  11.178  20.579  0.00  0.00    +0.000 A 
BRANCH  15  18
ATOM     18  S   UNL     1      -4.335  13.269  22.161  0.00  0.00    +0.000 S 
ATOM     19  O   UNL     1      -5.097  12.571  23.175  0.00  0.00    +0.000 OA
ATOM     20  O   UNL     1      -4.022  14.678  22.282  0.00  0.00    +0.000 OA
BRANCH  18  21
ATOM     21  N   UNL     1      -5.087  13.025  20.650  0.00  0.00    +0.000 NA
ATOM     22  C   UNL     1      -5.580  14.242  19.928  0.00  0.00    +0.000 C 
ATOM     23  C   UNL     1      -6.967  14.673  20.440  0.00  0.00    +0.000 C 
ATOM     24  O   UNL     1      -7.917  13.598  20.382  0.00  0.00    +0.000 OA
ATOM     25  C   UNL     1      -7.467  12.466  21.143  0.00  0.00    +0.000 C 
ATOM     26  C   UNL     1      -6.130  11.954  20.608  0.00  0.00    +0.000 C 
ENDBRANCH  18  21
ENDBRANCH  15  18
ENDBRANCH   2  12
BRANCH   3  27
ATOM     27  C   UNL     1       1.585   8.513  19.847  0.00  0.00    +0.000 A 
ATOM     28  C   UNL     1       2.187   8.250  18.600  0.00  0.00    +0.000 A 
ATOM     29  C   UNL     1       2.639   6.963  18.268  0.00  0.00    +0.000 A 
ATOM     30  C   UNL     1       2.466   5.907  19.155  0.00  0.00    +0.000 A 
ATOM     31  C   UNL     1       1.810   6.124  20.362  0.00  0.00    +0.000 A 
ATOM     32  C   UNL     1       1.369   7.414  20.699  0.00  0.00    +0.000 A 
ENDBRANCH   3  27
TORSDOF 4
ENDMDL
