MODEL 1
REMARK VINA RESULT:      -8.9      0.000      0.000
REMARK  Name = 
REMARK  8 active torsions:
REMARK  status: ('A' for Active; 'I' for Inactive)
REMARK    1  A    between atoms: C_1  and  N_2
REMARK    2  A    between atoms: N_2  and  C_3
REMARK    3  A    between atoms: N_2  and  S_24
REMARK    4  A    between atoms: C_6  and  N_7
REMARK    5  A    between atoms: C_11  and  O_12
REMARK    6  A    between atoms: O_12  and  C_13
REMARK    7  A    between atoms: C_13  and  C_14
REMARK    8  A    between atoms: S_24  and  C_25
REMARK                            x       y       z     vdW  Elec       q    Type
REMARK                         _______ _______ _______ _____ _____    ______ ____
ROOT
ATOM      1  C   UNL     1       4.351   4.679  17.482  0.00  0.00    +0.000 A 
ATOM      2  C   UNL     1       4.142   3.295  17.342  0.00  0.00    +0.000 A 
ATOM      3  C   UNL     1       2.998   2.682  17.856  0.00  0.00    +0.000 A 
ATOM      4  C   UNL     1       2.049   3.458  18.524  0.00  0.00    +0.000 A 
ATOM      5  C   UNL     1       2.243   4.835  18.679  0.00  0.00    +0.000 A 
ATOM      6  C   UNL     1       3.398   5.452  18.174  0.00  0.00    +0.000 A 
ENDROOT
BRANCH   4   7
ATOM      7  N   UNL     1       0.849   2.822  19.078  0.00  0.00    +0.000 N 
ATOM      8  O   UNL     1       0.514   3.136  20.230  0.00  0.00    +0.000 OA
ATOM      9  O   UNL     1       0.237   2.018  18.362  0.00  0.00    +0.000 OA
ENDBRANCH   4   7
BRANCH   1  11
ATOM     10  C   UNL     1       5.295   6.361  15.896  0.00  0.00    +0.000 C 
ATOM     11  N   UNL     1       5.505   5.251  16.843  0.00  0.00    +0.000 N 
BRANCH  11  12
ATOM     12  S   UNL     1       6.971   5.251  17.709  0.00  0.00    +0.000 S 
ATOM     13  C   UNL     1       7.507   6.952  17.623  0.00  0.00    +0.000 C 
ATOM     14  O   UNL     1       6.696   4.956  19.099  0.00  0.00    +0.000 OA
ATOM     15  O   UNL     1       7.918   4.460  16.954  0.00  0.00    +0.000 OA
ENDBRANCH  11  12
ENDBRANCH   1  11
BRANCH   6  16
ATOM     16  O   UNL     1       3.426   6.795  18.437  0.00  0.00    +0.000 OA
BRANCH  16  17
ATOM     17  C   UNL     1       2.489   7.629  17.756  0.00  0.00    +0.000 C 
BRANCH  17  18
ATOM     18  C   UNL     1       1.862   8.600  18.738  0.00  0.00    +0.000 A 
ATOM     19  C   UNL     1       1.524   9.886  18.306  0.00  0.00    +0.000 A 
ATOM     20  C   UNL     1       0.854  10.766  19.157  0.00  0.00    +0.000 A 
ATOM     21  C   UNL     1       0.520  10.385  20.463  0.00  0.00    +0.000 A 
ATOM     22  C   UNL     1      -0.264  11.211  21.283  0.00  0.00    +0.000 A 
ATOM     23  C   UNL     1      -0.597  10.820  22.580  0.00  0.00    +0.000 A 
ATOM     24  C   UNL     1      -0.105   9.622  23.090  0.00  0.00    +0.000 A 
ATOM     25  C   UNL     1       0.673   8.787  22.284  0.00  0.00    +0.000 A 
ATOM     26  C   UNL     1       0.958   9.134  20.952  0.00  0.00    +0.000 A 
ATOM     27  C   UNL     1       1.632   8.256  20.081  0.00  0.00    +0.000 A 
ENDBRANCH  17  18
ENDBRANCH  16  17
ENDBRANCH   6  16
TORSDOF 6
ENDMDL
MODEL 2
REMARK VINA RESULT:      -8.8      1.086      1.285
REMARK  Name = 
REMARK  8 active torsions:
REMARK  status: ('A' for Active; 'I' for Inactive)
REMARK    1  A    between atoms: C_1  and  N_2
REMARK    2  A    between atoms: N_2  and  C_3
REMARK    3  A    between atoms: N_2  and  S_24
REMARK    4  A    between atoms: C_6  and  N_7
REMARK    5  A    between atoms: C_11  and  O_12
REMARK    6  A    between atoms: O_12  and  C_13
REMARK    7  A    between atoms: C_13  and  C_14
REMARK    8  A    between atoms: S_24  and  C_25
REMARK                            x       y       z     vdW  Elec       q    Type
REMARK                         _______ _______ _______ _____ _____    ______ ____
ROOT
ATOM      1  C   UNL     1       4.691   4.230  18.439  0.00  0.00    +0.000 A 
ATOM      2  C   UNL     1       4.562   2.879  18.811  0.00  0.00    +0.000 A 
ATOM      3  C   UNL     1       3.570   2.468  19.704  0.00  0.00    +0.000 A 
ATOM      4  C   UNL     1       2.694   3.417  20.236  0.00  0.00    +0.000 A 
ATOM      5  C   UNL     1       2.812   4.765  19.882  0.00  0.00    +0.000 A 
ATOM      6  C   UNL     1       3.816   5.183  18.994  0.00  0.00    +0.000 A 
ENDROOT
BRANCH   4   7
ATOM      7  N   UNL     1       1.655   2.997  21.182  0.00  0.00    +0.000 N 
ATOM      8  O   UNL     1       0.500   2.873  20.747  0.00  0.00    +0.000 OA
ATOM      9  O   UNL     1       1.991   2.783  22.354  0.00  0.00    +0.000 OA
ENDBRANCH   4   7
BRANCH   1  11
ATOM     10  C   UNL     1       5.205   5.119  16.163  0.00  0.00    +0.000 C 
ATOM     11  N   UNL     1       5.675   4.559  17.444  0.00  0.00    +0.000 N 
BRANCH  11  12
ATOM     12  S   UNL     1       7.209   5.065  17.983  0.00  0.00    +0.000 S 
ATOM     13  C   UNL     1       7.344   6.731  17.356  0.00  0.00    +0.000 C 
ATOM     14  O   UNL     1       7.194   5.148  19.428  0.00  0.00    +0.000 OA
ATOM     15  O   UNL     1       8.194   4.261  17.294  0.00  0.00    +0.000 OA
ENDBRANCH  11  12
ENDBRANCH   1  11
BRANCH   6  16
ATOM     16  O   UNL     1       3.790   6.535  18.782  0.00  0.00    +0.000 OA
BRANCH  16  17
ATOM     17  C   UNL     1       2.718   7.070  18.005  0.00  0.00    +0.000 C 
BRANCH  17  18
ATOM     18  C   UNL     1       2.026   8.172  18.783  0.00  0.00    +0.000 A 
ATOM     19  C   UNL     1       1.666   9.352  18.122  0.00  0.00    +0.000 A 
ATOM     20  C   UNL     1       0.938  10.341  18.785  0.00  0.00    +0.000 A 
ATOM     21  C   UNL     1       0.566  10.179  20.125  0.00  0.00    +0.000 A 
ATOM     22  C   UNL     1      -0.274  11.106  20.762  0.00  0.00    +0.000 A 
ATOM     23  C   UNL     1      -0.645  10.933  22.096  0.00  0.00    +0.000 A 
ATOM     24  C   UNL     1      -0.137   9.860  22.823  0.00  0.00    +0.000 A 
ATOM     25  C   UNL     1       0.695   8.926  22.201  0.00  0.00    +0.000 A 
ATOM     26  C   UNL     1       1.021   9.048  20.839  0.00  0.00    +0.000 A 
ATOM     27  C   UNL     1       1.754   8.058  20.156  0.00  0.00    +0.000 A 
ENDBRANCH  17  18
ENDBRANCH  16  17
ENDBRANCH   6  16
TORSDOF 6
ENDMDL
MODEL 3
REMARK VINA RESULT:      -8.7      1.813      4.322
REMARK  Name = 
REMARK  8 active torsions:
REMARK  status: ('A' for Active; 'I' for Inactive)
REMARK    1  A    between atoms: C_1  and  N_2
REMARK    2  A    between atoms: N_2  and  C_3
REMARK    3  A    between atoms: N_2  and  S_24
REMARK    4  A    between atoms: C_6  and  N_7
REMARK    5  A    between atoms: C_11  and  O_12
REMARK    6  A    between atoms: O_12  and  C_13
REMARK    7  A    between atoms: C_13  and  C_14
REMARK    8  A    between atoms: S_24  and  C_25
REMARK                            x       y       z     vdW  Elec       q    Type
REMARK                         _______ _______ _______ _____ _____    ______ ____
ROOT
ATOM      1  C   UNL     1       3.728   4.888  18.829  0.00  0.00    +0.000 A 
ATOM      2  C   UNL     1       5.016   4.323  18.884  0.00  0.00    +0.000 A 
ATOM      3  C   UNL     1       6.110   4.960  18.296  0.00  0.00    +0.000 A 
ATOM      4  C   UNL     1       5.920   6.177  17.639  0.00  0.00    +0.000 A 
ATOM      5  C   UNL     1       4.646   6.750  17.568  0.00  0.00    +0.000 A 
ATOM      6  C   UNL     1       3.541   6.106  18.148  0.00  0.00    +0.000 A 
ENDROOT
BRANCH   4   7
ATOM      7  N   UNL     1       7.060   6.849  17.008  0.00  0.00    +0.000 N 
ATOM      8  O   UNL     1       7.676   6.229  16.129  0.00  0.00    +0.000 OA
ATOM      9  O   UNL     1       7.337   7.997  17.384  0.00  0.00    +0.000 OA
ENDBRANCH   4   7
BRANCH   1  11
ATOM     10  C   UNL     1       2.088   4.899  20.711  0.00  0.00    +0.000 C 
ATOM     11  N   UNL     1       2.672   4.220  19.539  0.00  0.00    +0.000 N 
BRANCH  11  12
ATOM     12  S   UNL     1       1.637   3.204  18.648  0.00  0.00    +0.000 S 
ATOM     13  C   UNL     1       2.721   1.911  18.064  0.00  0.00    +0.000 C 
ATOM     14  O   UNL     1       0.686   2.592  19.552  0.00  0.00    +0.000 OA
ATOM     15  O   UNL     1       1.190   3.951  17.492  0.00  0.00    +0.000 OA
ENDBRANCH  11  12
ENDBRANCH   1  11
BRANCH   6  16
ATOM     16  O   UNL     1       2.378   6.802  17.961  0.00  0.00    +0.000 OA
BRANCH  16  17
ATOM     17  C   UNL     1       2.473   8.193  17.649  0.00  0.00    +0.000 C 
BRANCH  17  18
ATOM     18  C   UNL     1       1.739   9.002  18.699  0.00  0.00    +0.000 A 
ATOM     19  C   UNL     1       1.137  10.211  18.333  0.00  0.00    +0.000 A 
ATOM     20  C   UNL     1       0.369  10.927  19.252  0.00  0.00    +0.000 A 
ATOM     21  C   UNL     1       0.197  10.458  20.560  0.00  0.00    +0.000 A 
ATOM     22  C   UNL     1      -0.676  11.100  21.453  0.00  0.00    +0.000 A 
ATOM     23  C   UNL     1      -0.846  10.622  22.753  0.00  0.00    +0.000 A 
ATOM     24  C   UNL     1      -0.105   9.528  23.190  0.00  0.00    +0.000 A 
ATOM     25  C   UNL     1       0.763   8.875  22.312  0.00  0.00    +0.000 A 
ATOM     26  C   UNL     1       0.892   9.302  20.979  0.00  0.00    +0.000 A 
ATOM     27  C   UNL     1       1.663   8.589  20.039  0.00  0.00    +0.000 A 
ENDBRANCH  17  18
ENDBRANCH  16  17
ENDBRANCH   6  16
TORSDOF 6
ENDMDL
MODEL 4
REMARK VINA RESULT:      -8.6      0.649      1.721
REMARK  Name = 
REMARK  8 active torsions:
REMARK  status: ('A' for Active; 'I' for Inactive)
REMARK    1  A    between atoms: C_1  and  N_2
REMARK    2  A    between atoms: N_2  and  C_3
REMARK    3  A    between atoms: N_2  and  S_24
REMARK    4  A    between atoms: C_6  and  N_7
REMARK    5  A    between atoms: C_11  and  O_12
REMARK    6  A    between atoms: O_12  and  C_13
REMARK    7  A    between atoms: C_13  and  C_14
REMARK    8  A    between atoms: S_24  and  C_25
REMARK                            x       y       z     vdW  Elec       q    Type
REMARK                         _______ _______ _______ _____ _____    ______ ____
ROOT
ATOM      1  C   UNL     1       4.427   4.499  17.498  0.00  0.00    +0.000 A 
ATOM      2  C   UNL     1       4.148   3.134  17.300  0.00  0.00    +0.000 A 
ATOM      3  C   UNL     1       3.006   2.544  17.844  0.00  0.00    +0.000 A 
ATOM      4  C   UNL     1       2.129   3.323  18.600  0.00  0.00    +0.000 A 
ATOM      5  C   UNL     1       2.393   4.680  18.814  0.00  0.00    +0.000 A 
ATOM      6  C   UNL     1       3.547   5.274  18.278  0.00  0.00    +0.000 A 
ENDROOT
BRANCH   4   7
ATOM      7  N   UNL     1       0.931   2.710  19.185  0.00  0.00    +0.000 N 
ATOM      8  O   UNL     1       0.218   2.023  18.439  0.00  0.00    +0.000 OA
ATOM      9  O   UNL     1       0.708   2.907  20.387  0.00  0.00    +0.000 OA
ENDBRANCH   4   7
BRANCH   1  11
ATOM     10  C   UNL     1       5.338   6.076  15.790  0.00  0.00    +0.000 C 
ATOM     11  N   UNL     1       5.571   5.054  16.828  0.00  0.00    +0.000 N 
BRANCH  11  12
ATOM     12  S   UNL     1       7.024   5.173  17.707  0.00  0.00    +0.000 S 
ATOM     13  C   UNL     1       7.429   6.909  17.612  0.00  0.00    +0.000 C 
ATOM     14  O   UNL     1       6.759   4.869  19.097  0.00  0.00    +0.000 OA
ATOM     15  O   UNL     1       8.036   4.451  16.968  0.00  0.00    +0.000 OA
ENDBRANCH  11  12
ENDBRANCH   1  11
BRANCH   6  16
ATOM     16  O   UNL     1       3.649   6.598  18.607  0.00  0.00    +0.000 OA
BRANCH  16  17
ATOM     17  C   UNL     1       2.921   7.541  17.820  0.00  0.00    +0.000 C 
BRANCH  17  18
ATOM     18  C   UNL     1       1.956   8.307  18.704  0.00  0.00    +0.000 A 
ATOM     19  C   UNL     1       1.858   7.972  20.058  0.00  0.00    +0.000 A 
ATOM     20  C   UNL     1       1.056   8.724  20.918  0.00  0.00    +0.000 A 
ATOM     21  C   UNL     1       0.325   9.819  20.440  0.00  0.00    +0.000 A 
ATOM     22  C   UNL     1      -0.381  10.658  21.316  0.00  0.00    +0.000 A 
ATOM     23  C   UNL     1      -1.103  11.750  20.831  0.00  0.00    +0.000 A 
ATOM     24  C   UNL     1      -1.168  11.983  19.460  0.00  0.00    +0.000 A 
ATOM     25  C   UNL     1      -0.467  11.159  18.577  0.00  0.00    +0.000 A 
ATOM     26  C   UNL     1       0.322  10.098  19.055  0.00  0.00    +0.000 A 
ATOM     27  C   UNL     1       1.137   9.330  18.200  0.00  0.00    +0.000 A 
ENDBRANCH  17  18
ENDBRANCH  16  17
ENDBRANCH   6  16
TORSDOF 6
ENDMDL
MODEL 5
REMARK VINA RESULT:      -8.5      1.622      1.933
REMARK  Name = 
REMARK  8 active torsions:
REMARK  status: ('A' for Active; 'I' for Inactive)
REMARK    1  A    between atoms: C_1  and  N_2
REMARK    2  A    between atoms: N_2  and  C_3
REMARK    3  A    between atoms: N_2  and  S_24
REMARK    4  A    between atoms: C_6  and  N_7
REMARK    5  A    between atoms: C_11  and  O_12
REMARK    6  A    between atoms: O_12  and  C_13
REMARK    7  A    between atoms: C_13  and  C_14
REMARK    8  A    between atoms: S_24  and  C_25
REMARK                            x       y       z     vdW  Elec       q    Type
REMARK                         _______ _______ _______ _____ _____    ______ ____
ROOT
ATOM      1  C   UNL     1       4.965   4.754  18.578  0.00  0.00    +0.000 A 
ATOM      2  C   UNL     1       4.997   3.409  18.991  0.00  0.00    +0.000 A 
ATOM      3  C   UNL     1       3.995   2.881  19.808  0.00  0.00    +0.000 A 
ATOM      4  C   UNL     1       2.947   3.705  20.223  0.00  0.00    +0.000 A 
ATOM      5  C   UNL     1       2.903   5.047  19.828  0.00  0.00    +0.000 A 
ATOM      6  C   UNL     1       3.915   5.583  19.016  0.00  0.00    +0.000 A 
ENDROOT
BRANCH   4   7
ATOM      7  N   UNL     1       1.896   3.164  21.090  0.00  0.00    +0.000 N 
ATOM      8  O   UNL     1       0.858   2.756  20.546  0.00  0.00    +0.000 OA
ATOM      9  O   UNL     1       2.108   3.136  22.310  0.00  0.00    +0.000 OA
ENDBRANCH   4   7
BRANCH   1  11
ATOM     10  C   UNL     1       7.385   4.883  17.978  0.00  0.00    +0.000 C 
ATOM     11  N   UNL     1       5.980   5.197  17.661  0.00  0.00    +0.000 N 
BRANCH  11  12
ATOM     12  S   UNL     1       5.571   5.293  16.011  0.00  0.00    +0.000 S 
ATOM     13  C   UNL     1       7.080   4.828  15.179  0.00  0.00    +0.000 C 
ATOM     14  O   UNL     1       4.584   4.277  15.712  0.00  0.00    +0.000 OA
ATOM     15  O   UNL     1       5.320   6.685  15.709  0.00  0.00    +0.000 OA
ENDBRANCH  11  12
ENDBRANCH   1  11
BRANCH   6  16
ATOM     16  O   UNL     1       3.716   6.911  18.750  0.00  0.00    +0.000 OA
BRANCH  16  17
ATOM     17  C   UNL     1       2.505   7.287  18.094  0.00  0.00    +0.000 C 
BRANCH  17  18
ATOM     18  C   UNL     1       1.804   8.365  18.898  0.00  0.00    +0.000 A 
ATOM     19  C   UNL     1       1.413   9.547  18.260  0.00  0.00    +0.000 A 
ATOM     20  C   UNL     1       0.677  10.513  18.948  0.00  0.00    +0.000 A 
ATOM     21  C   UNL     1       0.328  10.325  20.291  0.00  0.00    +0.000 A 
ATOM     22  C   UNL     1      -0.519  11.227  20.954  0.00  0.00    +0.000 A 
ATOM     23  C   UNL     1      -0.866  11.028  22.291  0.00  0.00    +0.000 A 
ATOM     24  C   UNL     1      -0.328   9.954  22.994  0.00  0.00    +0.000 A 
ATOM     25  C   UNL     1       0.512   9.046  22.346  0.00  0.00    +0.000 A 
ATOM     26  C   UNL     1       0.814   9.193  20.981  0.00  0.00    +0.000 A 
ATOM     27  C   UNL     1       1.555   8.226  20.273  0.00  0.00    +0.000 A 
ENDBRANCH  17  18
ENDBRANCH  16  17
ENDBRANCH   6  16
TORSDOF 6
ENDMDL
MODEL 6
REMARK VINA RESULT:      -8.4      1.943      4.321
REMARK  Name = 
REMARK  8 active torsions:
REMARK  status: ('A' for Active; 'I' for Inactive)
REMARK    1  A    between atoms: C_1  and  N_2
REMARK    2  A    between atoms: N_2  and  C_3
REMARK    3  A    between atoms: N_2  and  S_24
REMARK    4  A    between atoms: C_6  and  N_7
REMARK    5  A    between atoms: C_11  and  O_12
REMARK    6  A    between atoms: O_12  and  C_13
REMARK    7  A    between atoms: C_13  and  C_14
REMARK    8  A    between atoms: S_24  and  C_25
REMARK                            x       y       z     vdW  Elec       q    Type
REMARK                         _______ _______ _______ _____ _____    ______ ____
ROOT
ATOM      1  C   UNL     1       4.055   4.643  18.639  0.00  0.00    +0.000 A 
ATOM      2  C   UNL     1       5.371   4.159  18.526  0.00  0.00    +0.000 A 
ATOM      3  C   UNL     1       6.386   4.947  17.980  0.00  0.00    +0.000 A 
ATOM      4  C   UNL     1       6.085   6.237  17.537  0.00  0.00    +0.000 A 
ATOM      5  C   UNL     1       4.780   6.732  17.635  0.00  0.00    +0.000 A 
ATOM      6  C   UNL     1       3.756   5.937  18.172  0.00  0.00    +0.000 A 
ENDROOT
BRANCH   4   7
ATOM      7  N   UNL     1       7.141   7.069  16.952  0.00  0.00    +0.000 N 
ATOM      8  O   UNL     1       7.906   6.535  16.135  0.00  0.00    +0.000 OA
ATOM      9  O   UNL     1       7.203   8.256  17.301  0.00  0.00    +0.000 OA
ENDBRANCH   4   7
BRANCH   1  11
ATOM     10  C   UNL     1       2.346   4.373  20.439  0.00  0.00    +0.000 C 
ATOM     11  N   UNL     1       3.088   3.807  19.297  0.00  0.00    +0.000 N 
BRANCH  11  12
ATOM     12  S   UNL     1       2.274   2.643  18.358  0.00  0.00    +0.000 S 
ATOM     13  C   UNL     1       0.659   2.552  19.112  0.00  0.00    +0.000 C 
ATOM     14  O   UNL     1       2.095   3.163  17.018  0.00  0.00    +0.000 OA
ATOM     15  O   UNL     1       2.930   1.373  18.581  0.00  0.00    +0.000 OA
ENDBRANCH  11  12
ENDBRANCH   1  11
BRANCH   6  16
ATOM     16  O   UNL     1       2.546   6.578  18.169  0.00  0.00    +0.000 OA
BRANCH  16  17
ATOM     17  C   UNL     1       2.504   7.923  17.690  0.00  0.00    +0.000 C 
BRANCH  17  18
ATOM     18  C   UNL     1       1.791   8.801  18.700  0.00  0.00    +0.000 A 
ATOM     19  C   UNL     1       1.251  10.022  18.282  0.00  0.00    +0.000 A 
ATOM     20  C   UNL     1       0.502  10.803  19.164  0.00  0.00    +0.000 A 
ATOM     21  C   UNL     1       0.289  10.389  20.484  0.00  0.00    +0.000 A 
ATOM     22  C   UNL     1      -0.567  11.101  21.339  0.00  0.00    +0.000 A 
ATOM     23  C   UNL     1      -0.777  10.676  22.652  0.00  0.00    +0.000 A 
ATOM     24  C   UNL     1      -0.094   9.567  23.139  0.00  0.00    +0.000 A 
ATOM     25  C   UNL     1       0.757   8.845  22.299  0.00  0.00    +0.000 A 
ATOM     26  C   UNL     1       0.925   9.218  20.954  0.00  0.00    +0.000 A 
ATOM     27  C   UNL     1       1.677   8.439  20.052  0.00  0.00    +0.000 A 
ENDBRANCH  17  18
ENDBRANCH  16  17
ENDBRANCH   6  16
TORSDOF 6
ENDMDL
MODEL 7
REMARK VINA RESULT:      -8.4      1.156      1.499
REMARK  Name = 
REMARK  8 active torsions:
REMARK  status: ('A' for Active; 'I' for Inactive)
REMARK    1  A    between atoms: C_1  and  N_2
REMARK    2  A    between atoms: N_2  and  C_3
REMARK    3  A    between atoms: N_2  and  S_24
REMARK    4  A    between atoms: C_6  and  N_7
REMARK    5  A    between atoms: C_11  and  O_12
REMARK    6  A    between atoms: O_12  and  C_13
REMARK    7  A    between atoms: C_13  and  C_14
REMARK    8  A    between atoms: S_24  and  C_25
REMARK                            x       y       z     vdW  Elec       q    Type
REMARK                         _______ _______ _______ _____ _____    ______ ____
ROOT
ATOM      1  C   UNL     1       4.717   4.709  17.955  0.00  0.00    +0.000 A 
ATOM      2  C   UNL     1       4.577   3.310  17.971  0.00  0.00    +0.000 A 
ATOM      3  C   UNL     1       3.384   2.707  18.376  0.00  0.00    +0.000 A 
ATOM      4  C   UNL     1       2.314   3.512  18.775  0.00  0.00    +0.000 A 
ATOM      5  C   UNL     1       2.438   4.905  18.772  0.00  0.00    +0.000 A 
ATOM      6  C   UNL     1       3.640   5.512  18.377  0.00  0.00    +0.000 A 
ENDROOT
BRANCH   4   7
ATOM      7  N   UNL     1       1.060   2.889  19.212  0.00  0.00    +0.000 N 
ATOM      8  O   UNL     1       0.722   3.051  20.394  0.00  0.00    +0.000 OA
ATOM      9  O   UNL     1       0.410   2.248  18.375  0.00  0.00    +0.000 OA
ENDBRANCH   4   7
BRANCH   1  11
ATOM     10  C   UNL     1       7.208   4.832  18.062  0.00  0.00    +0.000 C 
ATOM     11  N   UNL     1       5.942   5.255  17.436  0.00  0.00    +0.000 N 
BRANCH  11  12
ATOM     12  S   UNL     1       5.998   5.641  15.779  0.00  0.00    +0.000 S 
ATOM     13  C   UNL     1       5.300   4.199  14.990  0.00  0.00    +0.000 C 
ATOM     14  O   UNL     1       5.100   6.748  15.524  0.00  0.00    +0.000 OA
ATOM     15  O   UNL     1       7.392   5.711  15.400  0.00  0.00    +0.000 OA
ENDBRANCH  11  12
ENDBRANCH   1  11
BRANCH   6  16
ATOM     16  O   UNL     1       3.582   6.878  18.458  0.00  0.00    +0.000 OA
BRANCH  16  17
ATOM     17  C   UNL     1       2.530   7.545  17.761  0.00  0.00    +0.000 C 
BRANCH  17  18
ATOM     18  C   UNL     1       1.830   8.510  18.698  0.00  0.00    +0.000 A 
ATOM     19  C   UNL     1       1.309   9.703  18.185  0.00  0.00    +0.000 A 
ATOM     20  C   UNL     1       0.572  10.563  19.001  0.00  0.00    +0.000 A 
ATOM     21  C   UNL     1       0.350  10.256  20.349  0.00  0.00    +0.000 A 
ATOM     22  C   UNL     1      -0.495  11.045  21.144  0.00  0.00    +0.000 A 
ATOM     23  C   UNL     1      -0.715  10.728  22.485  0.00  0.00    +0.000 A 
ATOM     24  C   UNL     1      -0.050   9.648  23.059  0.00  0.00    +0.000 A 
ATOM     25  C   UNL     1       0.791   8.851  22.279  0.00  0.00    +0.000 A 
ATOM     26  C   UNL     1       0.967   9.115  20.910  0.00  0.00    +0.000 A 
ATOM     27  C   UNL     1       1.707   8.257  20.074  0.00  0.00    +0.000 A 
ENDBRANCH  17  18
ENDBRANCH  16  17
ENDBRANCH   6  16
TORSDOF 6
ENDMDL
MODEL 8
REMARK VINA RESULT:      -8.4      1.828      4.242
REMARK  Name = 
REMARK  8 active torsions:
REMARK  status: ('A' for Active; 'I' for Inactive)
REMARK    1  A    between atoms: C_1  and  N_2
REMARK    2  A    between atoms: N_2  and  C_3
REMARK    3  A    between atoms: N_2  and  S_24
REMARK    4  A    between atoms: C_6  and  N_7
REMARK    5  A    between atoms: C_11  and  O_12
REMARK    6  A    between atoms: O_12  and  C_13
REMARK    7  A    between atoms: C_13  and  C_14
REMARK    8  A    between atoms: S_24  and  C_25
REMARK                            x       y       z     vdW  Elec       q    Type
REMARK                         _______ _______ _______ _____ _____    ______ ____
ROOT
ATOM      1  C   UNL     1       3.544   4.437  18.444  0.00  0.00    +0.000 A 
ATOM      2  C   UNL     1       4.808   3.827  18.537  0.00  0.00    +0.000 A 
ATOM      3  C   UNL     1       5.980   4.553  18.314  0.00  0.00    +0.000 A 
ATOM      4  C   UNL     1       5.891   5.909  17.991  0.00  0.00    +0.000 A 
ATOM      5  C   UNL     1       4.642   6.531  17.887  0.00  0.00    +0.000 A 
ATOM      6  C   UNL     1       3.463   5.800  18.099  0.00  0.00    +0.000 A 
ENDROOT
BRANCH   4   7
ATOM      7  N   UNL     1       7.114   6.679  17.745  0.00  0.00    +0.000 N 
ATOM      8  O   UNL     1       7.979   6.680  18.634  0.00  0.00    +0.000 OA
ATOM      9  O   UNL     1       7.217   7.274  16.664  0.00  0.00    +0.000 OA
ENDBRANCH   4   7
BRANCH   1  11
ATOM     10  C   UNL     1       2.215   2.353  18.094  0.00  0.00    +0.000 C 
ATOM     11  N   UNL     1       2.391   3.646  18.780  0.00  0.00    +0.000 N 
BRANCH  11  12
ATOM     12  S   UNL     1       1.788   3.759  20.368  0.00  0.00    +0.000 S 
ATOM     13  C   UNL     1       2.793   2.599  21.280  0.00  0.00    +0.000 C 
ATOM     14  O   UNL     1       2.076   5.079  20.888  0.00  0.00    +0.000 OA
ATOM     15  O   UNL     1       0.436   3.244  20.354  0.00  0.00    +0.000 OA
ENDBRANCH  11  12
ENDBRANCH   1  11
BRANCH   6  16
ATOM     16  O   UNL     1       2.341   6.567  17.935  0.00  0.00    +0.000 OA
BRANCH  16  17
ATOM     17  C   UNL     1       2.516   7.950  17.626  0.00  0.00    +0.000 C 
BRANCH  17  18
ATOM     18  C   UNL     1       1.784   8.797  18.649  0.00  0.00    +0.000 A 
ATOM     19  C   UNL     1       1.174   9.987  18.240  0.00  0.00    +0.000 A 
ATOM     20  C   UNL     1       0.409  10.735  19.135  0.00  0.00    +0.000 A 
ATOM     21  C   UNL     1       0.247  10.317  20.462  0.00  0.00    +0.000 A 
ATOM     22  C   UNL     1      -0.623  10.990  21.334  0.00  0.00    +0.000 A 
ATOM     23  C   UNL     1      -0.782  10.562  22.653  0.00  0.00    +0.000 A 
ATOM     24  C   UNL     1      -0.033   9.490  23.128  0.00  0.00    +0.000 A 
ATOM     25  C   UNL     1       0.833   8.808  22.271  0.00  0.00    +0.000 A 
ATOM     26  C   UNL     1       0.951   9.182  20.921  0.00  0.00    +0.000 A 
ATOM     27  C   UNL     1       1.719   8.437  20.005  0.00  0.00    +0.000 A 
ENDBRANCH  17  18
ENDBRANCH  16  17
ENDBRANCH   6  16
TORSDOF 6
ENDMDL
MODEL 9
REMARK VINA RESULT:      -8.4      1.880      4.104
REMARK  Name = 
REMARK  8 active torsions:
REMARK  status: ('A' for Active; 'I' for Inactive)
REMARK    1  A    between atoms: C_1  and  N_2
REMARK    2  A    between atoms: N_2  and  C_3
REMARK    3  A    between atoms: N_2  and  S_24
REMARK    4  A    between atoms: C_6  and  N_7
REMARK    5  A    between atoms: C_11  and  O_12
REMARK    6  A    between atoms: O_12  and  C_13
REMARK    7  A    between atoms: C_13  and  C_14
REMARK    8  A    between atoms: S_24  and  C_25
REMARK                            x       y       z     vdW  Elec       q    Type
REMARK                         _______ _______ _______ _____ _____    ______ ____
ROOT
ATOM      1  C   UNL     1       3.305   4.749  17.864  0.00  0.00    +0.000 A 
ATOM      2  C   UNL     1       3.974   3.779  17.096  0.00  0.00    +0.000 A 
ATOM      3  C   UNL     1       5.128   4.098  16.376  0.00  0.00    +0.000 A 
ATOM      4  C   UNL     1       5.621   5.404  16.420  0.00  0.00    +0.000 A 
ATOM      5  C   UNL     1       4.964   6.383  17.173  0.00  0.00    +0.000 A 
ATOM      6  C   UNL     1       3.797   6.068  17.887  0.00  0.00    +0.000 A 
ENDROOT
BRANCH   4   7
ATOM      7  N   UNL     1       6.826   5.752  15.661  0.00  0.00    +0.000 N 
ATOM      8  O   UNL     1       7.676   6.456  16.226  0.00  0.00    +0.000 OA
ATOM      9  O   UNL     1       6.929   5.316  14.506  0.00  0.00    +0.000 OA
ENDBRANCH   4   7
BRANCH   1  11
ATOM     10  C   UNL     1       1.096   3.589  17.969  0.00  0.00    +0.000 C 
ATOM     11  N   UNL     1       2.180   4.321  18.650  0.00  0.00    +0.000 N 
BRANCH  11  12
ATOM     12  S   UNL     1       2.457   3.932  20.284  0.00  0.00    +0.000 S 
ATOM     13  C   UNL     1       1.118   2.819  20.682  0.00  0.00    +0.000 C 
ATOM     14  O   UNL     1       3.688   3.177  20.385  0.00  0.00    +0.000 OA
ATOM     15  O   UNL     1       2.260   5.140  21.055  0.00  0.00    +0.000 OA
ENDBRANCH  11  12
ENDBRANCH   1  11
BRANCH   6  16
ATOM     16  O   UNL     1       3.284   7.153  18.546  0.00  0.00    +0.000 OA
BRANCH  16  17
ATOM     17  C   UNL     1       2.274   7.918  17.888  0.00  0.00    +0.000 C 
BRANCH  17  18
ATOM     18  C   UNL     1       1.648   8.888  18.871  0.00  0.00    +0.000 A 
ATOM     19  C   UNL     1       1.372  10.196  18.459  0.00  0.00    +0.000 A 
ATOM     20  C   UNL     1       0.704  11.079  19.307  0.00  0.00    +0.000 A 
ATOM     21  C   UNL     1       0.308  10.680  20.590  0.00  0.00    +0.000 A 
ATOM     22  C   UNL     1      -0.475  11.515  21.402  0.00  0.00    +0.000 A 
ATOM     23  C   UNL     1      -0.869  11.106  22.676  0.00  0.00    +0.000 A 
ATOM     24  C   UNL     1      -0.439   9.879  23.173  0.00  0.00    +0.000 A 
ATOM     25  C   UNL     1       0.337   9.035  22.376  0.00  0.00    +0.000 A 
ATOM     26  C   UNL     1       0.682   9.402  21.063  0.00  0.00    +0.000 A 
ATOM     27  C   UNL     1       1.356   8.521  20.195  0.00  0.00    +0.000 A 
ENDBRANCH  17  18
ENDBRANCH  16  17
ENDBRANCH   6  16
TORSDOF 6
ENDMDL
