MODEL 1
REMARK VINA RESULT:      -7.9      0.000      0.000
REMARK  Name = 
REMARK  11 active torsions:
REMARK  status: ('A' for Active; 'I' for Inactive)
REMARK    1  A    between atoms: C_1  and  C_2
REMARK    2  A    between atoms: C_2  and  O_4
REMARK    3  A    between atoms: O_4  and  C_5
REMARK    4  A    between atoms: C_5  and  C_6
REMARK    5  A    between atoms: CA_7  and  C_8
REMARK    6  A    between atoms: C_8  and  OXT_10
REMARK    7  A    between atoms: CA_14  and  N_15
REMARK    8  A    between atoms: C_16  and  C_18
REMARK    9  A    between atoms: C_18  and  N_19
REMARK   10  A    between atoms: C_21  and  C_22
REMARK   11  A    between atoms: C_27  and  C_28
REMARK                            x       y       z     vdW  Elec       q    Type
REMARK                         _______ _______ _______ _____ _____    ______ ____
ROOT
ATOM      1  C   UNL     1       4.305   3.925  18.339  0.00  0.00    +0.000 C 
ATOM      2  CA  UNL     1       3.690   3.078  19.205  0.00  0.00    +0.000 C 
ATOM      3  N   UNL     1       2.414   3.316  19.741  0.00  0.00    +0.000 N 
ATOM      4  C   UNL     1       2.416   3.864  21.018  0.00  0.00    +0.000 C 
ATOM      5  O   UNL     1       2.624   3.317  22.076  0.00  0.00    +0.000 OA
ATOM      6  CA  UNL     1       2.296   5.302  20.415  0.00  0.00    +0.000 C 
ATOM      7  C   UNL     1       1.617   4.499  19.277  0.00  0.00    +0.000 C 
ATOM      8  S   UNL     1       1.854   4.948  17.566  0.00  0.00    +0.000 S 
ATOM      9  C   UNL     1       3.633   5.030  17.570  0.00  0.00    +0.000 C 
ENDROOT
BRANCH   6  10
ATOM     10  N   UNL     1       1.498   6.303  21.148  0.00  0.00    +0.000 N 
ATOM     11  C   UNL     1       1.590   7.630  20.773  0.00  0.00    +0.000 C 
ATOM     12  O   UNL     1       2.155   7.976  19.736  0.00  0.00    +0.000 OA
ATOM     13  H   UNL     1       1.116   6.097  22.071  0.00  0.00    +0.000 HD
BRANCH  11  14
ATOM     14  C   UNL     1       1.028   8.632  21.746  0.00  0.00    +0.000 C 
BRANCH  14  15
ATOM     15  N   UNL     1       0.157   9.572  21.072  0.00  0.00    +0.000 N 
ATOM     16  N   UNL     1       0.134   9.570  19.721  0.00  0.00    +0.000 NA
ATOM     17  C   UNL     1      -0.759  10.531  19.410  0.00  0.00    +0.000 A 
ATOM     18  C   UNL     1      -1.252  11.165  20.575  0.00  0.00    +0.000 A 
ATOM     19 CL   UNL     1      -2.357  12.452  20.631  0.00  0.00    +0.000 Cl
ATOM     20  C   UNL     1      -0.659  10.518  21.637  0.00  0.00    +0.000 A 
ATOM     21  C   UNL     1      -0.794  10.718  23.102  0.00  0.00    +0.000 C 
BRANCH  17  22
ATOM     22  C   UNL     1      -1.132  10.830  17.994  0.00  0.00    +0.000 C 
ATOM     23  F   UNL     1      -2.360  10.327  17.688  0.00  0.00    +0.000 F 
ATOM     24  F   UNL     1      -1.199  12.169  17.768  0.00  0.00    +0.000 F 
ENDBRANCH  17  22
ENDBRANCH  14  15
ENDBRANCH  11  14
ENDBRANCH   6  10
BRANCH   2  25
ATOM     25  C   UNL     1       4.449   1.869  19.727  0.00  0.00    +0.000 C 
ATOM     26  O   UNL     1       5.096   1.870  20.762  0.00  0.00    +0.000 OA
BRANCH  25  27
ATOM     27  OXT UNL     1       4.432   0.785  18.921  0.00  0.00    +0.000 OA
ATOM     28  HXT UNL     1       5.270   0.568  18.464  0.00  0.00    +0.000 HD
ENDBRANCH  25  27
ENDBRANCH   2  25
BRANCH   1  29
ATOM     29  C   UNL     1       5.816   4.006  18.136  0.00  0.00    +0.000 C 
BRANCH  29  30
ATOM     30  O   UNL     1       6.304   5.353  18.272  0.00  0.00    +0.000 OA
BRANCH  30  32
ATOM     31  C   UNL     1       7.486   7.241  17.566  0.00  0.00    +0.000 C 
ATOM     32  C   UNL     1       7.178   5.795  17.332  0.00  0.00    +0.000 C 
ATOM     33  O   UNL     1       7.595   5.141  16.383  0.00  0.00    +0.000 OA
ENDBRANCH  30  32
ENDBRANCH  29  30
ENDBRANCH   1  29
TORSDOF 9
ENDMDL
MODEL 2
REMARK VINA RESULT:      -7.5      0.962      1.240
REMARK  Name = 
REMARK  11 active torsions:
REMARK  status: ('A' for Active; 'I' for Inactive)
REMARK    1  A    between atoms: C_1  and  C_2
REMARK    2  A    between atoms: C_2  and  O_4
REMARK    3  A    between atoms: O_4  and  C_5
REMARK    4  A    between atoms: C_5  and  C_6
REMARK    5  A    between atoms: CA_7  and  C_8
REMARK    6  A    between atoms: C_8  and  OXT_10
REMARK    7  A    between atoms: CA_14  and  N_15
REMARK    8  A    between atoms: C_16  and  C_18
REMARK    9  A    between atoms: C_18  and  N_19
REMARK   10  A    between atoms: C_21  and  C_22
REMARK   11  A    between atoms: C_27  and  C_28
REMARK                            x       y       z     vdW  Elec       q    Type
REMARK                         _______ _______ _______ _____ _____    ______ ____
ROOT
ATOM      1  C   UNL     1       4.397   4.226  18.634  0.00  0.00    +0.000 C 
ATOM      2  CA  UNL     1       3.654   3.360  19.371  0.00  0.00    +0.000 C 
ATOM      3  N   UNL     1       2.329   3.616  19.758  0.00  0.00    +0.000 N 
ATOM      4  C   UNL     1       2.189   4.101  21.053  0.00  0.00    +0.000 C 
ATOM      5  O   UNL     1       2.246   3.496  22.098  0.00  0.00    +0.000 OA
ATOM      6  CA  UNL     1       2.187   5.570  20.517  0.00  0.00    +0.000 C 
ATOM      7  C   UNL     1       1.632   4.849  19.263  0.00  0.00    +0.000 C 
ATOM      8  S   UNL     1       2.094   5.373  17.621  0.00  0.00    +0.000 S 
ATOM      9  C   UNL     1       3.860   5.391  17.848  0.00  0.00    +0.000 C 
ENDROOT
BRANCH   6  10
ATOM     10  N   UNL     1       1.333   6.562  21.199  0.00  0.00    +0.000 N 
ATOM     11  C   UNL     1       1.420   7.887  20.815  0.00  0.00    +0.000 C 
ATOM     12  O   UNL     1       2.029   8.235  19.805  0.00  0.00    +0.000 OA
ATOM     13  H   UNL     1       0.910   6.357  22.104  0.00  0.00    +0.000 HD
BRANCH  11  14
ATOM     14  C   UNL     1       0.790   8.887  21.748  0.00  0.00    +0.000 C 
BRANCH  14  15
ATOM     15  N   UNL     1      -0.110   9.766  21.031  0.00  0.00    +0.000 N 
ATOM     16  N   UNL     1      -0.314   9.539  19.715  0.00  0.00    +0.000 NA
ATOM     17  C   UNL     1      -1.186  10.501  19.351  0.00  0.00    +0.000 A 
ATOM     18  C   UNL     1      -1.481  11.358  20.437  0.00  0.00    +0.000 A 
ATOM     19 CL   UNL     1      -2.495  12.719  20.400  0.00  0.00    +0.000 Cl
ATOM     20  C   UNL     1      -0.788  10.854  21.516  0.00  0.00    +0.000 A 
ATOM     21  C   UNL     1      -0.714  11.307  22.928  0.00  0.00    +0.000 C 
BRANCH  17  22
ATOM     22  C   UNL     1      -1.727  10.587  17.961  0.00  0.00    +0.000 C 
ATOM     23  F   UNL     1      -1.016   9.803  17.103  0.00  0.00    +0.000 F 
ATOM     24  F   UNL     1      -3.014  10.152  17.899  0.00  0.00    +0.000 F 
ENDBRANCH  17  22
ENDBRANCH  14  15
ENDBRANCH  11  14
ENDBRANCH   6  10
BRANCH   2  25
ATOM     25  C   UNL     1       4.306   2.100  19.917  0.00  0.00    +0.000 C 
ATOM     26  O   UNL     1       4.326   1.035  19.322  0.00  0.00    +0.000 OA
BRANCH  25  27
ATOM     27  OXT UNL     1       4.810   2.206  21.167  0.00  0.00    +0.000 OA
ATOM     28  HXT UNL     1       5.315   3.021  21.366  0.00  0.00    +0.000 HD
ENDBRANCH  25  27
ENDBRANCH   2  25
BRANCH   1  29
ATOM     29  C   UNL     1       5.924   4.262  18.623  0.00  0.00    +0.000 C 
BRANCH  29  30
ATOM     30  O   UNL     1       6.448   5.111  19.660  0.00  0.00    +0.000 OA
BRANCH  30  32
ATOM     31  C   UNL     1       7.764   6.618  18.454  0.00  0.00    +0.000 C 
ATOM     32  C   UNL     1       7.720   5.560  19.512  0.00  0.00    +0.000 C 
ATOM     33  O   UNL     1       8.704   5.117  20.093  0.00  0.00    +0.000 OA
ENDBRANCH  30  32
ENDBRANCH  29  30
ENDBRANCH   1  29
TORSDOF 9
ENDMDL
MODEL 3
REMARK VINA RESULT:      -7.5      1.151      1.202
REMARK  Name = 
REMARK  11 active torsions:
REMARK  status: ('A' for Active; 'I' for Inactive)
REMARK    1  A    between atoms: C_1  and  C_2
REMARK    2  A    between atoms: C_2  and  O_4
REMARK    3  A    between atoms: O_4  and  C_5
REMARK    4  A    between atoms: C_5  and  C_6
REMARK    5  A    between atoms: CA_7  and  C_8
REMARK    6  A    between atoms: C_8  and  OXT_10
REMARK    7  A    between atoms: CA_14  and  N_15
REMARK    8  A    between atoms: C_16  and  C_18
REMARK    9  A    between atoms: C_18  and  N_19
REMARK   10  A    between atoms: C_21  and  C_22
REMARK   11  A    between atoms: C_27  and  C_28
REMARK                            x       y       z     vdW  Elec       q    Type
REMARK                         _______ _______ _______ _____ _____    ______ ____
ROOT
ATOM      1  C   UNL     1       4.069   3.763  18.333  0.00  0.00    +0.000 C 
ATOM      2  CA  UNL     1       3.515   3.072  19.364  0.00  0.00    +0.000 C 
ATOM      3  N   UNL     1       2.275   3.400  19.935  0.00  0.00    +0.000 N 
ATOM      4  C   UNL     1       2.356   4.150  21.101  0.00  0.00    +0.000 C 
ATOM      5  O   UNL     1       2.634   3.783  22.220  0.00  0.00    +0.000 OA
ATOM      6  CA  UNL     1       2.190   5.471  20.281  0.00  0.00    +0.000 C 
ATOM      7  C   UNL     1       1.444   4.496  19.335  0.00  0.00    +0.000 C 
ATOM      8  S   UNL     1       1.568   4.658  17.562  0.00  0.00    +0.000 S 
ATOM      9  C   UNL     1       3.343   4.731  17.439  0.00  0.00    +0.000 C 
ENDROOT
BRANCH   6  10
ATOM     10  N   UNL     1       1.435   6.582  20.890  0.00  0.00    +0.000 N 
ATOM     11  C   UNL     1       1.540   7.842  20.330  0.00  0.00    +0.000 C 
ATOM     12  O   UNL     1       2.077   8.027  19.239  0.00  0.00    +0.000 OA
ATOM     13  H   UNL     1       1.080   6.516  21.844  0.00  0.00    +0.000 HD
BRANCH  11  14
ATOM     14  C   UNL     1       1.029   8.982  21.170  0.00  0.00    +0.000 C 
BRANCH  14  15
ATOM     15  N   UNL     1       0.313   9.942  20.355  0.00  0.00    +0.000 N 
ATOM     16  N   UNL     1      -0.753   9.510  19.645  0.00  0.00    +0.000 NA
ATOM     17  C   UNL     1      -1.193  10.618  19.015  0.00  0.00    +0.000 A 
ATOM     18  C   UNL     1      -0.362  11.729  19.297  0.00  0.00    +0.000 A 
ATOM     19 CL   UNL     1      -0.533  13.299  18.676  0.00  0.00    +0.000 Cl
ATOM     20  C   UNL     1       0.593  11.272  20.178  0.00  0.00    +0.000 A 
ATOM     21  C   UNL     1       1.721  11.970  20.845  0.00  0.00    +0.000 C 
BRANCH  17  22
ATOM     22  C   UNL     1      -2.409  10.599  18.146  0.00  0.00    +0.000 C 
ATOM     23  F   UNL     1      -2.860   9.328  17.956  0.00  0.00    +0.000 F 
ATOM     24  F   UNL     1      -3.435  11.290  18.710  0.00  0.00    +0.000 F 
ENDBRANCH  17  22
ENDBRANCH  14  15
ENDBRANCH  11  14
ENDBRANCH   6  10
BRANCH   2  25
ATOM     25  C   UNL     1       4.313   1.961  20.027  0.00  0.00    +0.000 C 
ATOM     26  O   UNL     1       4.865   2.076  21.110  0.00  0.00    +0.000 OA
BRANCH  25  27
ATOM     27  OXT UNL     1       4.447   0.832  19.296  0.00  0.00    +0.000 OA
ATOM     28  HXT UNL     1       5.358   0.489  19.188  0.00  0.00    +0.000 HD
ENDBRANCH  25  27
ENDBRANCH   2  25
BRANCH   1  29
ATOM     29  C   UNL     1       5.563   3.802  18.024  0.00  0.00    +0.000 C 
BRANCH  29  30
ATOM     30  O   UNL     1       5.938   5.009  17.337  0.00  0.00    +0.000 OA
BRANCH  30  32
ATOM     31  C   UNL     1       7.490   6.754  17.409  0.00  0.00    +0.000 C 
ATOM     32  C   UNL     1       7.264   5.284  17.240  0.00  0.00    +0.000 C 
ATOM     33  O   UNL     1       8.142   4.473  16.975  0.00  0.00    +0.000 OA
ENDBRANCH  30  32
ENDBRANCH  29  30
ENDBRANCH   1  29
TORSDOF 9
ENDMDL
MODEL 4
REMARK VINA RESULT:      -7.5      1.853      2.232
REMARK  Name = 
REMARK  11 active torsions:
REMARK  status: ('A' for Active; 'I' for Inactive)
REMARK    1  A    between atoms: C_1  and  C_2
REMARK    2  A    between atoms: C_2  and  O_4
REMARK    3  A    between atoms: O_4  and  C_5
REMARK    4  A    between atoms: C_5  and  C_6
REMARK    5  A    between atoms: CA_7  and  C_8
REMARK    6  A    between atoms: C_8  and  OXT_10
REMARK    7  A    between atoms: CA_14  and  N_15
REMARK    8  A    between atoms: C_16  and  C_18
REMARK    9  A    between atoms: C_18  and  N_19
REMARK   10  A    between atoms: C_21  and  C_22
REMARK   11  A    between atoms: C_27  and  C_28
REMARK                            x       y       z     vdW  Elec       q    Type
REMARK                         _______ _______ _______ _____ _____    ______ ____
ROOT
ATOM      1  C   UNL     1       4.292   4.107  18.564  0.00  0.00    +0.000 C 
ATOM      2  CA  UNL     1       3.651   3.274  19.424  0.00  0.00    +0.000 C 
ATOM      3  N   UNL     1       2.322   3.462  19.834  0.00  0.00    +0.000 N 
ATOM      4  C   UNL     1       2.181   4.080  21.071  0.00  0.00    +0.000 C 
ATOM      5  O   UNL     1       2.324   3.606  22.174  0.00  0.00    +0.000 OA
ATOM      6  CA  UNL     1       2.034   5.472  20.374  0.00  0.00    +0.000 C 
ATOM      7  C   UNL     1       1.505   4.567  19.233  0.00  0.00    +0.000 C 
ATOM      8  S   UNL     1       1.866   4.935  17.525  0.00  0.00    +0.000 S 
ATOM      9  C   UNL     1       3.630   5.125  17.675  0.00  0.00    +0.000 C 
ENDROOT
BRANCH   6  10
ATOM     10  N   UNL     1       1.119   6.462  20.974  0.00  0.00    +0.000 N 
ATOM     11  C   UNL     1       1.266   7.793  20.635  0.00  0.00    +0.000 C 
ATOM     12  O   UNL     1       1.995   8.154  19.712  0.00  0.00    +0.000 OA
ATOM     13  H   UNL     1       0.590   6.244  21.819  0.00  0.00    +0.000 HD
BRANCH  11  14
ATOM     14  C   UNL     1       0.545   8.782  21.511  0.00  0.00    +0.000 C 
BRANCH  14  15
ATOM     15  N   UNL     1       0.575  10.107  20.928  0.00  0.00    +0.000 N 
ATOM     16  N   UNL     1       1.447  11.009  21.433  0.00  0.00    +0.000 NA
ATOM     17  C   UNL     1       1.239  12.113  20.687  0.00  0.00    +0.000 A 
ATOM     18  C   UNL     1       0.197  11.907  19.752  0.00  0.00    +0.000 A 
ATOM     19 CL   UNL     1      -0.412  13.050  18.654  0.00  0.00    +0.000 Cl
ATOM     20  C   UNL     1      -0.205  10.600  19.915  0.00  0.00    +0.000 A 
ATOM     21  C   UNL     1      -1.241   9.801  19.212  0.00  0.00    +0.000 C 
BRANCH  17  22
ATOM     22  C   UNL     1       2.044  13.356  20.881  0.00  0.00    +0.000 C 
ATOM     23  F   UNL     1       2.789  13.640  19.776  0.00  0.00    +0.000 F 
ATOM     24  F   UNL     1       1.249  14.438  21.095  0.00  0.00    +0.000 F 
ENDBRANCH  17  22
ENDBRANCH  14  15
ENDBRANCH  11  14
ENDBRANCH   6  10
BRANCH   2  25
ATOM     25  C   UNL     1       4.428   2.144  20.081  0.00  0.00    +0.000 C 
ATOM     26  O   UNL     1       4.886   2.204  21.211  0.00  0.00    +0.000 OA
BRANCH  25  27
ATOM     27  OXT UNL     1       4.657   1.069  19.295  0.00  0.00    +0.000 OA
ATOM     28  HXT UNL     1       4.844   0.225  19.756  0.00  0.00    +0.000 HD
ENDBRANCH  25  27
ENDBRANCH   2  25
BRANCH   1  29
ATOM     29  C   UNL     1       5.808   4.269  18.486  0.00  0.00    +0.000 C 
BRANCH  29  30
ATOM     30  O   UNL     1       6.269   5.396  19.253  0.00  0.00    +0.000 OA
BRANCH  30  32
ATOM     31  C   UNL     1       7.770   6.817  18.164  0.00  0.00    +0.000 C 
ATOM     32  C   UNL     1       7.585   5.716  19.161  0.00  0.00    +0.000 C 
ATOM     33  O   UNL     1       8.499   5.141  19.739  0.00  0.00    +0.000 OA
ENDBRANCH  30  32
ENDBRANCH  29  30
ENDBRANCH   1  29
TORSDOF 9
ENDMDL
MODEL 5
REMARK VINA RESULT:      -7.5      1.937      2.320
REMARK  Name = 
REMARK  11 active torsions:
REMARK  status: ('A' for Active; 'I' for Inactive)
REMARK    1  A    between atoms: C_1  and  C_2
REMARK    2  A    between atoms: C_2  and  O_4
REMARK    3  A    between atoms: O_4  and  C_5
REMARK    4  A    between atoms: C_5  and  C_6
REMARK    5  A    between atoms: CA_7  and  C_8
REMARK    6  A    between atoms: C_8  and  OXT_10
REMARK    7  A    between atoms: CA_14  and  N_15
REMARK    8  A    between atoms: C_16  and  C_18
REMARK    9  A    between atoms: C_18  and  N_19
REMARK   10  A    between atoms: C_21  and  C_22
REMARK   11  A    between atoms: C_27  and  C_28
REMARK                            x       y       z     vdW  Elec       q    Type
REMARK                         _______ _______ _______ _____ _____    ______ ____
ROOT
ATOM      1  C   UNL     1       4.136   3.919  18.443  0.00  0.00    +0.000 C 
ATOM      2  CA  UNL     1       3.565   3.121  19.383  0.00  0.00    +0.000 C 
ATOM      3  N   UNL     1       2.284   3.346  19.911  0.00  0.00    +0.000 N 
ATOM      4  C   UNL     1       2.270   4.000  21.137  0.00  0.00    +0.000 C 
ATOM      5  O   UNL     1       2.509   3.554  22.235  0.00  0.00    +0.000 OA
ATOM      6  CA  UNL     1       2.081   5.375  20.417  0.00  0.00    +0.000 C 
ATOM      7  C   UNL     1       1.432   4.450  19.357  0.00  0.00    +0.000 C 
ATOM      8  S   UNL     1       1.637   4.764  17.613  0.00  0.00    +0.000 S 
ATOM      9  C   UNL     1       3.410   4.925  17.591  0.00  0.00    +0.000 C 
ENDROOT
BRANCH   6  10
ATOM     10  N   UNL     1       1.244   6.398  21.072  0.00  0.00    +0.000 N 
ATOM     11  C   UNL     1       1.404   7.721  20.706  0.00  0.00    +0.000 C 
ATOM     12  O   UNL     1       2.071   8.050  19.727  0.00  0.00    +0.000 OA
ATOM     13  H   UNL     1       0.773   6.205  21.956  0.00  0.00    +0.000 HD
BRANCH  11  14
ATOM     14  C   UNL     1       0.780   8.740  21.622  0.00  0.00    +0.000 C 
BRANCH  14  15
ATOM     15  N   UNL     1       0.703  10.034  20.978  0.00  0.00    +0.000 N 
ATOM     16  N   UNL     1       1.480  11.033  21.454  0.00  0.00    +0.000 NA
ATOM     17  C   UNL     1       1.189  12.079  20.654  0.00  0.00    +0.000 A 
ATOM     18  C   UNL     1       0.189  11.738  19.712  0.00  0.00    +0.000 A 
ATOM     19 CL   UNL     1      -0.497  12.769  18.552  0.00  0.00    +0.000 Cl
ATOM     20  C   UNL     1      -0.097  10.408  19.929  0.00  0.00    +0.000 A 
ATOM     21  C   UNL     1      -1.042   9.487  19.248  0.00  0.00    +0.000 C 
BRANCH  17  22
ATOM     22  C   UNL     1       1.875  13.398  20.802  0.00  0.00    +0.000 C 
ATOM     23  F   UNL     1       1.356  14.112  21.840  0.00  0.00    +0.000 F 
ATOM     24  F   UNL     1       3.200  13.244  21.068  0.00  0.00    +0.000 F 
ENDBRANCH  17  22
ENDBRANCH  14  15
ENDBRANCH  11  14
ENDBRANCH   6  10
BRANCH   2  25
ATOM     25  C   UNL     1       4.382   1.995  19.996  0.00  0.00    +0.000 C 
ATOM     26  O   UNL     1       4.949   2.079  21.074  0.00  0.00    +0.000 OA
BRANCH  25  27
ATOM     27  OXT UNL     1       4.513   0.893  19.226  0.00  0.00    +0.000 OA
ATOM     28  HXT UNL     1       3.714   0.338  19.120  0.00  0.00    +0.000 HD
ENDBRANCH  25  27
ENDBRANCH   2  25
BRANCH   1  29
ATOM     29  C   UNL     1       5.641   4.049  18.218  0.00  0.00    +0.000 C 
BRANCH  29  30
ATOM     30  O   UNL     1       5.944   4.853  17.064  0.00  0.00    +0.000 OA
BRANCH  30  32
ATOM     31  C   UNL     1       6.885   4.679  14.933  0.00  0.00    +0.000 C 
ATOM     32  C   UNL     1       7.104   4.591  16.411  0.00  0.00    +0.000 C 
ATOM     33  O   UNL     1       8.157   4.253  16.937  0.00  0.00    +0.000 OA
ENDBRANCH  30  32
ENDBRANCH  29  30
ENDBRANCH   1  29
TORSDOF 9
ENDMDL
MODEL 6
REMARK VINA RESULT:      -7.4      0.859      1.086
REMARK  Name = 
REMARK  11 active torsions:
REMARK  status: ('A' for Active; 'I' for Inactive)
REMARK    1  A    between atoms: C_1  and  C_2
REMARK    2  A    between atoms: C_2  and  O_4
REMARK    3  A    between atoms: O_4  and  C_5
REMARK    4  A    between atoms: C_5  and  C_6
REMARK    5  A    between atoms: CA_7  and  C_8
REMARK    6  A    between atoms: C_8  and  OXT_10
REMARK    7  A    between atoms: CA_14  and  N_15
REMARK    8  A    between atoms: C_16  and  C_18
REMARK    9  A    between atoms: C_18  and  N_19
REMARK   10  A    between atoms: C_21  and  C_22
REMARK   11  A    between atoms: C_27  and  C_28
REMARK                            x       y       z     vdW  Elec       q    Type
REMARK                         _______ _______ _______ _____ _____    ______ ____
ROOT
ATOM      1  C   UNL     1       4.050   3.914  18.305  0.00  0.00    +0.000 C 
ATOM      2  CA  UNL     1       3.478   3.111  19.240  0.00  0.00    +0.000 C 
ATOM      3  N   UNL     1       2.238   3.385  19.838  0.00  0.00    +0.000 N 
ATOM      4  C   UNL     1       2.319   3.986  21.088  0.00  0.00    +0.000 C 
ATOM      5  O   UNL     1       2.583   3.483  22.155  0.00  0.00    +0.000 OA
ATOM      6  CA  UNL     1       2.176   5.399  20.432  0.00  0.00    +0.000 C 
ATOM      7  C   UNL     1       1.426   4.556  19.370  0.00  0.00    +0.000 C 
ATOM      8  S   UNL     1       1.567   4.930  17.631  0.00  0.00    +0.000 S 
ATOM      9  C   UNL     1       3.344   4.993  17.529  0.00  0.00    +0.000 C 
ENDROOT
BRANCH   6  10
ATOM     10  N   UNL     1       1.430   6.438  21.166  0.00  0.00    +0.000 N 
ATOM     11  C   UNL     1       1.565   7.756  20.771  0.00  0.00    +0.000 C 
ATOM     12  O   UNL     1       2.122   8.068  19.719  0.00  0.00    +0.000 OA
ATOM     13  H   UNL     1       1.060   6.260  22.099  0.00  0.00    +0.000 HD
BRANCH  11  14
ATOM     14  C   UNL     1       1.060   8.791  21.740  0.00  0.00    +0.000 C 
BRANCH  14  15
ATOM     15  N   UNL     1       0.141   9.702  21.090  0.00  0.00    +0.000 N 
ATOM     16  N   UNL     1       0.116   9.731  19.739  0.00  0.00    +0.000 NA
ATOM     17  C   UNL     1      -0.825  10.653  19.452  0.00  0.00    +0.000 A 
ATOM     18  C   UNL     1      -1.347  11.233  20.632  0.00  0.00    +0.000 A 
ATOM     19 CL   UNL     1      -2.516  12.461  20.720  0.00  0.00    +0.000 Cl
ATOM     20  C   UNL     1      -0.720  10.592  21.678  0.00  0.00    +0.000 A 
ATOM     21  C   UNL     1      -0.862  10.750  23.148  0.00  0.00    +0.000 C 
BRANCH  17  22
ATOM     22  C   UNL     1      -1.214  10.967  18.044  0.00  0.00    +0.000 C 
ATOM     23  F   UNL     1      -2.492  10.572  17.784  0.00  0.00    +0.000 F 
ATOM     24  F   UNL     1      -1.169  12.304  17.800  0.00  0.00    +0.000 F 
ENDBRANCH  17  22
ENDBRANCH  14  15
ENDBRANCH  11  14
ENDBRANCH   6  10
BRANCH   2  25
ATOM     25  C   UNL     1       4.256   1.917  19.768  0.00  0.00    +0.000 C 
ATOM     26  O   UNL     1       4.304   0.835  19.204  0.00  0.00    +0.000 OA
BRANCH  25  27
ATOM     27  OXT UNL     1       4.846   2.098  20.971  0.00  0.00    +0.000 OA
ATOM     28  HXT UNL     1       4.866   3.015  21.312  0.00  0.00    +0.000 HD
ENDBRANCH  25  27
ENDBRANCH   2  25
BRANCH   1  29
ATOM     29  C   UNL     1       5.547   3.969  18.012  0.00  0.00    +0.000 C 
BRANCH  29  30
ATOM     30  O   UNL     1       5.843   3.598  16.654  0.00  0.00    +0.000 OA
BRANCH  30  32
ATOM     31  C   UNL     1       5.935   5.023  14.804  0.00  0.00    +0.000 C 
ATOM     32  C   UNL     1       6.674   4.412  15.954  0.00  0.00    +0.000 C 
ATOM     33  O   UNL     1       7.869   4.567  16.172  0.00  0.00    +0.000 OA
ENDBRANCH  30  32
ENDBRANCH  29  30
ENDBRANCH   1  29
TORSDOF 9
ENDMDL
MODEL 7
REMARK VINA RESULT:      -7.4      1.341      1.432
REMARK  Name = 
REMARK  11 active torsions:
REMARK  status: ('A' for Active; 'I' for Inactive)
REMARK    1  A    between atoms: C_1  and  C_2
REMARK    2  A    between atoms: C_2  and  O_4
REMARK    3  A    between atoms: O_4  and  C_5
REMARK    4  A    between atoms: C_5  and  C_6
REMARK    5  A    between atoms: CA_7  and  C_8
REMARK    6  A    between atoms: C_8  and  OXT_10
REMARK    7  A    between atoms: CA_14  and  N_15
REMARK    8  A    between atoms: C_16  and  C_18
REMARK    9  A    between atoms: C_18  and  N_19
REMARK   10  A    between atoms: C_21  and  C_22
REMARK   11  A    between atoms: C_27  and  C_28
REMARK                            x       y       z     vdW  Elec       q    Type
REMARK                         _______ _______ _______ _____ _____    ______ ____
ROOT
ATOM      1  C   UNL     1       4.221   3.916  18.320  0.00  0.00    +0.000 C 
ATOM      2  CA  UNL     1       3.648   3.038  19.185  0.00  0.00    +0.000 C 
ATOM      3  N   UNL     1       2.374   3.227  19.744  0.00  0.00    +0.000 N 
ATOM      4  C   UNL     1       2.379   3.761  21.027  0.00  0.00    +0.000 C 
ATOM      5  O   UNL     1       2.621   3.208  22.075  0.00  0.00    +0.000 OA
ATOM      6  CA  UNL     1       2.202   5.201  20.444  0.00  0.00    +0.000 C 
ATOM      7  C   UNL     1       1.532   4.389  19.306  0.00  0.00    +0.000 C 
ATOM      8  S   UNL     1       1.726   4.867  17.598  0.00  0.00    +0.000 S 
ATOM      9  C   UNL     1       3.501   5.007  17.575  0.00  0.00    +0.000 C 
ENDROOT
BRANCH   6  10
ATOM     10  N   UNL     1       1.383   6.166  21.202  0.00  0.00    +0.000 N 
ATOM     11  C   UNL     1       1.472   7.507  20.880  0.00  0.00    +0.000 C 
ATOM     12  O   UNL     1       2.051   7.899  19.868  0.00  0.00    +0.000 OA
ATOM     13  H   UNL     1       0.988   5.922  22.109  0.00  0.00    +0.000 HD
BRANCH  11  14
ATOM     14  C   UNL     1       0.885   8.466  21.882  0.00  0.00    +0.000 C 
BRANCH  14  15
ATOM     15  N   UNL     1       0.670   9.768  21.285  0.00  0.00    +0.000 N 
ATOM     16  N   UNL     1       1.360  10.081  20.165  0.00  0.00    +0.000 NA
ATOM     17  C   UNL     1       0.940  11.327  19.864  0.00  0.00    +0.000 A 
ATOM     18  C   UNL     1       0.024  11.804  20.831  0.00  0.00    +0.000 A 
ATOM     19 CL   UNL     1      -0.710  13.334  20.855  0.00  0.00    +0.000 Cl
ATOM     20  C   UNL     1      -0.147  10.775  21.730  0.00  0.00    +0.000 A 
ATOM     21  C   UNL     1      -0.995  10.668  22.945  0.00  0.00    +0.000 C 
BRANCH  17  22
ATOM     22  C   UNL     1       1.422  12.046  18.646  0.00  0.00    +0.000 C 
ATOM     23  F   UNL     1       2.114  13.172  18.979  0.00  0.00    +0.000 F 
ATOM     24  F   UNL     1       2.272  11.277  17.916  0.00  0.00    +0.000 F 
ENDBRANCH  17  22
ENDBRANCH  14  15
ENDBRANCH  11  14
ENDBRANCH   6  10
BRANCH   2  25
ATOM     25  C   UNL     1       4.454   1.849  19.680  0.00  0.00    +0.000 C 
ATOM     26  O   UNL     1       5.134   1.865  20.694  0.00  0.00    +0.000 OA
BRANCH  25  27
ATOM     27  OXT UNL     1       4.440   0.766  18.872  0.00  0.00    +0.000 OA
ATOM     28  HXT UNL     1       3.942   0.854  18.034  0.00  0.00    +0.000 HD
ENDBRANCH  25  27
ENDBRANCH   2  25
BRANCH   1  29
ATOM     29  C   UNL     1       5.725   4.048  18.094  0.00  0.00    +0.000 C 
BRANCH  29  30
ATOM     30  O   UNL     1       6.158   5.420  18.151  0.00  0.00    +0.000 OA
BRANCH  30  32
ATOM     31  C   UNL     1       7.505   7.229  17.542  0.00  0.00    +0.000 C 
ATOM     32  C   UNL     1       7.142   5.797  17.296  0.00  0.00    +0.000 C 
ATOM     33  O   UNL     1       7.612   5.106  16.402  0.00  0.00    +0.000 OA
ENDBRANCH  30  32
ENDBRANCH  29  30
ENDBRANCH   1  29
TORSDOF 9
ENDMDL
MODEL 8
REMARK VINA RESULT:      -7.3      2.520      3.529
REMARK  Name = 
REMARK  11 active torsions:
REMARK  status: ('A' for Active; 'I' for Inactive)
REMARK    1  A    between atoms: C_1  and  C_2
REMARK    2  A    between atoms: C_2  and  O_4
REMARK    3  A    between atoms: O_4  and  C_5
REMARK    4  A    between atoms: C_5  and  C_6
REMARK    5  A    between atoms: CA_7  and  C_8
REMARK    6  A    between atoms: C_8  and  OXT_10
REMARK    7  A    between atoms: CA_14  and  N_15
REMARK    8  A    between atoms: C_16  and  C_18
REMARK    9  A    between atoms: C_18  and  N_19
REMARK   10  A    between atoms: C_21  and  C_22
REMARK   11  A    between atoms: C_27  and  C_28
REMARK                            x       y       z     vdW  Elec       q    Type
REMARK                         _______ _______ _______ _____ _____    ______ ____
ROOT
ATOM      1  C   UNL     1       5.051   4.297  16.316  0.00  0.00    +0.000 C 
ATOM      2  CA  UNL     1       6.023   4.288  17.266  0.00  0.00    +0.000 C 
ATOM      3  N   UNL     1       5.765   4.075  18.630  0.00  0.00    +0.000 N 
ATOM      4  C   UNL     1       5.690   5.234  19.391  0.00  0.00    +0.000 C 
ATOM      5  O   UNL     1       6.589   5.934  19.797  0.00  0.00    +0.000 OA
ATOM      6  CA  UNL     1       4.135   5.257  19.228  0.00  0.00    +0.000 C 
ATOM      7  C   UNL     1       4.377   3.733  19.083  0.00  0.00    +0.000 C 
ATOM      8  S   UNL     1       3.423   2.755  17.935  0.00  0.00    +0.000 S 
ATOM      9  C   UNL     1       3.653   3.768  16.488  0.00  0.00    +0.000 C 
ENDROOT
BRANCH   6  10
ATOM     10  N   UNL     1       3.319   5.739  20.359  0.00  0.00    +0.000 N 
ATOM     11  C   UNL     1       1.950   5.831  20.198  0.00  0.00    +0.000 C 
ATOM     12  O   UNL     1       1.373   5.345  19.226  0.00  0.00    +0.000 OA
ATOM     13  H   UNL     1       3.742   6.260  21.127  0.00  0.00    +0.000 HD
BRANCH  11  14
ATOM     14  C   UNL     1       1.215   6.629  21.241  0.00  0.00    +0.000 C 
BRANCH  14  15
ATOM     15  N   UNL     1       1.074   8.011  20.831  0.00  0.00    +0.000 N 
ATOM     16  N   UNL     1       1.640   8.393  19.665  0.00  0.00    +0.000 NA
ATOM     17  C   UNL     1       1.331   9.702  19.568  0.00  0.00    +0.000 A 
ATOM     18  C   UNL     1       0.614  10.142  20.706  0.00  0.00    +0.000 A 
ATOM     19 CL   UNL     1       0.071  11.722  21.007  0.00  0.00    +0.000 Cl
ATOM     20  C   UNL     1       0.446   9.029  21.500  0.00  0.00    +0.000 A 
ATOM     21  C   UNL     1      -0.239   8.854  22.806  0.00  0.00    +0.000 C 
BRANCH  17  22
ATOM     22  C   UNL     1       1.727  10.518  18.381  0.00  0.00    +0.000 C 
ATOM     23  F   UNL     1       2.003   9.727  17.306  0.00  0.00    +0.000 F 
ATOM     24  F   UNL     1       0.728  11.355  17.994  0.00  0.00    +0.000 F 
ENDBRANCH  17  22
ENDBRANCH  14  15
ENDBRANCH  11  14
ENDBRANCH   6  10
BRANCH   2  25
ATOM     25  C   UNL     1       7.448   4.642  16.874  0.00  0.00    +0.000 C 
ATOM     26  O   UNL     1       8.432   4.048  17.286  0.00  0.00    +0.000 OA
BRANCH  25  27
ATOM     27  OXT UNL     1       7.575   5.731  16.084  0.00  0.00    +0.000 OA
ATOM     28  HXT UNL     1       8.442   5.851  15.644  0.00  0.00    +0.000 HD
ENDBRANCH  25  27
ENDBRANCH   2  25
BRANCH   1  29
ATOM     29  C   UNL     1       5.167   5.008  14.969  0.00  0.00    +0.000 C 
BRANCH  29  30
ATOM     30  O   UNL     1       5.263   4.076  13.877  0.00  0.00    +0.000 OA
BRANCH  30  32
ATOM     31  C   UNL     1       6.318   3.081  12.045  0.00  0.00    +0.000 C 
ATOM     32  C   UNL     1       6.393   4.114  13.125  0.00  0.00    +0.000 C 
ATOM     33  O   UNL     1       7.367   4.825  13.339  0.00  0.00    +0.000 OA
ENDBRANCH  30  32
ENDBRANCH  29  30
ENDBRANCH   1  29
TORSDOF 9
ENDMDL
MODEL 9
REMARK VINA RESULT:      -7.3      4.823      9.049
REMARK  Name = 
REMARK  11 active torsions:
REMARK  status: ('A' for Active; 'I' for Inactive)
REMARK    1  A    between atoms: C_1  and  C_2
REMARK    2  A    between atoms: C_2  and  O_4
REMARK    3  A    between atoms: O_4  and  C_5
REMARK    4  A    between atoms: C_5  and  C_6
REMARK    5  A    between atoms: CA_7  and  C_8
REMARK    6  A    between atoms: C_8  and  OXT_10
REMARK    7  A    between atoms: CA_14  and  N_15
REMARK    8  A    between atoms: C_16  and  C_18
REMARK    9  A    between atoms: C_18  and  N_19
REMARK   10  A    between atoms: C_21  and  C_22
REMARK   11  A    between atoms: C_27  and  C_28
REMARK                            x       y       z     vdW  Elec       q    Type
REMARK                         _______ _______ _______ _____ _____    ______ ____
ROOT
ATOM      1  C   UNL     1      -0.874  10.898  19.238  0.00  0.00    +0.000 C 
ATOM      2  CA  UNL     1      -0.350  11.253  20.440  0.00  0.00    +0.000 C 
ATOM      3  N   UNL     1       0.923  10.851  20.876  0.00  0.00    +0.000 N 
ATOM      4  C   UNL     1       0.921   9.756  21.731  0.00  0.00    +0.000 C 
ATOM      5  O   UNL     1       0.642   9.714  22.907  0.00  0.00    +0.000 OA
ATOM      6  CA  UNL     1       1.165   8.794  20.522  0.00  0.00    +0.000 C 
ATOM      7  C   UNL     1       1.818  10.079  19.952  0.00  0.00    +0.000 C 
ATOM      8  S   UNL     1       1.668  10.497  18.224  0.00  0.00    +0.000 S 
ATOM      9  C   UNL     1      -0.100  10.335  18.077  0.00  0.00    +0.000 C 
ENDROOT
BRANCH   6  10
ATOM     10  N   UNL     1       2.013   7.605  20.735  0.00  0.00    +0.000 N 
ATOM     11  C   UNL     1       2.346   6.823  19.645  0.00  0.00    +0.000 C 
ATOM     12  O   UNL     1       2.128   7.189  18.490  0.00  0.00    +0.000 OA
ATOM     13  H   UNL     1       2.117   7.193  21.662  0.00  0.00    +0.000 HD
BRANCH  11  14
ATOM     14  C   UNL     1       2.918   5.466  19.955  0.00  0.00    +0.000 C 
BRANCH  14  15
ATOM     15  N   UNL     1       3.979   5.129  19.030  0.00  0.00    +0.000 N 
ATOM     16  N   UNL     1       5.220   5.604  19.278  0.00  0.00    +0.000 NA
ATOM     17  C   UNL     1       5.963   5.119  18.263  0.00  0.00    +0.000 A 
ATOM     18  C   UNL     1       5.165   4.384  17.354  0.00  0.00    +0.000 A 
ATOM     19 CL   UNL     1       5.692   3.643  15.921  0.00  0.00    +0.000 Cl
ATOM     20  C   UNL     1       3.891   4.390  17.879  0.00  0.00    +0.000 A 
ATOM     21  C   UNL     1       2.630   3.774  17.393  0.00  0.00    +0.000 C 
BRANCH  17  22
ATOM     22  C   UNL     1       7.434   5.366  18.175  0.00  0.00    +0.000 C 
ATOM     23  F   UNL     1       7.935   5.798  19.366  0.00  0.00    +0.000 F 
ATOM     24  F   UNL     1       8.113   4.231  17.863  0.00  0.00    +0.000 F 
ENDBRANCH  17  22
ENDBRANCH  14  15
ENDBRANCH  11  14
ENDBRANCH   6  10
BRANCH   2  25
ATOM     25  C   UNL     1      -1.212  12.021  21.428  0.00  0.00    +0.000 C 
ATOM     26  O   UNL     1      -1.903  11.489  22.282  0.00  0.00    +0.000 OA
BRANCH  25  27
ATOM     27  OXT UNL     1      -1.232  13.362  21.256  0.00  0.00    +0.000 OA
ATOM     28  HXT UNL     1      -1.217  13.906  22.070  0.00  0.00    +0.000 HD
ENDBRANCH  25  27
ENDBRANCH   2  25
BRANCH   1  29
ATOM     29  C   UNL     1      -2.368  10.850  18.927  0.00  0.00    +0.000 C 
BRANCH  29  30
ATOM     30  O   UNL     1      -2.675   9.875  17.914  0.00  0.00    +0.000 OA
BRANCH  30  32
ATOM     31  C   UNL     1      -2.899   9.860  15.589  0.00  0.00    +0.000 C 
ATOM     32  C   UNL     1      -3.491  10.266  16.902  0.00  0.00    +0.000 C 
ATOM     33  O   UNL     1      -4.517  10.923  17.028  0.00  0.00    +0.000 OA
ENDBRANCH  30  32
ENDBRANCH  29  30
ENDBRANCH   1  29
TORSDOF 9
ENDMDL
