MODEL 1
REMARK VINA RESULT:      -7.8      0.000      0.000
REMARK  Name = 
REMARK  2 active torsions:
REMARK  status: ('A' for Active; 'I' for Inactive)
REMARK    1  A    between atoms: C_6  and  C_7
REMARK    2  A    between atoms: C_9  and  C_10
REMARK                            x       y       z     vdW  Elec       q    Type
REMARK                         _______ _______ _______ _____ _____    ______ ____
ROOT
ATOM      1  C   UNL     1       5.631   4.202  16.190  0.00  0.00    +0.000 A 
ATOM      2  N   UNL     1       4.378   4.072  16.586  0.00  0.00    +0.000 NA
ATOM      3  C   UNL     1       4.391   4.179  17.960  0.00  0.00    +0.000 A 
ATOM      4  C   UNL     1       5.677   4.370  18.411  0.00  0.00    +0.000 A 
ATOM      5  N   UNL     1       6.448   4.386  17.284  0.00  0.00    +0.000 N 
ATOM      6  H   UNL     1       7.444   4.539  17.247  0.00  0.00    +0.000 HD
ENDROOT
BRANCH   1  12
ATOM      7 CL   UNL     1       5.079   2.540  11.320  0.00  0.00    +0.000 Cl
ATOM      8  C   UNL     1       5.905   3.463  12.515  0.00  0.00    +0.000 A 
ATOM      9  C   UNL     1       7.004   4.237  12.145  0.00  0.00    +0.000 A 
ATOM     10  C   UNL     1       7.672   4.989  13.108  0.00  0.00    +0.000 A 
ATOM     11  C   UNL     1       7.233   4.975  14.434  0.00  0.00    +0.000 A 
ATOM     12  C   UNL     1       6.120   4.207  14.813  0.00  0.00    +0.000 A 
ATOM     13  C   UNL     1       5.465   3.440  13.839  0.00  0.00    +0.000 A 
ENDBRANCH   1  12
BRANCH   3  14
ATOM     14  C   UNL     1       3.205   4.099  18.791  0.00  0.00    +0.000 A 
ATOM     15  C   UNL     1       3.133   4.840  19.978  0.00  0.00    +0.000 A 
ATOM     16  C   UNL     1       1.999   4.766  20.792  0.00  0.00    +0.000 A 
ATOM     17  C   UNL     1       0.933   3.943  20.431  0.00  0.00    +0.000 A 
ATOM     18  C   UNL     1       0.994   3.199  19.256  0.00  0.00    +0.000 A 
ATOM     19  C   UNL     1       2.124   3.280  18.436  0.00  0.00    +0.000 A 
ENDBRANCH   3  14
TORSDOF 2
ENDMDL
MODEL 2
REMARK VINA RESULT:      -7.8      0.042      1.138
REMARK  Name = 
REMARK  2 active torsions:
REMARK  status: ('A' for Active; 'I' for Inactive)
REMARK    1  A    between atoms: C_6  and  C_7
REMARK    2  A    between atoms: C_9  and  C_10
REMARK                            x       y       z     vdW  Elec       q    Type
REMARK                         _______ _______ _______ _____ _____    ______ ____
ROOT
ATOM      1  C   UNL     1       5.647   4.214  16.196  0.00  0.00    +0.000 A 
ATOM      2  N   UNL     1       4.395   4.080  16.594  0.00  0.00    +0.000 NA
ATOM      3  C   UNL     1       4.410   4.188  17.968  0.00  0.00    +0.000 A 
ATOM      4  C   UNL     1       5.696   4.384  18.416  0.00  0.00    +0.000 A 
ATOM      5  N   UNL     1       6.465   4.401  17.288  0.00  0.00    +0.000 N 
ATOM      6  H   UNL     1       7.461   4.558  17.249  0.00  0.00    +0.000 HD
ENDROOT
BRANCH   1  12
ATOM      7 CL   UNL     1       5.120   2.510  11.337  0.00  0.00    +0.000 Cl
ATOM      8  C   UNL     1       5.929   3.457  12.524  0.00  0.00    +0.000 A 
ATOM      9  C   UNL     1       7.012   4.250  12.148  0.00  0.00    +0.000 A 
ATOM     10  C   UNL     1       7.667   5.022  13.105  0.00  0.00    +0.000 A 
ATOM     11  C   UNL     1       7.230   5.007  14.432  0.00  0.00    +0.000 A 
ATOM     12  C   UNL     1       6.133   4.220  14.817  0.00  0.00    +0.000 A 
ATOM     13  C   UNL     1       5.492   3.434  13.849  0.00  0.00    +0.000 A 
ENDBRANCH   1  12
BRANCH   3  14
ATOM     14  C   UNL     1       3.225   4.104  18.801  0.00  0.00    +0.000 A 
ATOM     15  C   UNL     1       2.181   3.241  18.444  0.00  0.00    +0.000 A 
ATOM     16  C   UNL     1       1.031   3.156  19.234  0.00  0.00    +0.000 A 
ATOM     17  C   UNL     1       0.911   3.941  20.380  0.00  0.00    +0.000 A 
ATOM     18  C   UNL     1       1.942   4.804  20.744  0.00  0.00    +0.000 A 
ATOM     19  C   UNL     1       3.096   4.883  19.959  0.00  0.00    +0.000 A 
ENDBRANCH   3  14
TORSDOF 2
ENDMDL
MODEL 3
REMARK VINA RESULT:      -7.7      1.282      2.056
REMARK  Name = 
REMARK  2 active torsions:
REMARK  status: ('A' for Active; 'I' for Inactive)
REMARK    1  A    between atoms: C_6  and  C_7
REMARK    2  A    between atoms: C_9  and  C_10
REMARK                            x       y       z     vdW  Elec       q    Type
REMARK                         _______ _______ _______ _____ _____    ______ ____
ROOT
ATOM      1  C   UNL     1       5.555   4.127  16.143  0.00  0.00    +0.000 A 
ATOM      2  N   UNL     1       4.303   3.991  16.543  0.00  0.00    +0.000 NA
ATOM      3  C   UNL     1       4.325   4.050  17.919  0.00  0.00    +0.000 A 
ATOM      4  C   UNL     1       5.615   4.217  18.368  0.00  0.00    +0.000 A 
ATOM      5  N   UNL     1       6.380   4.267  17.238  0.00  0.00    +0.000 N 
ATOM      6  H   UNL     1       7.376   4.415  17.200  0.00  0.00    +0.000 HD
ENDROOT
BRANCH   1  12
ATOM      7 CL   UNL     1       8.952   6.030  12.734  0.00  0.00    +0.000 Cl
ATOM      8  C   UNL     1       7.605   5.033  13.126  0.00  0.00    +0.000 A 
ATOM      9  C   UNL     1       7.016   4.254  12.131  0.00  0.00    +0.000 A 
ATOM     10  C   UNL     1       5.929   3.441  12.446  0.00  0.00    +0.000 A 
ATOM     11  C   UNL     1       5.441   3.403  13.754  0.00  0.00    +0.000 A 
ATOM     12  C   UNL     1       6.035   4.176  14.764  0.00  0.00    +0.000 A 
ATOM     13  C   UNL     1       7.118   5.003  14.433  0.00  0.00    +0.000 A 
ENDBRANCH   1  12
BRANCH   3  14
ATOM     14  C   UNL     1       3.143   3.949  18.754  0.00  0.00    +0.000 A 
ATOM     15  C   UNL     1       2.096   3.097  18.380  0.00  0.00    +0.000 A 
ATOM     16  C   UNL     1       0.948   2.995  19.172  0.00  0.00    +0.000 A 
ATOM     17  C   UNL     1       0.834   3.752  20.338  0.00  0.00    +0.000 A 
ATOM     18  C   UNL     1       1.868   4.604  20.718  0.00  0.00    +0.000 A 
ATOM     19  C   UNL     1       3.020   4.699  19.932  0.00  0.00    +0.000 A 
ENDBRANCH   3  14
TORSDOF 2
ENDMDL
MODEL 4
REMARK VINA RESULT:      -7.7      2.745      7.130
REMARK  Name = 
REMARK  2 active torsions:
REMARK  status: ('A' for Active; 'I' for Inactive)
REMARK    1  A    between atoms: C_6  and  C_7
REMARK    2  A    between atoms: C_9  and  C_10
REMARK                            x       y       z     vdW  Elec       q    Type
REMARK                         _______ _______ _______ _____ _____    ______ ____
ROOT
ATOM      1  C   UNL     1       4.479   3.922  17.380  0.00  0.00    +0.000 A 
ATOM      2  N   UNL     1       4.563   3.941  16.062  0.00  0.00    +0.000 NA
ATOM      3  C   UNL     1       5.878   4.219  15.760  0.00  0.00    +0.000 A 
ATOM      4  C   UNL     1       6.609   4.381  16.915  0.00  0.00    +0.000 A 
ATOM      5  N   UNL     1       5.714   4.188  17.929  0.00  0.00    +0.000 N 
ATOM      6  H   UNL     1       5.922   4.202  18.916  0.00  0.00    +0.000 HD
ENDROOT
BRANCH   1  12
ATOM      7 CL   UNL     1       2.488   2.573  21.963  0.00  0.00    +0.000 Cl
ATOM      8  C   UNL     1       2.306   2.998  20.305  0.00  0.00    +0.000 A 
ATOM      9  C   UNL     1       1.028   3.092  19.757  0.00  0.00    +0.000 A 
ATOM     10  C   UNL     1       0.876   3.441  18.417  0.00  0.00    +0.000 A 
ATOM     11  C   UNL     1       2.002   3.705  17.633  0.00  0.00    +0.000 A 
ATOM     12  C   UNL     1       3.293   3.623  18.180  0.00  0.00    +0.000 A 
ATOM     13  C   UNL     1       3.434   3.254  19.525  0.00  0.00    +0.000 A 
ENDBRANCH   1  12
BRANCH   3  14
ATOM     14  C   UNL     1       6.396   4.322  14.409  0.00  0.00    +0.000 A 
ATOM     15  C   UNL     1       5.851   3.528  13.391  0.00  0.00    +0.000 A 
ATOM     16  C   UNL     1       6.345   3.611  12.086  0.00  0.00    +0.000 A 
ATOM     17  C   UNL     1       7.395   4.481  11.791  0.00  0.00    +0.000 A 
ATOM     18  C   UNL     1       7.946   5.273  12.795  0.00  0.00    +0.000 A 
ATOM     19  C   UNL     1       7.446   5.197  14.098  0.00  0.00    +0.000 A 
ENDBRANCH   3  14
TORSDOF 2
ENDMDL
MODEL 5
REMARK VINA RESULT:      -7.7      1.287      1.717
REMARK  Name = 
REMARK  2 active torsions:
REMARK  status: ('A' for Active; 'I' for Inactive)
REMARK    1  A    between atoms: C_6  and  C_7
REMARK    2  A    between atoms: C_9  and  C_10
REMARK                            x       y       z     vdW  Elec       q    Type
REMARK                         _______ _______ _______ _____ _____    ______ ____
ROOT
ATOM      1  C   UNL     1       5.549   4.121  16.122  0.00  0.00    +0.000 A 
ATOM      2  N   UNL     1       4.296   3.976  16.514  0.00  0.00    +0.000 NA
ATOM      3  C   UNL     1       4.309   4.036  17.891  0.00  0.00    +0.000 A 
ATOM      4  C   UNL     1       5.595   4.214  18.347  0.00  0.00    +0.000 A 
ATOM      5  N   UNL     1       6.366   4.268  17.221  0.00  0.00    +0.000 N 
ATOM      6  H   UNL     1       7.362   4.424  17.189  0.00  0.00    +0.000 HD
ENDROOT
BRANCH   1  12
ATOM      7 CL   UNL     1       8.973   6.021  12.738  0.00  0.00    +0.000 Cl
ATOM      8  C   UNL     1       7.619   5.029  13.118  0.00  0.00    +0.000 A 
ATOM      9  C   UNL     1       7.032   4.256  12.118  0.00  0.00    +0.000 A 
ATOM     10  C   UNL     1       5.939   3.448  12.423  0.00  0.00    +0.000 A 
ATOM     11  C   UNL     1       5.444   3.407  13.729  0.00  0.00    +0.000 A 
ATOM     12  C   UNL     1       6.037   4.174  14.745  0.00  0.00    +0.000 A 
ATOM     13  C   UNL     1       7.125   4.997  14.423  0.00  0.00    +0.000 A 
ENDBRANCH   1  12
BRANCH   3  14
ATOM     14  C   UNL     1       3.124   3.926  18.719  0.00  0.00    +0.000 A 
ATOM     15  C   UNL     1       2.995   4.725  19.863  0.00  0.00    +0.000 A 
ATOM     16  C   UNL     1       1.861   4.624  20.674  0.00  0.00    +0.000 A 
ATOM     17  C   UNL     1       0.852   3.716  20.354  0.00  0.00    +0.000 A 
ATOM     18  C   UNL     1       0.970   2.915  19.221  0.00  0.00    +0.000 A 
ATOM     19  C   UNL     1       2.100   3.022  18.404  0.00  0.00    +0.000 A 
ENDBRANCH   3  14
TORSDOF 2
ENDMDL
MODEL 6
REMARK VINA RESULT:      -7.6      2.716      7.076
REMARK  Name = 
REMARK  2 active torsions:
REMARK  status: ('A' for Active; 'I' for Inactive)
REMARK    1  A    between atoms: C_6  and  C_7
REMARK    2  A    between atoms: C_9  and  C_10
REMARK                            x       y       z     vdW  Elec       q    Type
REMARK                         _______ _______ _______ _____ _____    ______ ____
ROOT
ATOM      1  C   UNL     1       5.059   4.706  17.834  0.00  0.00    +0.000 A 
ATOM      2  N   UNL     1       4.948   4.730  16.518  0.00  0.00    +0.000 NA
ATOM      3  C   UNL     1       6.211   4.504  16.016  0.00  0.00    +0.000 A 
ATOM      4  C   UNL     1       7.111   4.347  17.045  0.00  0.00    +0.000 A 
ATOM      5  N   UNL     1       6.371   4.474  18.186  0.00  0.00    +0.000 N 
ATOM      6  H   UNL     1       6.712   4.381  19.130  0.00  0.00    +0.000 HD
ENDROOT
BRANCH   1  12
ATOM      7 CL   UNL     1       2.234   2.582  21.615  0.00  0.00    +0.000 Cl
ATOM      8  C   UNL     1       2.630   3.906  20.588  0.00  0.00    +0.000 A 
ATOM      9  C   UNL     1       1.943   5.111  20.728  0.00  0.00    +0.000 A 
ATOM     10  C   UNL     1       2.264   6.187  19.902  0.00  0.00    +0.000 A 
ATOM     11  C   UNL     1       3.275   6.057  18.948  0.00  0.00    +0.000 A 
ATOM     12  C   UNL     1       3.979   4.850  18.808  0.00  0.00    +0.000 A 
ATOM     13  C   UNL     1       3.637   3.769  19.633  0.00  0.00    +0.000 A 
ENDBRANCH   1  12
BRANCH   3  14
ATOM     14  C   UNL     1       6.524   4.444  14.601  0.00  0.00    +0.000 A 
ATOM     15  C   UNL     1       5.814   3.571  13.766  0.00  0.00    +0.000 A 
ATOM     16  C   UNL     1       6.110   3.498  12.402  0.00  0.00    +0.000 A 
ATOM     17  C   UNL     1       7.124   4.289  11.864  0.00  0.00    +0.000 A 
ATOM     18  C   UNL     1       7.838   5.159  12.684  0.00  0.00    +0.000 A 
ATOM     19  C   UNL     1       7.536   5.240  14.047  0.00  0.00    +0.000 A 
ENDBRANCH   3  14
TORSDOF 2
ENDMDL
MODEL 7
REMARK VINA RESULT:      -7.6      2.740      7.048
REMARK  Name = 
REMARK  2 active torsions:
REMARK  status: ('A' for Active; 'I' for Inactive)
REMARK    1  A    between atoms: C_6  and  C_7
REMARK    2  A    between atoms: C_9  and  C_10
REMARK                            x       y       z     vdW  Elec       q    Type
REMARK                         _______ _______ _______ _____ _____    ______ ____
ROOT
ATOM      1  C   UNL     1       4.480   3.940  17.363  0.00  0.00    +0.000 A 
ATOM      2  N   UNL     1       4.565   3.955  16.045  0.00  0.00    +0.000 NA
ATOM      3  C   UNL     1       5.886   4.206  15.743  0.00  0.00    +0.000 A 
ATOM      4  C   UNL     1       6.619   4.354  16.898  0.00  0.00    +0.000 A 
ATOM      5  N   UNL     1       5.721   4.181  17.912  0.00  0.00    +0.000 N 
ATOM      6  H   UNL     1       5.928   4.192  18.899  0.00  0.00    +0.000 HD
ENDROOT
BRANCH   1  12
ATOM      7 CL   UNL     1       2.463   2.604  21.939  0.00  0.00    +0.000 Cl
ATOM      8  C   UNL     1       2.290   3.049  20.285  0.00  0.00    +0.000 A 
ATOM      9  C   UNL     1       1.013   3.183  19.741  0.00  0.00    +0.000 A 
ATOM     10  C   UNL     1       0.868   3.548  18.404  0.00  0.00    +0.000 A 
ATOM     11  C   UNL     1       1.999   3.788  17.620  0.00  0.00    +0.000 A 
ATOM     12  C   UNL     1       3.288   3.666  18.163  0.00  0.00    +0.000 A 
ATOM     13  C   UNL     1       3.422   3.281  19.505  0.00  0.00    +0.000 A 
ENDBRANCH   1  12
BRANCH   3  14
ATOM     14  C   UNL     1       6.406   4.295  14.391  0.00  0.00    +0.000 A 
ATOM     15  C   UNL     1       7.432   5.202  14.098  0.00  0.00    +0.000 A 
ATOM     16  C   UNL     1       7.938   5.304  12.798  0.00  0.00    +0.000 A 
ATOM     17  C   UNL     1       7.413   4.509  11.781  0.00  0.00    +0.000 A 
ATOM     18  C   UNL     1       6.390   3.606  12.060  0.00  0.00    +0.000 A 
ATOM     19  C   UNL     1       5.891   3.496  13.361  0.00  0.00    +0.000 A 
ENDBRANCH   3  14
TORSDOF 2
ENDMDL
MODEL 8
REMARK VINA RESULT:      -7.6      2.715      7.002
REMARK  Name = 
REMARK  2 active torsions:
REMARK  status: ('A' for Active; 'I' for Inactive)
REMARK    1  A    between atoms: C_6  and  C_7
REMARK    2  A    between atoms: C_9  and  C_10
REMARK                            x       y       z     vdW  Elec       q    Type
REMARK                         _______ _______ _______ _____ _____    ______ ____
ROOT
ATOM      1  C   UNL     1       5.067   4.724  17.819  0.00  0.00    +0.000 A 
ATOM      2  N   UNL     1       4.961   4.744  16.503  0.00  0.00    +0.000 NA
ATOM      3  C   UNL     1       6.224   4.501  16.007  0.00  0.00    +0.000 A 
ATOM      4  C   UNL     1       7.118   4.338  17.040  0.00  0.00    +0.000 A 
ATOM      5  N   UNL     1       6.374   4.478  18.177  0.00  0.00    +0.000 N 
ATOM      6  H   UNL     1       6.710   4.385  19.123  0.00  0.00    +0.000 HD
ENDROOT
BRANCH   1  12
ATOM      7 CL   UNL     1       2.196   2.646  21.591  0.00  0.00    +0.000 Cl
ATOM      8  C   UNL     1       2.614   3.962  20.564  0.00  0.00    +0.000 A 
ATOM      9  C   UNL     1       1.945   5.177  20.699  0.00  0.00    +0.000 A 
ATOM     10  C   UNL     1       2.284   6.247  19.873  0.00  0.00    +0.000 A 
ATOM     11  C   UNL     1       3.297   6.101  18.924  0.00  0.00    +0.000 A 
ATOM     12  C   UNL     1       3.985   4.884  18.788  0.00  0.00    +0.000 A 
ATOM     13  C   UNL     1       3.624   3.809  19.613  0.00  0.00    +0.000 A 
ENDBRANCH   1  12
BRANCH   3  14
ATOM     14  C   UNL     1       6.541   4.432  14.593  0.00  0.00    +0.000 A 
ATOM     15  C   UNL     1       7.545   5.252  14.062  0.00  0.00    +0.000 A 
ATOM     16  C   UNL     1       7.855   5.201  12.700  0.00  0.00    +0.000 A 
ATOM     17  C   UNL     1       7.158   4.337  11.857  0.00  0.00    +0.000 A 
ATOM     18  C   UNL     1       6.156   3.519  12.373  0.00  0.00    +0.000 A 
ATOM     19  C   UNL     1       5.851   3.563  13.736  0.00  0.00    +0.000 A 
ENDBRANCH   3  14
TORSDOF 2
ENDMDL
MODEL 9
REMARK VINA RESULT:      -7.6      1.014      1.083
REMARK  Name = 
REMARK  2 active torsions:
REMARK  status: ('A' for Active; 'I' for Inactive)
REMARK    1  A    between atoms: C_6  and  C_7
REMARK    2  A    between atoms: C_9  and  C_10
REMARK                            x       y       z     vdW  Elec       q    Type
REMARK                         _______ _______ _______ _____ _____    ______ ____
ROOT
ATOM      1  C   UNL     1       5.174   4.822  15.932  0.00  0.00    +0.000 A 
ATOM      2  N   UNL     1       4.447   3.961  16.621  0.00  0.00    +0.000 NA
ATOM      3  C   UNL     1       3.954   4.651  17.707  0.00  0.00    +0.000 A 
ATOM      4  C   UNL     1       4.393   5.954  17.684  0.00  0.00    +0.000 A 
ATOM      5  N   UNL     1       5.159   6.049  16.558  0.00  0.00    +0.000 N 
ATOM      6  H   UNL     1       5.614   6.882  16.215  0.00  0.00    +0.000 HD
ENDROOT
BRANCH   1  12
ATOM      7 CL   UNL     1       5.296   2.322  11.401  0.00  0.00    +0.000 Cl
ATOM      8  C   UNL     1       5.970   3.433  12.531  0.00  0.00    +0.000 A 
ATOM      9  C   UNL     1       7.143   4.112  12.208  0.00  0.00    +0.000 A 
ATOM     10  C   UNL     1       7.689   5.015  13.117  0.00  0.00    +0.000 A 
ATOM     11  C   UNL     1       7.054   5.245  14.340  0.00  0.00    +0.000 A 
ATOM     12  C   UNL     1       5.865   4.573  14.668  0.00  0.00    +0.000 A 
ATOM     13  C   UNL     1       5.334   3.654  13.753  0.00  0.00    +0.000 A 
ENDBRANCH   1  12
BRANCH   3  14
ATOM     14  C   UNL     1       3.094   4.064  18.718  0.00  0.00    +0.000 A 
ATOM     15  C   UNL     1       3.658   3.375  19.799  0.00  0.00    +0.000 A 
ATOM     16  C   UNL     1       2.841   2.798  20.776  0.00  0.00    +0.000 A 
ATOM     17  C   UNL     1       1.455   2.897  20.674  0.00  0.00    +0.000 A 
ATOM     18  C   UNL     1       0.882   3.577  19.602  0.00  0.00    +0.000 A 
ATOM     19  C   UNL     1       1.699   4.162  18.629  0.00  0.00    +0.000 A 
ENDBRANCH   3  14
TORSDOF 2
ENDMDL
