MODEL 1
REMARK VINA RESULT:      -5.4      0.000      0.000
REMARK  Name = 
REMARK  11 active torsions:
REMARK  status: ('A' for Active; 'I' for Inactive)
REMARK    1  A    between atoms: C_1  and  C_2
REMARK    2  A    between atoms: C_2  and  C_3
REMARK    3  A    between atoms: C_3  and  C_4
REMARK    4  A    between atoms: C_4  and  C_5
REMARK    5  A    between atoms: C_5  and  C_6
REMARK    6  A    between atoms: C_6  and  C_7
REMARK    7  A    between atoms: C_7  and  C_8
REMARK    8  A    between atoms: C_8  and  C_10
REMARK    9  A    between atoms: C_10  and  O_11
REMARK   10  A    between atoms: C_10  and  C_12
REMARK   11  A    between atoms: C_12  and  C_13
REMARK                            x       y       z     vdW  Elec       q    Type
REMARK                         _______ _______ _______ _____ _____    ______ ____
ROOT
ATOM      1  C   UNL     1       4.497   4.041  18.194  0.00  0.00    +0.000 C 
ENDROOT
BRANCH   1   2
ATOM      2  C   UNL     1       5.927   4.531  18.340  0.00  0.00    +0.000 C 
ATOM      3  O   UNL     1       6.430   4.823  19.428  0.00  0.00    +0.000 OA
BRANCH   2   4
ATOM      4  C   UNL     1       6.729   4.684  17.046  0.00  0.00    +0.000 C 
BRANCH   4   5
ATOM      5  O   UNL     1       8.030   4.136  17.256  0.00  0.00    +0.000 OA
ATOM      6  H   UNL     1       8.176   4.141  18.223  0.00  0.00    +0.000 HD
ENDBRANCH   4   5
BRANCH   4   7
ATOM      7  C   UNL     1       6.068   3.937  15.889  0.00  0.00    +0.000 C 
ATOM      8  C   UNL     1       5.618   4.855  14.764  0.00  0.00    +0.000 C 
ENDBRANCH   4   7
ENDBRANCH   2   4
ENDBRANCH   1   2
BRANCH   1   9
ATOM      9  C   UNL     1       3.496   5.191  18.223  0.00  0.00    +0.000 C 
BRANCH   9  10
ATOM     10  C   UNL     1       2.077   4.719  17.904  0.00  0.00    +0.000 C 
BRANCH  10  11
ATOM     11  C   UNL     1       2.013   3.193  17.866  0.00  0.00    +0.000 C 
BRANCH  11  12
ATOM     12  C   UNL     1       1.009   2.648  18.881  0.00  0.00    +0.000 C 
BRANCH  12  14
ATOM     13  C   UNL     1       1.538   2.946  21.325  0.00  0.00    +0.000 C 
ATOM     14  C   UNL     1       0.899   3.569  20.094  0.00  0.00    +0.000 C 
ENDBRANCH  12  14
ENDBRANCH  11  12
ENDBRANCH  10  11
ENDBRANCH   9  10
ENDBRANCH   1   9
TORSDOF 9
ENDMDL
MODEL 2
REMARK VINA RESULT:      -5.2      1.968      2.647
REMARK  Name = 
REMARK  11 active torsions:
REMARK  status: ('A' for Active; 'I' for Inactive)
REMARK    1  A    between atoms: C_1  and  C_2
REMARK    2  A    between atoms: C_2  and  C_3
REMARK    3  A    between atoms: C_3  and  C_4
REMARK    4  A    between atoms: C_4  and  C_5
REMARK    5  A    between atoms: C_5  and  C_6
REMARK    6  A    between atoms: C_6  and  C_7
REMARK    7  A    between atoms: C_7  and  C_8
REMARK    8  A    between atoms: C_8  and  C_10
REMARK    9  A    between atoms: C_10  and  O_11
REMARK   10  A    between atoms: C_10  and  C_12
REMARK   11  A    between atoms: C_12  and  C_13
REMARK                            x       y       z     vdW  Elec       q    Type
REMARK                         _______ _______ _______ _____ _____    ______ ____
ROOT
ATOM      1  C   UNL     1       4.388   6.718  17.547  0.00  0.00    +0.000 C 
ENDROOT
BRANCH   1   2
ATOM      2  C   UNL     1       5.382   6.490  16.421  0.00  0.00    +0.000 C 
ATOM      3  O   UNL     1       5.139   6.764  15.243  0.00  0.00    +0.000 OA
BRANCH   2   4
ATOM      4  C   UNL     1       6.721   5.861  16.814  0.00  0.00    +0.000 C 
BRANCH   4   5
ATOM      5  O   UNL     1       7.536   5.774  15.646  0.00  0.00    +0.000 OA
ATOM      6  H   UNL     1       8.181   6.506  15.707  0.00  0.00    +0.000 HD
ENDBRANCH   4   5
BRANCH   4   7
ATOM      7  C   UNL     1       7.451   6.706  17.855  0.00  0.00    +0.000 C 
ATOM      8  C   UNL     1       7.854   5.918  19.090  0.00  0.00    +0.000 C 
ENDBRANCH   4   7
ENDBRANCH   2   4
ENDBRANCH   1   2
BRANCH   1   9
ATOM      9  C   UNL     1       4.069   5.428  18.294  0.00  0.00    +0.000 C 
BRANCH   9  10
ATOM     10  C   UNL     1       3.235   4.469  17.443  0.00  0.00    +0.000 C 
BRANCH  10  11
ATOM     11  C   UNL     1       1.781   4.457  17.913  0.00  0.00    +0.000 C 
BRANCH  11  12
ATOM     12  C   UNL     1       1.345   3.061  18.357  0.00  0.00    +0.000 C 
BRANCH  12  14
ATOM     13  C   UNL     1       1.182   4.403  20.482  0.00  0.00    +0.000 C 
ATOM     14  C   UNL     1       0.907   3.062  19.821  0.00  0.00    +0.000 C 
ENDBRANCH  12  14
ENDBRANCH  11  12
ENDBRANCH  10  11
ENDBRANCH   9  10
ENDBRANCH   1   9
TORSDOF 9
ENDMDL
MODEL 3
REMARK VINA RESULT:      -5.2      1.454      1.876
REMARK  Name = 
REMARK  11 active torsions:
REMARK  status: ('A' for Active; 'I' for Inactive)
REMARK    1  A    between atoms: C_1  and  C_2
REMARK    2  A    between atoms: C_2  and  C_3
REMARK    3  A    between atoms: C_3  and  C_4
REMARK    4  A    between atoms: C_4  and  C_5
REMARK    5  A    between atoms: C_5  and  C_6
REMARK    6  A    between atoms: C_6  and  C_7
REMARK    7  A    between atoms: C_7  and  C_8
REMARK    8  A    between atoms: C_8  and  C_10
REMARK    9  A    between atoms: C_10  and  O_11
REMARK   10  A    between atoms: C_10  and  C_12
REMARK   11  A    between atoms: C_12  and  C_13
REMARK                            x       y       z     vdW  Elec       q    Type
REMARK                         _______ _______ _______ _____ _____    ______ ____
ROOT
ATOM      1  C   UNL     1       5.163   4.414  19.113  0.00  0.00    +0.000 C 
ENDROOT
BRANCH   1   2
ATOM      2  C   UNL     1       6.564   5.001  19.086  0.00  0.00    +0.000 C 
ATOM      3  O   UNL     1       7.149   5.388  20.101  0.00  0.00    +0.000 OA
BRANCH   2   4
ATOM      4  C   UNL     1       7.223   5.126  17.711  0.00  0.00    +0.000 C 
BRANCH   4   5
ATOM      5  O   UNL     1       6.775   4.041  16.899  0.00  0.00    +0.000 OA
ATOM      6  H   UNL     1       5.931   4.329  16.498  0.00  0.00    +0.000 HD
ENDBRANCH   4   5
BRANCH   4   7
ATOM      7  C   UNL     1       6.841   6.436  17.026  0.00  0.00    +0.000 C 
ATOM      8  C   UNL     1       7.621   7.632  17.547  0.00  0.00    +0.000 C 
ENDBRANCH   4   7
ENDBRANCH   2   4
ENDBRANCH   1   2
BRANCH   1   9
ATOM      9  C   UNL     1       4.106   5.476  19.395  0.00  0.00    +0.000 C 
BRANCH   9  10
ATOM     10  C   UNL     1       3.107   5.605  18.245  0.00  0.00    +0.000 C 
BRANCH  10  11
ATOM     11  C   UNL     1       1.940   4.638  18.433  0.00  0.00    +0.000 C 
BRANCH  11  12
ATOM     12  C   UNL     1       1.465   4.605  19.885  0.00  0.00    +0.000 C 
BRANCH  12  14
ATOM     13  C   UNL     1       1.793   2.821  21.632  0.00  0.00    +0.000 C 
ATOM     14  C   UNL     1       1.119   3.181  20.318  0.00  0.00    +0.000 C 
ENDBRANCH  12  14
ENDBRANCH  11  12
ENDBRANCH  10  11
ENDBRANCH   9  10
ENDBRANCH   1   9
TORSDOF 9
ENDMDL
MODEL 4
REMARK VINA RESULT:      -5.2      1.613      2.063
REMARK  Name = 
REMARK  11 active torsions:
REMARK  status: ('A' for Active; 'I' for Inactive)
REMARK    1  A    between atoms: C_1  and  C_2
REMARK    2  A    between atoms: C_2  and  C_3
REMARK    3  A    between atoms: C_3  and  C_4
REMARK    4  A    between atoms: C_4  and  C_5
REMARK    5  A    between atoms: C_5  and  C_6
REMARK    6  A    between atoms: C_6  and  C_7
REMARK    7  A    between atoms: C_7  and  C_8
REMARK    8  A    between atoms: C_8  and  C_10
REMARK    9  A    between atoms: C_10  and  O_11
REMARK   10  A    between atoms: C_10  and  C_12
REMARK   11  A    between atoms: C_12  and  C_13
REMARK                            x       y       z     vdW  Elec       q    Type
REMARK                         _______ _______ _______ _____ _____    ______ ____
ROOT
ATOM      1  C   UNL     1       4.405   3.622  17.342  0.00  0.00    +0.000 C 
ENDROOT
BRANCH   1   2
ATOM      2  C   UNL     1       5.015   3.897  18.706  0.00  0.00    +0.000 C 
ATOM      3  O   UNL     1       5.050   3.056  19.609  0.00  0.00    +0.000 OA
BRANCH   2   4
ATOM      4  C   UNL     1       5.570   5.305  18.932  0.00  0.00    +0.000 C 
BRANCH   4   5
ATOM      5  O   UNL     1       6.736   5.203  19.748  0.00  0.00    +0.000 OA
ATOM      6  H   UNL     1       6.947   6.112  20.039  0.00  0.00    +0.000 HD
ENDBRANCH   4   5
BRANCH   4   7
ATOM      7  C   UNL     1       5.956   5.970  17.613  0.00  0.00    +0.000 C 
ATOM      8  C   UNL     1       7.304   6.671  17.669  0.00  0.00    +0.000 C 
ENDBRANCH   4   7
ENDBRANCH   2   4
ENDBRANCH   1   2
BRANCH   1   9
ATOM      9  C   UNL     1       2.940   3.211  17.447  0.00  0.00    +0.000 C 
BRANCH   9  10
ATOM     10  C   UNL     1       2.030   4.411  17.708  0.00  0.00    +0.000 C 
BRANCH  10  11
ATOM     11  C   UNL     1       1.507   4.389  19.144  0.00  0.00    +0.000 C 
BRANCH  11  12
ATOM     12  C   UNL     1       0.967   3.012  19.525  0.00  0.00    +0.000 C 
BRANCH  12  14
ATOM     13  C   UNL     1       2.174   3.667  21.636  0.00  0.00    +0.000 C 
ATOM     14  C   UNL     1       1.592   2.518  20.828  0.00  0.00    +0.000 C 
ENDBRANCH  12  14
ENDBRANCH  11  12
ENDBRANCH  10  11
ENDBRANCH   9  10
ENDBRANCH   1   9
TORSDOF 9
ENDMDL
MODEL 5
REMARK VINA RESULT:      -5.1      1.503      2.379
REMARK  Name = 
REMARK  11 active torsions:
REMARK  status: ('A' for Active; 'I' for Inactive)
REMARK    1  A    between atoms: C_1  and  C_2
REMARK    2  A    between atoms: C_2  and  C_3
REMARK    3  A    between atoms: C_3  and  C_4
REMARK    4  A    between atoms: C_4  and  C_5
REMARK    5  A    between atoms: C_5  and  C_6
REMARK    6  A    between atoms: C_6  and  C_7
REMARK    7  A    between atoms: C_7  and  C_8
REMARK    8  A    between atoms: C_8  and  C_10
REMARK    9  A    between atoms: C_10  and  O_11
REMARK   10  A    between atoms: C_10  and  C_12
REMARK   11  A    between atoms: C_12  and  C_13
REMARK                            x       y       z     vdW  Elec       q    Type
REMARK                         _______ _______ _______ _____ _____    ______ ____
ROOT
ATOM      1  C   UNL     1       5.172   5.049  16.445  0.00  0.00    +0.000 C 
ENDROOT
BRANCH   1   2
ATOM      2  C   UNL     1       6.560   5.126  17.058  0.00  0.00    +0.000 C 
ATOM      3  O   UNL     1       7.552   4.602  16.544  0.00  0.00    +0.000 OA
BRANCH   2   4
ATOM      4  C   UNL     1       6.675   5.871  18.390  0.00  0.00    +0.000 C 
BRANCH   4   5
ATOM      5  O   UNL     1       6.814   4.907  19.433  0.00  0.00    +0.000 OA
ATOM      6  H   UNL     1       6.164   4.201  19.242  0.00  0.00    +0.000 HD
ENDBRANCH   4   5
BRANCH   4   7
ATOM      7  C   UNL     1       7.894   6.790  18.412  0.00  0.00    +0.000 C 
ATOM      8  C   UNL     1       7.718   8.037  17.560  0.00  0.00    +0.000 C 
ENDBRANCH   4   7
ENDBRANCH   2   4
ENDBRANCH   1   2
BRANCH   1   9
ATOM      9  C   UNL     1       4.361   3.892  17.016  0.00  0.00    +0.000 C 
BRANCH   9  10
ATOM     10  C   UNL     1       3.373   4.362  18.084  0.00  0.00    +0.000 C 
BRANCH  10  11
ATOM     11  C   UNL     1       1.944   3.980  17.703  0.00  0.00    +0.000 C 
BRANCH  11  12
ATOM     12  C   UNL     1       1.403   2.863  18.594  0.00  0.00    +0.000 C 
BRANCH  12  14
ATOM     13  C   UNL     1       1.583   3.025  21.100  0.00  0.00    +0.000 C 
ATOM     14  C   UNL     1       0.785   3.429  19.871  0.00  0.00    +0.000 C 
ENDBRANCH  12  14
ENDBRANCH  11  12
ENDBRANCH  10  11
ENDBRANCH   9  10
ENDBRANCH   1   9
TORSDOF 9
ENDMDL
MODEL 6
REMARK VINA RESULT:      -5.0      1.500      2.292
REMARK  Name = 
REMARK  11 active torsions:
REMARK  status: ('A' for Active; 'I' for Inactive)
REMARK    1  A    between atoms: C_1  and  C_2
REMARK    2  A    between atoms: C_2  and  C_3
REMARK    3  A    between atoms: C_3  and  C_4
REMARK    4  A    between atoms: C_4  and  C_5
REMARK    5  A    between atoms: C_5  and  C_6
REMARK    6  A    between atoms: C_6  and  C_7
REMARK    7  A    between atoms: C_7  and  C_8
REMARK    8  A    between atoms: C_8  and  C_10
REMARK    9  A    between atoms: C_10  and  O_11
REMARK   10  A    between atoms: C_10  and  C_12
REMARK   11  A    between atoms: C_12  and  C_13
REMARK                            x       y       z     vdW  Elec       q    Type
REMARK                         _______ _______ _______ _____ _____    ______ ____
ROOT
ATOM      1  C   UNL     1       4.548   5.250  17.456  0.00  0.00    +0.000 C 
ENDROOT
BRANCH   1   2
ATOM      2  C   UNL     1       5.934   4.990  16.890  0.00  0.00    +0.000 C 
ATOM      3  O   UNL     1       6.168   4.948  15.679  0.00  0.00    +0.000 OA
BRANCH   2   4
ATOM      4  C   UNL     1       7.050   4.745  17.908  0.00  0.00    +0.000 C 
BRANCH   4   5
ATOM      5  O   UNL     1       8.156   4.154  17.228  0.00  0.00    +0.000 OA
ATOM      6  H   UNL     1       8.736   3.779  17.921  0.00  0.00    +0.000 HD
ENDBRANCH   4   5
BRANCH   4   7
ATOM      7  C   UNL     1       7.515   6.049  18.552  0.00  0.00    +0.000 C 
ATOM      8  C   UNL     1       7.574   7.211  17.574  0.00  0.00    +0.000 C 
ENDBRANCH   4   7
ENDBRANCH   2   4
ENDBRANCH   1   2
BRANCH   1   9
ATOM      9  C   UNL     1       3.638   4.036  17.310  0.00  0.00    +0.000 C 
BRANCH   9  10
ATOM     10  C   UNL     1       2.301   4.238  18.024  0.00  0.00    +0.000 C 
BRANCH  10  11
ATOM     11  C   UNL     1       2.373   5.431  18.975  0.00  0.00    +0.000 C 
BRANCH  11  12
ATOM     12  C   UNL     1       1.982   5.040  20.400  0.00  0.00    +0.000 C 
BRANCH  12  14
ATOM     13  C   UNL     1       1.467   2.805  21.440  0.00  0.00    +0.000 C 
ATOM     14  C   UNL     1       1.047   3.831  20.400  0.00  0.00    +0.000 C 
ENDBRANCH  12  14
ENDBRANCH  11  12
ENDBRANCH  10  11
ENDBRANCH   9  10
ENDBRANCH   1   9
TORSDOF 9
ENDMDL
MODEL 7
REMARK VINA RESULT:      -5.0      1.404      1.682
REMARK  Name = 
REMARK  11 active torsions:
REMARK  status: ('A' for Active; 'I' for Inactive)
REMARK    1  A    between atoms: C_1  and  C_2
REMARK    2  A    between atoms: C_2  and  C_3
REMARK    3  A    between atoms: C_3  and  C_4
REMARK    4  A    between atoms: C_4  and  C_5
REMARK    5  A    between atoms: C_5  and  C_6
REMARK    6  A    between atoms: C_6  and  C_7
REMARK    7  A    between atoms: C_7  and  C_8
REMARK    8  A    between atoms: C_8  and  C_10
REMARK    9  A    between atoms: C_10  and  O_11
REMARK   10  A    between atoms: C_10  and  C_12
REMARK   11  A    between atoms: C_12  and  C_13
REMARK                            x       y       z     vdW  Elec       q    Type
REMARK                         _______ _______ _______ _____ _____    ______ ____
ROOT
ATOM      1  C   UNL     1       3.976   4.996  18.271  0.00  0.00    +0.000 C 
ENDROOT
BRANCH   1   2
ATOM      2  C   UNL     1       4.992   5.701  17.388  0.00  0.00    +0.000 C 
ATOM      3  O   UNL     1       4.694   6.627  16.628  0.00  0.00    +0.000 OA
BRANCH   2   4
ATOM      4  C   UNL     1       6.429   5.182  17.457  0.00  0.00    +0.000 C 
BRANCH   4   5
ATOM      5  O   UNL     1       6.444   4.007  18.266  0.00  0.00    +0.000 OA
ATOM      6  H   UNL     1       7.165   3.444  17.918  0.00  0.00    +0.000 HD
ENDBRANCH   4   5
BRANCH   4   7
ATOM      7  C   UNL     1       6.961   4.825  16.071  0.00  0.00    +0.000 C 
ATOM      8  C   UNL     1       6.135   3.759  15.370  0.00  0.00    +0.000 C 
ENDBRANCH   4   7
ENDBRANCH   2   4
ENDBRANCH   1   2
BRANCH   1   9
ATOM      9  C   UNL     1       3.084   4.054  17.471  0.00  0.00    +0.000 C 
BRANCH   9  10
ATOM     10  C   UNL     1       1.603   4.267  17.787  0.00  0.00    +0.000 C 
BRANCH  10  11
ATOM     11  C   UNL     1       1.102   3.207  18.766  0.00  0.00    +0.000 C 
BRANCH  11  12
ATOM     12  C   UNL     1       0.859   3.795  20.155  0.00  0.00    +0.000 C 
BRANCH  12  14
ATOM     13  C   UNL     1       2.825   2.742  21.324  0.00  0.00    +0.000 C 
ATOM     14  C   UNL     1       1.309   2.827  21.248  0.00  0.00    +0.000 C 
ENDBRANCH  12  14
ENDBRANCH  11  12
ENDBRANCH  10  11
ENDBRANCH   9  10
ENDBRANCH   1   9
TORSDOF 9
ENDMDL
MODEL 8
REMARK VINA RESULT:      -5.0      1.640      2.119
REMARK  Name = 
REMARK  11 active torsions:
REMARK  status: ('A' for Active; 'I' for Inactive)
REMARK    1  A    between atoms: C_1  and  C_2
REMARK    2  A    between atoms: C_2  and  C_3
REMARK    3  A    between atoms: C_3  and  C_4
REMARK    4  A    between atoms: C_4  and  C_5
REMARK    5  A    between atoms: C_5  and  C_6
REMARK    6  A    between atoms: C_6  and  C_7
REMARK    7  A    between atoms: C_7  and  C_8
REMARK    8  A    between atoms: C_8  and  C_10
REMARK    9  A    between atoms: C_10  and  O_11
REMARK   10  A    between atoms: C_10  and  C_12
REMARK   11  A    between atoms: C_12  and  C_13
REMARK                            x       y       z     vdW  Elec       q    Type
REMARK                         _______ _______ _______ _____ _____    ______ ____
ROOT
ATOM      1  C   UNL     1       5.036   5.412  18.494  0.00  0.00    +0.000 C 
ENDROOT
BRANCH   1   2
ATOM      2  C   UNL     1       6.485   5.376  18.950  0.00  0.00    +0.000 C 
ATOM      3  O   UNL     1       6.824   5.030  20.085  0.00  0.00    +0.000 OA
BRANCH   2   4
ATOM      4  C   UNL     1       7.531   5.828  17.929  0.00  0.00    +0.000 C 
BRANCH   4   5
ATOM      5  O   UNL     1       7.656   4.812  16.935  0.00  0.00    +0.000 OA
ATOM      6  H   UNL     1       8.401   4.243  17.216  0.00  0.00    +0.000 HD
ENDBRANCH   4   5
BRANCH   4   7
ATOM      7  C   UNL     1       7.118   7.129  17.245  0.00  0.00    +0.000 C 
ATOM      8  C   UNL     1       7.930   8.329  17.704  0.00  0.00    +0.000 C 
ENDBRANCH   4   7
ENDBRANCH   2   4
ENDBRANCH   1   2
BRANCH   1   9
ATOM      9  C   UNL     1       4.397   4.028  18.521  0.00  0.00    +0.000 C 
BRANCH   9  10
ATOM     10  C   UNL     1       3.547   3.770  17.277  0.00  0.00    +0.000 C 
BRANCH  10  11
ATOM     11  C   UNL     1       2.563   2.628  17.523  0.00  0.00    +0.000 C 
BRANCH  11  12
ATOM     12  C   UNL     1       2.344   2.386  19.016  0.00  0.00    +0.000 C 
BRANCH  12  14
ATOM     13  C   UNL     1       1.033   4.009  20.427  0.00  0.00    +0.000 C 
ATOM     14  C   UNL     1       0.954   2.847  19.450  0.00  0.00    +0.000 C 
ENDBRANCH  12  14
ENDBRANCH  11  12
ENDBRANCH  10  11
ENDBRANCH   9  10
ENDBRANCH   1   9
TORSDOF 9
ENDMDL
MODEL 9
REMARK VINA RESULT:      -5.0      1.311      1.646
REMARK  Name = 
REMARK  11 active torsions:
REMARK  status: ('A' for Active; 'I' for Inactive)
REMARK    1  A    between atoms: C_1  and  C_2
REMARK    2  A    between atoms: C_2  and  C_3
REMARK    3  A    between atoms: C_3  and  C_4
REMARK    4  A    between atoms: C_4  and  C_5
REMARK    5  A    between atoms: C_5  and  C_6
REMARK    6  A    between atoms: C_6  and  C_7
REMARK    7  A    between atoms: C_7  and  C_8
REMARK    8  A    between atoms: C_8  and  C_10
REMARK    9  A    between atoms: C_10  and  O_11
REMARK   10  A    between atoms: C_10  and  C_12
REMARK   11  A    between atoms: C_12  and  C_13
REMARK                            x       y       z     vdW  Elec       q    Type
REMARK                         _______ _______ _______ _____ _____    ______ ____
ROOT
ATOM      1  C   UNL     1       4.512   3.913  16.600  0.00  0.00    +0.000 C 
ENDROOT
BRANCH   1   2
ATOM      2  C   UNL     1       5.862   4.565  16.354  0.00  0.00    +0.000 C 
ATOM      3  O   UNL     1       6.684   4.768  17.252  0.00  0.00    +0.000 OA
BRANCH   2   4
ATOM      4  C   UNL     1       6.156   5.001  14.917  0.00  0.00    +0.000 C 
BRANCH   4   5
ATOM      5  O   UNL     1       7.559   5.231  14.795  0.00  0.00    +0.000 OA
ATOM      6  H   UNL     1       7.782   5.067  13.857  0.00  0.00    +0.000 HD
ENDBRANCH   4   5
BRANCH   4   7
ATOM      7  C   UNL     1       5.750   3.925  13.913  0.00  0.00    +0.000 C 
ATOM      8  C   UNL     1       6.627   3.903  12.672  0.00  0.00    +0.000 C 
ENDBRANCH   4   7
ENDBRANCH   2   4
ENDBRANCH   1   2
BRANCH   1   9
ATOM      9  C   UNL     1       3.704   4.659  17.656  0.00  0.00    +0.000 C 
BRANCH   9  10
ATOM     10  C   UNL     1       2.230   4.252  17.637  0.00  0.00    +0.000 C 
BRANCH  10  11
ATOM     11  C   UNL     1       2.073   2.778  18.006  0.00  0.00    +0.000 C 
BRANCH  11  12
ATOM     12  C   UNL     1       0.887   2.556  18.944  0.00  0.00    +0.000 C 
BRANCH  12  14
ATOM     13  C   UNL     1       1.587   2.938  21.332  0.00  0.00    +0.000 C 
ATOM     14  C   UNL     1       0.916   3.543  20.110  0.00  0.00    +0.000 C 
ENDBRANCH  12  14
ENDBRANCH  11  12
ENDBRANCH  10  11
ENDBRANCH   9  10
ENDBRANCH   1   9
TORSDOF 9
ENDMDL
