MODEL 1
REMARK VINA RESULT:      -7.4      0.000      0.000
REMARK  Name = 
REMARK  11 active torsions:
REMARK  status: ('A' for Active; 'I' for Inactive)
REMARK    1  A    between atoms: C_1  and  C_2
REMARK    2  A    between atoms: C_2  and  C_4
REMARK    3  A    between atoms: C_5  and  C_6
REMARK    4  A    between atoms: N_8  and  C_9
REMARK    5  A    between atoms: N_8  and  C_20
REMARK    6  A    between atoms: C_9  and  C_10
REMARK    7  A    between atoms: C_13  and  S_14
REMARK    8  A    between atoms: S_14  and  C_15
REMARK    9  A    between atoms: C_20  and  C_21
REMARK   10  A    between atoms: C_21  and  C_22
REMARK   11  A    between atoms: C_21  and  C_23
REMARK                            x       y       z     vdW  Elec       q    Type
REMARK                         _______ _______ _______ _____ _____    ______ ____
ROOT
ATOM      1  C   UNL     1       6.862   4.775  14.459  0.00  0.00    +0.000 C 
ATOM      2  O   UNL     1       7.751   5.573  14.180  0.00  0.00    +0.000 OA
ATOM      3  N   UNL     1       6.551   4.387  15.760  0.00  0.00    +0.000 N 
ENDROOT
BRANCH   1   5
ATOM      4  C   UNL     1       6.578   3.270  12.528  0.00  0.00    +0.000 C 
ATOM      5  C   UNL     1       6.052   4.191  13.355  0.00  0.00    +0.000 C 
BRANCH   4   7
ATOM      6  C   UNL     1       5.974   1.145  11.212  0.00  0.00    +0.000 C 
ATOM      7  C   UNL     1       5.890   2.665  11.334  0.00  0.00    +0.000 C 
ATOM      8 CL   UNL     1       4.164   3.142  11.410  0.00  0.00    +0.000 Cl
ENDBRANCH   4   7
ENDBRANCH   1   5
BRANCH   3   9
ATOM      9  C   UNL     1       5.617   3.307  16.135  0.00  0.00    +0.000 C 
BRANCH   9  10
ATOM     10  C   UNL     1       4.696   3.645  17.287  0.00  0.00    +0.000 A 
ATOM     11  C   UNL     1       5.139   3.551  18.616  0.00  0.00    +0.000 A 
ATOM     12  C   UNL     1       4.275   3.801  19.685  0.00  0.00    +0.000 A 
ATOM     13  C   UNL     1       2.957   4.175  19.432  0.00  0.00    +0.000 A 
ATOM     14  C   UNL     1       2.508   4.333  18.117  0.00  0.00    +0.000 A 
ATOM     15  C   UNL     1       3.380   4.077  17.051  0.00  0.00    +0.000 A 
BRANCH  13  16
ATOM     16  S   UNL     1       1.794   4.268  20.777  0.00  0.00    +0.000 S 
ATOM     17  C   UNL     1       0.441   3.238  20.284  0.00  0.00    +0.000 C 
ATOM     18  O   UNL     1       2.425   3.647  21.926  0.00  0.00    +0.000 OA
ATOM     19  O   UNL     1       1.313   5.635  20.847  0.00  0.00    +0.000 OA
ENDBRANCH  13  16
ENDBRANCH   9  10
ENDBRANCH   3   9
BRANCH   3  20
ATOM     20  C   UNL     1       7.374   4.948  16.843  0.00  0.00    +0.000 C 
BRANCH  20  21
ATOM     21  C   UNL     1       7.227   6.462  17.113  0.00  0.00    +0.000 C 
ATOM     22  C   UNL     1       5.774   6.925  17.150  0.00  0.00    +0.000 C 
ATOM     23  C   UNL     1       7.900   6.812  18.446  0.00  0.00    +0.000 C 
ENDBRANCH  20  21
ENDBRANCH   3  20
TORSDOF 7
ENDMDL
MODEL 2
REMARK VINA RESULT:      -7.3      4.569      6.580
REMARK  Name = 
REMARK  11 active torsions:
REMARK  status: ('A' for Active; 'I' for Inactive)
REMARK    1  A    between atoms: C_1  and  C_2
REMARK    2  A    between atoms: C_2  and  C_4
REMARK    3  A    between atoms: C_5  and  C_6
REMARK    4  A    between atoms: N_8  and  C_9
REMARK    5  A    between atoms: N_8  and  C_20
REMARK    6  A    between atoms: C_9  and  C_10
REMARK    7  A    between atoms: C_13  and  S_14
REMARK    8  A    between atoms: S_14  and  C_15
REMARK    9  A    between atoms: C_20  and  C_21
REMARK   10  A    between atoms: C_21  and  C_22
REMARK   11  A    between atoms: C_21  and  C_23
REMARK                            x       y       z     vdW  Elec       q    Type
REMARK                         _______ _______ _______ _____ _____    ______ ____
ROOT
ATOM      1  C   UNL     1       4.158   4.956  17.524  0.00  0.00    +0.000 C 
ATOM      2  O   UNL     1       4.135   4.407  16.427  0.00  0.00    +0.000 OA
ATOM      3  N   UNL     1       3.049   5.054  18.361  0.00  0.00    +0.000 N 
ENDROOT
BRANCH   1   5
ATOM      4  C   UNL     1       6.208   6.281  17.190  0.00  0.00    +0.000 C 
ATOM      5  C   UNL     1       5.439   5.539  18.006  0.00  0.00    +0.000 C 
BRANCH   4   7
ATOM      6  C   UNL     1       7.635   8.383  17.593  0.00  0.00    +0.000 C 
ATOM      7  C   UNL     1       7.555   6.859  17.534  0.00  0.00    +0.000 C 
ATOM      8 CL   UNL     1       8.033   6.194  19.128  0.00  0.00    +0.000 Cl
ENDBRANCH   4   7
ENDBRANCH   1   5
BRANCH   3   9
ATOM      9  C   UNL     1       2.979   5.851  19.602  0.00  0.00    +0.000 C 
BRANCH   9  10
ATOM     10  C   UNL     1       2.319   7.204  19.442  0.00  0.00    +0.000 A 
ATOM     11  C   UNL     1       2.374   7.893  18.221  0.00  0.00    +0.000 A 
ATOM     12  C   UNL     1       1.821   9.170  18.086  0.00  0.00    +0.000 A 
ATOM     13  C   UNL     1       1.180   9.761  19.173  0.00  0.00    +0.000 A 
ATOM     14  C   UNL     1       1.062   9.070  20.383  0.00  0.00    +0.000 A 
ATOM     15  C   UNL     1       1.621   7.793  20.511  0.00  0.00    +0.000 A 
BRANCH  13  16
ATOM     16  S   UNL     1       0.682  11.467  19.079  0.00  0.00    +0.000 S 
ATOM     17  C   UNL     1       0.409  11.957  20.758  0.00  0.00    +0.000 C 
ATOM     18  O   UNL     1       1.821  12.215  18.581  0.00  0.00    +0.000 OA
ATOM     19  O   UNL     1      -0.592  11.515  18.387  0.00  0.00    +0.000 OA
ENDBRANCH  13  16
ENDBRANCH   9  10
ENDBRANCH   3   9
BRANCH   3  20
ATOM     20  C   UNL     1       1.781   4.499  17.865  0.00  0.00    +0.000 C 
BRANCH  20  21
ATOM     21  C   UNL     1       1.324   3.158  18.481  0.00  0.00    +0.000 C 
ATOM     22  C   UNL     1       2.411   2.088  18.458  0.00  0.00    +0.000 C 
ATOM     23  C   UNL     1       0.874   3.386  19.929  0.00  0.00    +0.000 C 
ENDBRANCH  20  21
ENDBRANCH   3  20
TORSDOF 7
ENDMDL
MODEL 3
REMARK VINA RESULT:      -7.2      4.452      6.507
REMARK  Name = 
REMARK  11 active torsions:
REMARK  status: ('A' for Active; 'I' for Inactive)
REMARK    1  A    between atoms: C_1  and  C_2
REMARK    2  A    between atoms: C_2  and  C_4
REMARK    3  A    between atoms: C_5  and  C_6
REMARK    4  A    between atoms: N_8  and  C_9
REMARK    5  A    between atoms: N_8  and  C_20
REMARK    6  A    between atoms: C_9  and  C_10
REMARK    7  A    between atoms: C_13  and  S_14
REMARK    8  A    between atoms: S_14  and  C_15
REMARK    9  A    between atoms: C_20  and  C_21
REMARK   10  A    between atoms: C_21  and  C_22
REMARK   11  A    between atoms: C_21  and  C_23
REMARK                            x       y       z     vdW  Elec       q    Type
REMARK                         _______ _______ _______ _____ _____    ______ ____
ROOT
ATOM      1  C   UNL     1       4.099   4.651  17.775  0.00  0.00    +0.000 C 
ATOM      2  O   UNL     1       3.994   4.038  16.717  0.00  0.00    +0.000 OA
ATOM      3  N   UNL     1       3.036   4.872  18.648  0.00  0.00    +0.000 N 
ENDROOT
BRANCH   1   5
ATOM      4  C   UNL     1       6.134   5.966  17.332  0.00  0.00    +0.000 C 
ATOM      5  C   UNL     1       5.433   5.180  18.167  0.00  0.00    +0.000 C 
BRANCH   4   7
ATOM      6  C   UNL     1       7.657   8.019  17.626  0.00  0.00    +0.000 C 
ATOM      7  C   UNL     1       7.521   6.498  17.580  0.00  0.00    +0.000 C 
ATOM      8 CL   UNL     1       8.084   5.822  19.140  0.00  0.00    +0.000 Cl
ENDBRANCH   4   7
ENDBRANCH   1   5
BRANCH   3   9
ATOM      9  C   UNL     1       3.070   5.747  19.837  0.00  0.00    +0.000 C 
BRANCH   9  10
ATOM     10  C   UNL     1       2.338   7.061  19.669  0.00  0.00    +0.000 A 
ATOM     11  C   UNL     1       2.443   7.798  18.480  0.00  0.00    +0.000 A 
ATOM     12  C   UNL     1       1.822   9.042  18.342  0.00  0.00    +0.000 A 
ATOM     13  C   UNL     1       1.062   9.552  19.394  0.00  0.00    +0.000 A 
ATOM     14  C   UNL     1       0.895   8.810  20.567  0.00  0.00    +0.000 A 
ATOM     15  C   UNL     1       1.524   7.566  20.698  0.00  0.00    +0.000 A 
BRANCH  13  16
ATOM     16  S   UNL     1       0.465  11.227  19.317  0.00  0.00    +0.000 S 
ATOM     17  C   UNL     1      -1.003  11.144  18.330  0.00  0.00    +0.000 C 
ATOM     18  O   UNL     1       0.072  11.600  20.662  0.00  0.00    +0.000 OA
ATOM     19  O   UNL     1       1.447  12.010  18.590  0.00  0.00    +0.000 OA
ENDBRANCH  13  16
ENDBRANCH   9  10
ENDBRANCH   3   9
BRANCH   3  20
ATOM     20  C   UNL     1       1.715   4.370  18.240  0.00  0.00    +0.000 C 
BRANCH  20  21
ATOM     21  C   UNL     1       1.181   3.132  18.995  0.00  0.00    +0.000 C 
ATOM     22  C   UNL     1       2.082   1.909  18.852  0.00  0.00    +0.000 C 
ATOM     23  C   UNL     1       1.023   3.468  20.483  0.00  0.00    +0.000 C 
ENDBRANCH  20  21
ENDBRANCH   3  20
TORSDOF 7
ENDMDL
MODEL 4
REMARK VINA RESULT:      -7.2      0.836      1.217
REMARK  Name = 
REMARK  11 active torsions:
REMARK  status: ('A' for Active; 'I' for Inactive)
REMARK    1  A    between atoms: C_1  and  C_2
REMARK    2  A    between atoms: C_2  and  C_4
REMARK    3  A    between atoms: C_5  and  C_6
REMARK    4  A    between atoms: N_8  and  C_9
REMARK    5  A    between atoms: N_8  and  C_20
REMARK    6  A    between atoms: C_9  and  C_10
REMARK    7  A    between atoms: C_13  and  S_14
REMARK    8  A    between atoms: S_14  and  C_15
REMARK    9  A    between atoms: C_20  and  C_21
REMARK   10  A    between atoms: C_21  and  C_22
REMARK   11  A    between atoms: C_21  and  C_23
REMARK                            x       y       z     vdW  Elec       q    Type
REMARK                         _______ _______ _______ _____ _____    ______ ____
ROOT
ATOM      1  C   UNL     1       7.010   4.844  14.670  0.00  0.00    +0.000 C 
ATOM      2  O   UNL     1       7.958   5.607  14.512  0.00  0.00    +0.000 OA
ATOM      3  N   UNL     1       6.622   4.340  15.909  0.00  0.00    +0.000 N 
ENDROOT
BRANCH   1   5
ATOM      4  C   UNL     1       6.523   3.331  12.788  0.00  0.00    +0.000 C 
ATOM      5  C   UNL     1       6.211   4.440  13.481  0.00  0.00    +0.000 C 
BRANCH   4   7
ATOM      6  C   UNL     1       5.920   1.361  11.248  0.00  0.00    +0.000 C 
ATOM      7  C   UNL     1       5.844   2.860  11.529  0.00  0.00    +0.000 C 
ATOM      8 CL   UNL     1       4.120   3.339  11.638  0.00  0.00    +0.000 Cl
ENDBRANCH   4   7
ENDBRANCH   1   5
BRANCH   3   9
ATOM      9  C   UNL     1       5.607   3.290  16.129  0.00  0.00    +0.000 C 
BRANCH   9  10
ATOM     10  C   UNL     1       4.629   3.588  17.245  0.00  0.00    +0.000 A 
ATOM     11  C   UNL     1       4.739   2.949  18.490  0.00  0.00    +0.000 A 
ATOM     12  C   UNL     1       3.802   3.172  19.503  0.00  0.00    +0.000 A 
ATOM     13  C   UNL     1       2.753   4.063  19.285  0.00  0.00    +0.000 A 
ATOM     14  C   UNL     1       2.654   4.754  18.074  0.00  0.00    +0.000 A 
ATOM     15  C   UNL     1       3.595   4.522  17.064  0.00  0.00    +0.000 A 
BRANCH  13  16
ATOM     16  S   UNL     1       1.433   4.175  20.475  0.00  0.00    +0.000 S 
ATOM     17  C   UNL     1       2.019   3.290  21.892  0.00  0.00    +0.000 C 
ATOM     18  O   UNL     1       1.314   5.572  20.846  0.00  0.00    +0.000 OA
ATOM     19  O   UNL     1       0.296   3.453  19.937  0.00  0.00    +0.000 OA
ENDBRANCH  13  16
ENDBRANCH   9  10
ENDBRANCH   3   9
BRANCH   3  20
ATOM     20  C   UNL     1       7.433   4.722  17.075  0.00  0.00    +0.000 C 
BRANCH  20  21
ATOM     21  C   UNL     1       6.890   5.875  17.949  0.00  0.00    +0.000 C 
ATOM     22  C   UNL     1       7.961   6.518  18.825  0.00  0.00    +0.000 C 
ATOM     23  C   UNL     1       6.267   6.949  17.049  0.00  0.00    +0.000 C 
ENDBRANCH  20  21
ENDBRANCH   3  20
TORSDOF 7
ENDMDL
MODEL 5
REMARK VINA RESULT:      -7.2      4.222      6.201
REMARK  Name = 
REMARK  11 active torsions:
REMARK  status: ('A' for Active; 'I' for Inactive)
REMARK    1  A    between atoms: C_1  and  C_2
REMARK    2  A    between atoms: C_2  and  C_4
REMARK    3  A    between atoms: C_5  and  C_6
REMARK    4  A    between atoms: N_8  and  C_9
REMARK    5  A    between atoms: N_8  and  C_20
REMARK    6  A    between atoms: C_9  and  C_10
REMARK    7  A    between atoms: C_13  and  S_14
REMARK    8  A    between atoms: S_14  and  C_15
REMARK    9  A    between atoms: C_20  and  C_21
REMARK   10  A    between atoms: C_21  and  C_22
REMARK   11  A    between atoms: C_21  and  C_23
REMARK                            x       y       z     vdW  Elec       q    Type
REMARK                         _______ _______ _______ _____ _____    ______ ____
ROOT
ATOM      1  C   UNL     1       2.933   4.240  17.506  0.00  0.00    +0.000 C 
ATOM      2  O   UNL     1       2.293   3.413  16.864  0.00  0.00    +0.000 OA
ATOM      3  N   UNL     1       2.549   4.709  18.760  0.00  0.00    +0.000 N 
ENDROOT
BRANCH   1   5
ATOM      4  C   UNL     1       5.251   3.956  16.723  0.00  0.00    +0.000 C 
ATOM      5  C   UNL     1       4.200   4.768  16.932  0.00  0.00    +0.000 C 
BRANCH   4   7
ATOM      6  C   UNL     1       6.723   4.612  14.718  0.00  0.00    +0.000 C 
ATOM      7  C   UNL     1       6.607   4.381  16.223  0.00  0.00    +0.000 C 
ATOM      8 CL   UNL     1       7.040   5.898  17.074  0.00  0.00    +0.000 Cl
ENDBRANCH   4   7
ENDBRANCH   1   5
BRANCH   3   9
ATOM      9  C   UNL     1       3.184   5.824  19.491  0.00  0.00    +0.000 C 
BRANCH   9  10
ATOM     10  C   UNL     1       2.428   7.133  19.416  0.00  0.00    +0.000 A 
ATOM     11  C   UNL     1       2.382   7.873  18.224  0.00  0.00    +0.000 A 
ATOM     12  C   UNL     1       1.740   9.113  18.167  0.00  0.00    +0.000 A 
ATOM     13  C   UNL     1       1.111   9.615  19.304  0.00  0.00    +0.000 A 
ATOM     14  C   UNL     1       1.094   8.871  20.488  0.00  0.00    +0.000 A 
ATOM     15  C   UNL     1       1.743   7.631  20.538  0.00  0.00    +0.000 A 
BRANCH  13  16
ATOM     16  S   UNL     1       0.497  11.286  19.304  0.00  0.00    +0.000 S 
ATOM     17  C   UNL     1       1.812  12.257  18.624  0.00  0.00    +0.000 C 
ATOM     18  O   UNL     1      -0.613  11.331  18.371  0.00  0.00    +0.000 OA
ATOM     19  O   UNL     1       0.316  11.687  20.687  0.00  0.00    +0.000 OA
ENDBRANCH  13  16
ENDBRANCH   9  10
ENDBRANCH   3   9
BRANCH   3  20
ATOM     20  C   UNL     1       1.281   4.203  19.308  0.00  0.00    +0.000 C 
BRANCH  20  21
ATOM     21  C   UNL     1       1.377   3.023  20.300  0.00  0.00    +0.000 C 
ATOM     22  C   UNL     1       2.141   1.828  19.737  0.00  0.00    +0.000 C 
ATOM     23  C   UNL     1       2.060   3.493  21.590  0.00  0.00    +0.000 C 
ENDBRANCH  20  21
ENDBRANCH   3  20
TORSDOF 7
ENDMDL
MODEL 6
REMARK VINA RESULT:      -7.2      4.322      6.206
REMARK  Name = 
REMARK  11 active torsions:
REMARK  status: ('A' for Active; 'I' for Inactive)
REMARK    1  A    between atoms: C_1  and  C_2
REMARK    2  A    between atoms: C_2  and  C_4
REMARK    3  A    between atoms: C_5  and  C_6
REMARK    4  A    between atoms: N_8  and  C_9
REMARK    5  A    between atoms: N_8  and  C_20
REMARK    6  A    between atoms: C_9  and  C_10
REMARK    7  A    between atoms: C_13  and  S_14
REMARK    8  A    between atoms: S_14  and  C_15
REMARK    9  A    between atoms: C_20  and  C_21
REMARK   10  A    between atoms: C_21  and  C_22
REMARK   11  A    between atoms: C_21  and  C_23
REMARK                            x       y       z     vdW  Elec       q    Type
REMARK                         _______ _______ _______ _____ _____    ______ ____
ROOT
ATOM      1  C   UNL     1       3.189   4.337  17.392  0.00  0.00    +0.000 C 
ATOM      2  O   UNL     1       2.591   3.449  16.794  0.00  0.00    +0.000 OA
ATOM      3  N   UNL     1       2.780   4.851  18.621  0.00  0.00    +0.000 N 
ENDROOT
BRANCH   1   5
ATOM      4  C   UNL     1       5.564   4.173  16.757  0.00  0.00    +0.000 C 
ATOM      5  C   UNL     1       4.431   4.896  16.791  0.00  0.00    +0.000 C 
BRANCH   4   7
ATOM      6  C   UNL     1       7.009   4.849  14.739  0.00  0.00    +0.000 C 
ATOM      7  C   UNL     1       6.898   4.652  16.250  0.00  0.00    +0.000 C 
ATOM      8 CL   UNL     1       7.254   6.209  17.061  0.00  0.00    +0.000 Cl
ENDBRANCH   4   7
ENDBRANCH   1   5
BRANCH   3   9
ATOM      9  C   UNL     1       3.359   6.032  19.293  0.00  0.00    +0.000 C 
BRANCH   9  10
ATOM     10  C   UNL     1       2.483   7.265  19.259  0.00  0.00    +0.000 A 
ATOM     11  C   UNL     1       2.289   7.980  18.067  0.00  0.00    +0.000 A 
ATOM     12  C   UNL     1       1.533   9.155  18.043  0.00  0.00    +0.000 A 
ATOM     13  C   UNL     1       0.938   9.614  19.216  0.00  0.00    +0.000 A 
ATOM     14  C   UNL     1       1.068   8.889  20.404  0.00  0.00    +0.000 A 
ATOM     15  C   UNL     1       1.830   7.714  20.420  0.00  0.00    +0.000 A 
BRANCH  13  16
ATOM     16  S   UNL     1       0.173  11.222  19.243  0.00  0.00    +0.000 S 
ATOM     17  C   UNL     1      -1.261  11.064  18.216  0.00  0.00    +0.000 C 
ATOM     18  O   UNL     1      -0.280  11.453  20.602  0.00  0.00    +0.000 OA
ATOM     19  O   UNL     1       1.083  12.151  18.600  0.00  0.00    +0.000 OA
ENDBRANCH  13  16
ENDBRANCH   9  10
ENDBRANCH   3   9
BRANCH   3  20
ATOM     20  C   UNL     1       1.537   4.314  19.195  0.00  0.00    +0.000 C 
BRANCH  20  21
ATOM     21  C   UNL     1       1.614   2.899  19.811  0.00  0.00    +0.000 C 
ATOM     22  C   UNL     1       1.332   2.882  21.310  0.00  0.00    +0.000 C 
ATOM     23  C   UNL     1       0.615   1.976  19.102  0.00  0.00    +0.000 C 
ENDBRANCH  20  21
ENDBRANCH   3  20
TORSDOF 7
ENDMDL
MODEL 7
REMARK VINA RESULT:      -7.2      1.386      1.768
REMARK  Name = 
REMARK  11 active torsions:
REMARK  status: ('A' for Active; 'I' for Inactive)
REMARK    1  A    between atoms: C_1  and  C_2
REMARK    2  A    between atoms: C_2  and  C_4
REMARK    3  A    between atoms: C_5  and  C_6
REMARK    4  A    between atoms: N_8  and  C_9
REMARK    5  A    between atoms: N_8  and  C_20
REMARK    6  A    between atoms: C_9  and  C_10
REMARK    7  A    between atoms: C_13  and  S_14
REMARK    8  A    between atoms: S_14  and  C_15
REMARK    9  A    between atoms: C_20  and  C_21
REMARK   10  A    between atoms: C_21  and  C_22
REMARK   11  A    between atoms: C_21  and  C_23
REMARK                            x       y       z     vdW  Elec       q    Type
REMARK                         _______ _______ _______ _____ _____    ______ ____
ROOT
ATOM      1  C   UNL     1       6.785   4.925  14.943  0.00  0.00    +0.000 C 
ATOM      2  O   UNL     1       7.970   4.612  14.870  0.00  0.00    +0.000 OA
ATOM      3  N   UNL     1       6.318   6.013  15.676  0.00  0.00    +0.000 N 
ENDROOT
BRANCH   1   5
ATOM      4  C   UNL     1       6.072   3.604  12.989  0.00  0.00    +0.000 C 
ATOM      5  C   UNL     1       5.783   4.115  14.199  0.00  0.00    +0.000 C 
BRANCH   4   7
ATOM      6  C   UNL     1       4.314   3.668  11.112  0.00  0.00    +0.000 C 
ATOM      7  C   UNL     1       5.122   2.838  12.107  0.00  0.00    +0.000 C 
ATOM      8 CL   UNL     1       6.088   1.631  11.201  0.00  0.00    +0.000 Cl
ENDBRANCH   4   7
ENDBRANCH   1   5
BRANCH   3   9
ATOM      9  C   UNL     1       4.899   6.326  15.939  0.00  0.00    +0.000 C 
BRANCH   9  10
ATOM     10  C   UNL     1       4.296   5.570  17.103  0.00  0.00    +0.000 A 
ATOM     11  C   UNL     1       4.415   4.175  17.197  0.00  0.00    +0.000 A 
ATOM     12  C   UNL     1       3.806   3.466  18.236  0.00  0.00    +0.000 A 
ATOM     13  C   UNL     1       3.088   4.155  19.211  0.00  0.00    +0.000 A 
ATOM     14  C   UNL     1       3.004   5.550  19.171  0.00  0.00    +0.000 A 
ATOM     15  C   UNL     1       3.614   6.253  18.126  0.00  0.00    +0.000 A 
BRANCH  13  16
ATOM     16  S   UNL     1       2.121   3.246  20.398  0.00  0.00    +0.000 S 
ATOM     17  C   UNL     1       1.276   2.012  19.450  0.00  0.00    +0.000 C 
ATOM     18  O   UNL     1       3.055   2.566  21.275  0.00  0.00    +0.000 OA
ATOM     19  O   UNL     1       1.126   4.153  20.939  0.00  0.00    +0.000 OA
ENDBRANCH  13  16
ENDBRANCH   9  10
ENDBRANCH   3   9
BRANCH   3  20
ATOM     20  C   UNL     1       7.312   6.792  16.431  0.00  0.00    +0.000 C 
BRANCH  20  21
ATOM     21  C   UNL     1       7.316   6.609  17.965  0.00  0.00    +0.000 C 
ATOM     22  C   UNL     1       7.751   5.212  18.399  0.00  0.00    +0.000 C 
ATOM     23  C   UNL     1       8.250   7.645  18.602  0.00  0.00    +0.000 C 
ENDBRANCH  20  21
ENDBRANCH   3  20
TORSDOF 7
ENDMDL
MODEL 8
REMARK VINA RESULT:      -7.2      4.205      6.093
REMARK  Name = 
REMARK  11 active torsions:
REMARK  status: ('A' for Active; 'I' for Inactive)
REMARK    1  A    between atoms: C_1  and  C_2
REMARK    2  A    between atoms: C_2  and  C_4
REMARK    3  A    between atoms: C_5  and  C_6
REMARK    4  A    between atoms: N_8  and  C_9
REMARK    5  A    between atoms: N_8  and  C_20
REMARK    6  A    between atoms: C_9  and  C_10
REMARK    7  A    between atoms: C_13  and  S_14
REMARK    8  A    between atoms: S_14  and  C_15
REMARK    9  A    between atoms: C_20  and  C_21
REMARK   10  A    between atoms: C_21  and  C_22
REMARK   11  A    between atoms: C_21  and  C_23
REMARK                            x       y       z     vdW  Elec       q    Type
REMARK                         _______ _______ _______ _____ _____    ______ ____
ROOT
ATOM      1  C   UNL     1       3.145   4.237  17.308  0.00  0.00    +0.000 C 
ATOM      2  O   UNL     1       2.492   3.365  16.745  0.00  0.00    +0.000 OA
ATOM      3  N   UNL     1       2.800   4.785  18.541  0.00  0.00    +0.000 N 
ENDROOT
BRANCH   1   5
ATOM      4  C   UNL     1       5.588   4.230  16.986  0.00  0.00    +0.000 C 
ATOM      5  C   UNL     1       4.387   4.736  16.656  0.00  0.00    +0.000 C 
BRANCH   4   7
ATOM      6  C   UNL     1       7.009   4.884  14.943  0.00  0.00    +0.000 C 
ATOM      7  C   UNL     1       6.917   4.702  16.457  0.00  0.00    +0.000 C 
ATOM      8 CL   UNL     1       7.284   6.267  17.249  0.00  0.00    +0.000 Cl
ENDBRANCH   4   7
ENDBRANCH   1   5
BRANCH   3   9
ATOM      9  C   UNL     1       3.449   5.951  19.174  0.00  0.00    +0.000 C 
BRANCH   9  10
ATOM     10  C   UNL     1       2.613   7.213  19.169  0.00  0.00    +0.000 A 
ATOM     11  C   UNL     1       1.956   7.647  20.331  0.00  0.00    +0.000 A 
ATOM     12  C   UNL     1       1.132   8.776  20.317  0.00  0.00    +0.000 A 
ATOM     13  C   UNL     1       0.978   9.500  19.136  0.00  0.00    +0.000 A 
ATOM     14  C   UNL     1       1.667   9.121  17.980  0.00  0.00    +0.000 A 
ATOM     15  C   UNL     1       2.488   7.987  18.002  0.00  0.00    +0.000 A 
BRANCH  13  16
ATOM     16  S   UNL     1      -0.244  10.792  19.050  0.00  0.00    +0.000 S 
ATOM     17  C   UNL     1      -1.383  10.263  17.802  0.00  0.00    +0.000 C 
ATOM     18  O   UNL     1      -0.949  10.794  20.318  0.00  0.00    +0.000 OA
ATOM     19  O   UNL     1       0.419  11.991  18.572  0.00  0.00    +0.000 OA
ENDBRANCH  13  16
ENDBRANCH   9  10
ENDBRANCH   3   9
BRANCH   3  20
ATOM     20  C   UNL     1       1.558   4.307  19.166  0.00  0.00    +0.000 C 
BRANCH  20  21
ATOM     21  C   UNL     1       1.610   2.915  19.835  0.00  0.00    +0.000 C 
ATOM     22  C   UNL     1       1.321   2.960  21.333  0.00  0.00    +0.000 C 
ATOM     23  C   UNL     1       0.600   1.982  19.157  0.00  0.00    +0.000 C 
ENDBRANCH  20  21
ENDBRANCH   3  20
TORSDOF 7
ENDMDL
MODEL 9
REMARK VINA RESULT:      -7.1      4.334      6.361
REMARK  Name = 
REMARK  11 active torsions:
REMARK  status: ('A' for Active; 'I' for Inactive)
REMARK    1  A    between atoms: C_1  and  C_2
REMARK    2  A    between atoms: C_2  and  C_4
REMARK    3  A    between atoms: C_5  and  C_6
REMARK    4  A    between atoms: N_8  and  C_9
REMARK    5  A    between atoms: N_8  and  C_20
REMARK    6  A    between atoms: C_9  and  C_10
REMARK    7  A    between atoms: C_13  and  S_14
REMARK    8  A    between atoms: S_14  and  C_15
REMARK    9  A    between atoms: C_20  and  C_21
REMARK   10  A    between atoms: C_21  and  C_22
REMARK   11  A    between atoms: C_21  and  C_23
REMARK                            x       y       z     vdW  Elec       q    Type
REMARK                         _______ _______ _______ _____ _____    ______ ____
ROOT
ATOM      1  C   UNL     1       2.715   4.375  17.651  0.00  0.00    +0.000 C 
ATOM      2  O   UNL     1       2.075   3.534  17.029  0.00  0.00    +0.000 OA
ATOM      3  N   UNL     1       2.367   4.828  18.922  0.00  0.00    +0.000 N 
ENDROOT
BRANCH   1   5
ATOM      4  C   UNL     1       5.131   4.326  17.170  0.00  0.00    +0.000 C 
ATOM      5  C   UNL     1       3.944   4.942  17.031  0.00  0.00    +0.000 C 
BRANCH   4   7
ATOM      6  C   UNL     1       7.673   4.509  17.516  0.00  0.00    +0.000 C 
ATOM      7  C   UNL     1       6.452   4.837  16.659  0.00  0.00    +0.000 C 
ATOM      8 CL   UNL     1       6.696   4.151  15.022  0.00  0.00    +0.000 Cl
ENDBRANCH   4   7
ENDBRANCH   1   5
BRANCH   3   9
ATOM      9  C   UNL     1       2.998   5.956  19.634  0.00  0.00    +0.000 C 
BRANCH   9  10
ATOM     10  C   UNL     1       2.276   7.278  19.479  0.00  0.00    +0.000 A 
ATOM     11  C   UNL     1       2.260   7.951  18.247  0.00  0.00    +0.000 A 
ATOM     12  C   UNL     1       1.650   9.201  18.114  0.00  0.00    +0.000 A 
ATOM     13  C   UNL     1       1.022   9.781  19.215  0.00  0.00    +0.000 A 
ATOM     14  C   UNL     1       0.974   9.104  20.437  0.00  0.00    +0.000 A 
ATOM     15  C   UNL     1       1.591   7.853  20.563  0.00  0.00    +0.000 A 
BRANCH  13  16
ATOM     16  S   UNL     1       0.449  11.464  19.115  0.00  0.00    +0.000 S 
ATOM     17  C   UNL     1       0.045  11.908  20.780  0.00  0.00    +0.000 C 
ATOM     18  O   UNL     1       1.581  12.273  18.705  0.00  0.00    +0.000 OA
ATOM     19  O   UNL     1      -0.778  11.464  18.342  0.00  0.00    +0.000 OA
ENDBRANCH  13  16
ENDBRANCH   9  10
ENDBRANCH   3   9
BRANCH   3  20
ATOM     20  C   UNL     1       1.136   4.283  19.515  0.00  0.00    +0.000 C 
BRANCH  20  21
ATOM     21  C   UNL     1       1.301   3.074  20.464  0.00  0.00    +0.000 C 
ATOM     22  C   UNL     1       1.937   1.864  19.787  0.00  0.00    +0.000 C 
ATOM     23  C   UNL     1       2.157   3.482  21.669  0.00  0.00    +0.000 C 
ENDBRANCH  20  21
ENDBRANCH   3  20
TORSDOF 7
ENDMDL
