MODEL 1
REMARK VINA RESULT:      -8.7      0.000      0.000
REMARK  Name = 
REMARK  5 active torsions:
REMARK  status: ('A' for Active; 'I' for Inactive)
REMARK    1  A    between atoms: C_1  and  C_2
REMARK    2  A    between atoms: C_4  and  N_5
REMARK    3  A    between atoms: N_5  and  N_6
REMARK    4  A    between atoms: C_7  and  C_8
REMARK    5  A    between atoms: C_11  and  N_12
REMARK                            x       y       z     vdW  Elec       q    Type
REMARK                         _______ _______ _______ _____ _____    ______ ____
ROOT
ATOM      1  N   UNL     1       6.642   4.463  17.680  0.00  0.00    +0.000 N 
ATOM      2  H   UNL     1       7.451   4.564  18.283  0.00  0.00    +0.000 HD
ENDROOT
BRANCH   1   6
ATOM      3  C   UNL     1       2.617   7.094  18.734  0.00  0.00    +0.000 C 
ATOM      4  C   UNL     1       3.420   5.835  18.899  0.00  0.00    +0.000 A 
ATOM      5  C   UNL     1       4.635   5.721  18.221  0.00  0.00    +0.000 A 
ATOM      6  C   UNL     1       5.414   4.575  18.353  0.00  0.00    +0.000 A 
ATOM      7  N   UNL     1       5.023   3.543  19.129  0.00  0.00    +0.000 NA
ATOM      8  C   UNL     1       3.848   3.633  19.789  0.00  0.00    +0.000 A 
ATOM      9  C   UNL     1       3.446   2.569  20.586  0.00  0.00    +0.000 A 
ATOM     10  C   UNL     1       2.243   2.585  21.303  0.00  0.00    +0.000 A 
ATOM     11  C   UNL     1       1.413   3.692  21.226  0.00  0.00    +0.000 A 
ATOM     12  C   UNL     1       1.787   4.775  20.436  0.00  0.00    +0.000 A 
ATOM     13  C   UNL     1       3.001   4.763  19.710  0.00  0.00    +0.000 A 
ENDBRANCH   1   6
BRANCH   1  14
ATOM     14  N   UNL     1       6.659   4.088  16.380  0.00  0.00    +0.000 NA
ATOM     15  C   UNL     1       6.812   5.007  15.483  0.00  0.00    +0.000 C 
BRANCH  15  16
ATOM     16  C   UNL     1       6.842   4.599  14.104  0.00  0.00    +0.000 A 
ATOM     17  C   UNL     1       7.656   5.010  13.059  0.00  0.00    +0.000 A 
ATOM     18  C   UNL     1       7.237   4.310  11.904  0.00  0.00    +0.000 A 
ATOM     19  C   UNL     1       6.199   3.514  12.323  0.00  0.00    +0.000 A 
ATOM     20  O   UNL     1       5.946   3.666  13.654  0.00  0.00    +0.000 OA
BRANCH  19  21
ATOM     21  N   UNL     1       5.369   2.596  11.608  0.00  0.00    +0.000 N 
ATOM     22  O   UNL     1       5.875   1.497  11.335  0.00  0.00    +0.000 OA
ATOM     23  O   UNL     1       4.223   2.958  11.318  0.00  0.00    +0.000 OA
ENDBRANCH  19  21
ENDBRANCH  15  16
ENDBRANCH   1  14
TORSDOF 4
ENDMDL
MODEL 2
REMARK VINA RESULT:      -8.3      1.520      1.777
REMARK  Name = 
REMARK  5 active torsions:
REMARK  status: ('A' for Active; 'I' for Inactive)
REMARK    1  A    between atoms: C_1  and  C_2
REMARK    2  A    between atoms: C_4  and  N_5
REMARK    3  A    between atoms: N_5  and  N_6
REMARK    4  A    between atoms: C_7  and  C_8
REMARK    5  A    between atoms: C_11  and  N_12
REMARK                            x       y       z     vdW  Elec       q    Type
REMARK                         _______ _______ _______ _____ _____    ______ ____
ROOT
ATOM      1  N   UNL     1       5.128   6.594  16.721  0.00  0.00    +0.000 N 
ATOM      2  H   UNL     1       5.700   7.282  17.200  0.00  0.00    +0.000 HD
ENDROOT
BRANCH   1   6
ATOM      3  C   UNL     1       1.885   7.081  20.392  0.00  0.00    +0.000 C 
ATOM      4  C   UNL     1       2.512   6.231  19.323  0.00  0.00    +0.000 A 
ATOM      5  C   UNL     1       3.506   6.791  18.519  0.00  0.00    +0.000 A 
ATOM      6  C   UNL     1       4.119   6.036  17.524  0.00  0.00    +0.000 A 
ATOM      7  N   UNL     1       3.774   4.750  17.301  0.00  0.00    +0.000 NA
ATOM      8  C   UNL     1       2.811   4.193  18.065  0.00  0.00    +0.000 A 
ATOM      9  C   UNL     1       2.455   2.871  17.833  0.00  0.00    +0.000 A 
ATOM     10  C   UNL     1       1.467   2.220  18.584  0.00  0.00    +0.000 A 
ATOM     11  C   UNL     1       0.812   2.903  19.595  0.00  0.00    +0.000 A 
ATOM     12  C   UNL     1       1.145   4.229  19.853  0.00  0.00    +0.000 A 
ATOM     13  C   UNL     1       2.142   4.892  19.098  0.00  0.00    +0.000 A 
ENDBRANCH   1   6
BRANCH   1  14
ATOM     14  N   UNL     1       5.355   6.088  15.487  0.00  0.00    +0.000 NA
ATOM     15  C   UNL     1       6.279   5.193  15.357  0.00  0.00    +0.000 C 
BRANCH  15  16
ATOM     16  C   UNL     1       6.505   4.649  14.044  0.00  0.00    +0.000 A 
ATOM     17  C   UNL     1       7.484   4.937  13.105  0.00  0.00    +0.000 A 
ATOM     18  C   UNL     1       7.222   4.134  11.971  0.00  0.00    +0.000 A 
ATOM     19  C   UNL     1       6.105   3.405  12.296  0.00  0.00    +0.000 A 
ATOM     20  O   UNL     1       5.656   3.694  13.551  0.00  0.00    +0.000 OA
BRANCH  19  21
ATOM     21  N   UNL     1       5.362   2.437  11.552  0.00  0.00    +0.000 N 
ATOM     22  O   UNL     1       4.218   2.771  11.208  0.00  0.00    +0.000 OA
ATOM     23  O   UNL     1       5.907   1.354  11.307  0.00  0.00    +0.000 OA
ENDBRANCH  19  21
ENDBRANCH  15  16
ENDBRANCH   1  14
TORSDOF 4
ENDMDL
MODEL 3
REMARK VINA RESULT:      -8.1      5.633      7.170
REMARK  Name = 
REMARK  5 active torsions:
REMARK  status: ('A' for Active; 'I' for Inactive)
REMARK    1  A    between atoms: C_1  and  C_2
REMARK    2  A    between atoms: C_4  and  N_5
REMARK    3  A    between atoms: N_5  and  N_6
REMARK    4  A    between atoms: C_7  and  C_8
REMARK    5  A    between atoms: C_11  and  N_12
REMARK                            x       y       z     vdW  Elec       q    Type
REMARK                         _______ _______ _______ _____ _____    ______ ____
ROOT
ATOM      1  N   UNL     1       7.069   6.628  16.884  0.00  0.00    +0.000 N 
ATOM      2  H   UNL     1       7.616   5.933  16.387  0.00  0.00    +0.000 HD
ENDROOT
BRANCH   1   6
ATOM      3  C   UNL     1       2.421   7.805  18.000  0.00  0.00    +0.000 C 
ATOM      4  C   UNL     1       3.458   6.755  17.717  0.00  0.00    +0.000 A 
ATOM      5  C   UNL     1       4.762   7.161  17.426  0.00  0.00    +0.000 A 
ATOM      6  C   UNL     1       5.754   6.221  17.167  0.00  0.00    +0.000 A 
ATOM      7  N   UNL     1       5.493   4.897  17.183  0.00  0.00    +0.000 NA
ATOM      8  C   UNL     1       4.237   4.485  17.457  0.00  0.00    +0.000 A 
ATOM      9  C   UNL     1       3.969   3.122  17.472  0.00  0.00    +0.000 A 
ATOM     10  C   UNL     1       2.694   2.615  17.749  0.00  0.00    +0.000 A 
ATOM     11  C   UNL     1       1.652   3.486  18.020  0.00  0.00    +0.000 A 
ATOM     12  C   UNL     1       1.887   4.858  18.014  0.00  0.00    +0.000 A 
ATOM     13  C   UNL     1       3.174   5.376  17.734  0.00  0.00    +0.000 A 
ENDBRANCH   1   6
BRANCH   1  14
ATOM     14  N   UNL     1       7.440   7.905  17.135  0.00  0.00    +0.000 NA
ATOM     15  C   UNL     1       8.221   8.125  18.141  0.00  0.00    +0.000 C 
BRANCH  15  16
ATOM     16  C   UNL     1       8.623   9.484  18.394  0.00  0.00    +0.000 A 
ATOM     17  C   UNL     1       8.401  10.641  17.663  0.00  0.00    +0.000 A 
ATOM     18  C   UNL     1       9.044  11.697  18.349  0.00  0.00    +0.000 A 
ATOM     19  C   UNL     1       9.609  11.115  19.457  0.00  0.00    +0.000 A 
ATOM     20  O   UNL     1       9.362   9.775  19.510  0.00  0.00    +0.000 OA
BRANCH  19  21
ATOM     21  N   UNL     1      10.395  11.669  20.514  0.00  0.00    +0.000 N 
ATOM     22  O   UNL     1      11.626  11.606  20.373  0.00  0.00    +0.000 OA
ATOM     23  O   UNL     1       9.800  12.165  21.477  0.00  0.00    +0.000 OA
ENDBRANCH  19  21
ENDBRANCH  15  16
ENDBRANCH   1  14
TORSDOF 4
ENDMDL
MODEL 4
REMARK VINA RESULT:      -7.9      5.264      6.675
REMARK  Name = 
REMARK  5 active torsions:
REMARK  status: ('A' for Active; 'I' for Inactive)
REMARK    1  A    between atoms: C_1  and  C_2
REMARK    2  A    between atoms: C_4  and  N_5
REMARK    3  A    between atoms: N_5  and  N_6
REMARK    4  A    between atoms: C_7  and  C_8
REMARK    5  A    between atoms: C_11  and  N_12
REMARK                            x       y       z     vdW  Elec       q    Type
REMARK                         _______ _______ _______ _____ _____    ______ ____
ROOT
ATOM      1  N   UNL     1       6.754   6.696  16.752  0.00  0.00    +0.000 N 
ATOM      2  H   UNL     1       7.249   6.072  16.124  0.00  0.00    +0.000 HD
ENDROOT
BRANCH   1   6
ATOM      3  C   UNL     1       2.157   7.683  18.211  0.00  0.00    +0.000 C 
ATOM      4  C   UNL     1       3.209   6.676  17.838  0.00  0.00    +0.000 A 
ATOM      5  C   UNL     1       4.473   7.135  17.464  0.00  0.00    +0.000 A 
ATOM      6  C   UNL     1       5.477   6.236  17.119  0.00  0.00    +0.000 A 
ATOM      7  N   UNL     1       5.266   4.903  17.130  0.00  0.00    +0.000 NA
ATOM      8  C   UNL     1       4.048   4.441  17.485  0.00  0.00    +0.000 A 
ATOM      9  C   UNL     1       3.830   3.069  17.494  0.00  0.00    +0.000 A 
ATOM     10  C   UNL     1       2.596   2.511  17.851  0.00  0.00    +0.000 A 
ATOM     11  C   UNL     1       1.546   3.339  18.210  0.00  0.00    +0.000 A 
ATOM     12  C   UNL     1       1.731   4.718  18.211  0.00  0.00    +0.000 A 
ATOM     13  C   UNL     1       2.975   5.288  17.851  0.00  0.00    +0.000 A 
ENDBRANCH   1   6
BRANCH   1  14
ATOM     14  N   UNL     1       7.143   7.940  17.112  0.00  0.00    +0.000 NA
ATOM     15  C   UNL     1       8.133   8.055  17.934  0.00  0.00    +0.000 C 
BRANCH  15  16
ATOM     16  C   UNL     1       8.550   9.382  18.302  0.00  0.00    +0.000 A 
ATOM     17  C   UNL     1       9.323   9.824  19.365  0.00  0.00    +0.000 A 
ATOM     18  C   UNL     1       9.398  11.232  19.269  0.00  0.00    +0.000 A 
ATOM     19  C   UNL     1       8.671  11.556  18.150  0.00  0.00    +0.000 A 
ATOM     20  O   UNL     1       8.153  10.451  17.542  0.00  0.00    +0.000 OA
BRANCH  19  21
ATOM     21  N   UNL     1       8.375  12.821  17.554  0.00  0.00    +0.000 N 
ATOM     22  O   UNL     1       7.331  12.880  16.887  0.00  0.00    +0.000 OA
ATOM     23  O   UNL     1       9.168  13.749  17.743  0.00  0.00    +0.000 OA
ENDBRANCH  19  21
ENDBRANCH  15  16
ENDBRANCH   1  14
TORSDOF 4
ENDMDL
MODEL 5
REMARK VINA RESULT:      -7.8      2.055      2.344
REMARK  Name = 
REMARK  5 active torsions:
REMARK  status: ('A' for Active; 'I' for Inactive)
REMARK    1  A    between atoms: C_1  and  C_2
REMARK    2  A    between atoms: C_4  and  N_5
REMARK    3  A    between atoms: N_5  and  N_6
REMARK    4  A    between atoms: C_7  and  C_8
REMARK    5  A    between atoms: C_11  and  N_12
REMARK                            x       y       z     vdW  Elec       q    Type
REMARK                         _______ _______ _______ _____ _____    ______ ____
ROOT
ATOM      1  N   UNL     1       6.785   4.602  18.721  0.00  0.00    +0.000 N 
ATOM      2  H   UNL     1       7.431   4.419  19.481  0.00  0.00    +0.000 HD
ENDROOT
BRANCH   1   6
ATOM      3  C   UNL     1       2.603   7.154  19.202  0.00  0.00    +0.000 C 
ATOM      4  C   UNL     1       3.362   5.869  19.376  0.00  0.00    +0.000 A 
ATOM      5  C   UNL     1       4.697   5.819  18.969  0.00  0.00    +0.000 A 
ATOM      6  C   UNL     1       5.438   4.651  19.120  0.00  0.00    +0.000 A 
ATOM      7  N   UNL     1       4.897   3.536  19.656  0.00  0.00    +0.000 NA
ATOM      8  C   UNL     1       3.607   3.565  20.050  0.00  0.00    +0.000 A 
ATOM      9  C   UNL     1       3.050   2.416  20.599  0.00  0.00    +0.000 A 
ATOM     10  C   UNL     1       1.720   2.365  21.034  0.00  0.00    +0.000 A 
ATOM     11  C   UNL     1       0.917   3.488  20.920  0.00  0.00    +0.000 A 
ATOM     12  C   UNL     1       1.444   4.654  20.375  0.00  0.00    +0.000 A 
ATOM     13  C   UNL     1       2.787   4.712  19.934  0.00  0.00    +0.000 A 
ENDBRANCH   1   6
BRANCH   1  14
ATOM     14  N   UNL     1       7.091   4.636  17.404  0.00  0.00    +0.000 NA
ATOM     15  C   UNL     1       6.149   4.393  16.553  0.00  0.00    +0.000 C 
BRANCH  15  16
ATOM     16  C   UNL     1       6.480   4.445  15.153  0.00  0.00    +0.000 A 
ATOM     17  C   UNL     1       6.020   3.684  14.089  0.00  0.00    +0.000 A 
ATOM     18  C   UNL     1       6.699   4.132  12.932  0.00  0.00    +0.000 A 
ATOM     19  C   UNL     1       7.523   5.141  13.367  0.00  0.00    +0.000 A 
ATOM     20  O   UNL     1       7.403   5.354  14.709  0.00  0.00    +0.000 OA
BRANCH  19  21
ATOM     21  N   UNL     1       8.458   5.962  12.664  0.00  0.00    +0.000 N 
ATOM     22  O   UNL     1       8.082   6.406  11.569  0.00  0.00    +0.000 OA
ATOM     23  O   UNL     1       9.557   6.168  13.191  0.00  0.00    +0.000 OA
ENDBRANCH  19  21
ENDBRANCH  15  16
ENDBRANCH   1  14
TORSDOF 4
ENDMDL
MODEL 6
REMARK VINA RESULT:      -7.7      6.695      8.255
REMARK  Name = 
REMARK  5 active torsions:
REMARK  status: ('A' for Active; 'I' for Inactive)
REMARK    1  A    between atoms: C_1  and  C_2
REMARK    2  A    between atoms: C_4  and  N_5
REMARK    3  A    between atoms: N_5  and  N_6
REMARK    4  A    between atoms: C_7  and  C_8
REMARK    5  A    between atoms: C_11  and  N_12
REMARK                            x       y       z     vdW  Elec       q    Type
REMARK                         _______ _______ _______ _____ _____    ______ ____
ROOT
ATOM      1  N   UNL     1       9.035   8.889  19.259  0.00  0.00    +0.000 N 
ATOM      2  H   UNL     1       9.342   8.362  20.070  0.00  0.00    +0.000 HD
ENDROOT
BRANCH   1   6
ATOM      3  C   UNL     1      10.693  12.913  16.958  0.00  0.00    +0.000 C 
ATOM      4  C   UNL     1      10.189  12.253  18.211  0.00  0.00    +0.000 A 
ATOM      5  C   UNL     1       9.839  10.902  18.163  0.00  0.00    +0.000 A 
ATOM      6  C   UNL     1       9.377  10.251  19.303  0.00  0.00    +0.000 A 
ATOM      7  N   UNL     1       9.249  10.897  20.481  0.00  0.00    +0.000 NA
ATOM      8  C   UNL     1       9.578  12.204  20.545  0.00  0.00    +0.000 A 
ATOM      9  C   UNL     1       9.444  12.869  21.758  0.00  0.00    +0.000 A 
ATOM     10  C   UNL     1       9.766  14.223  21.908  0.00  0.00    +0.000 A 
ATOM     11  C   UNL     1      10.235  14.941  20.820  0.00  0.00    +0.000 A 
ATOM     12  C   UNL     1      10.381  14.306  19.591  0.00  0.00    +0.000 A 
ATOM     13  C   UNL     1      10.058  12.937  19.434  0.00  0.00    +0.000 A 
ENDBRANCH   1   6
BRANCH   1  14
ATOM     14  N   UNL     1       8.225   8.436  18.274  0.00  0.00    +0.000 NA
ATOM     15  C   UNL     1       7.915   7.181  18.270  0.00  0.00    +0.000 C 
BRANCH  15  16
ATOM     16  C   UNL     1       7.043   6.710  17.227  0.00  0.00    +0.000 A 
ATOM     17  C   UNL     1       5.675   6.865  17.055  0.00  0.00    +0.000 A 
ATOM     18  C   UNL     1       5.322   6.172  15.874  0.00  0.00    +0.000 A 
ATOM     19  C   UNL     1       6.499   5.646  15.400  0.00  0.00    +0.000 A 
ATOM     20  O   UNL     1       7.557   5.964  16.199  0.00  0.00    +0.000 OA
BRANCH  19  21
ATOM     21  N   UNL     1       6.775   4.839  14.254  0.00  0.00    +0.000 N 
ATOM     22  O   UNL     1       6.191   3.747  14.199  0.00  0.00    +0.000 OA
ATOM     23  O   UNL     1       7.564   5.283  13.411  0.00  0.00    +0.000 OA
ENDBRANCH  19  21
ENDBRANCH  15  16
ENDBRANCH   1  14
TORSDOF 4
ENDMDL
MODEL 7
REMARK VINA RESULT:      -7.7      4.575      6.732
REMARK  Name = 
REMARK  5 active torsions:
REMARK  status: ('A' for Active; 'I' for Inactive)
REMARK    1  A    between atoms: C_1  and  C_2
REMARK    2  A    between atoms: C_4  and  N_5
REMARK    3  A    between atoms: N_5  and  N_6
REMARK    4  A    between atoms: C_7  and  C_8
REMARK    5  A    between atoms: C_11  and  N_12
REMARK                            x       y       z     vdW  Elec       q    Type
REMARK                         _______ _______ _______ _____ _____    ______ ____
ROOT
ATOM      1  N   UNL     1       1.794   6.912  20.789  0.00  0.00    +0.000 N 
ATOM      2  H   UNL     1       1.428   6.281  21.494  0.00  0.00    +0.000 HD
ENDROOT
BRANCH   1   6
ATOM      3  C   UNL     1       0.967  11.224  18.564  0.00  0.00    +0.000 C 
ATOM      4  C   UNL     1       0.774  10.322  19.750  0.00  0.00    +0.000 A 
ATOM      5  C   UNL     1       1.351   9.051  19.726  0.00  0.00    +0.000 A 
ATOM      6  C   UNL     1       1.204   8.187  20.807  0.00  0.00    +0.000 A 
ATOM      7  N   UNL     1       0.502   8.543  21.904  0.00  0.00    +0.000 NA
ATOM      8  C   UNL     1      -0.067   9.766  21.943  0.00  0.00    +0.000 A 
ATOM      9  C   UNL     1      -0.792  10.131  23.071  0.00  0.00    +0.000 A 
ATOM     10  C   UNL     1      -1.411  11.381  23.190  0.00  0.00    +0.000 A 
ATOM     11  C   UNL     1      -1.308  12.298  22.157  0.00  0.00    +0.000 A 
ATOM     12  C   UNL     1      -0.590  11.965  21.013  0.00  0.00    +0.000 A 
ATOM     13  C   UNL     1       0.038  10.703  20.888  0.00  0.00    +0.000 A 
ENDBRANCH   1   6
BRANCH   1  14
ATOM     14  N   UNL     1       2.641   6.583  19.787  0.00  0.00    +0.000 NA
ATOM     15  C   UNL     1       3.153   5.396  19.788  0.00  0.00    +0.000 C 
BRANCH  15  16
ATOM     16  C   UNL     1       4.042   5.048  18.712  0.00  0.00    +0.000 A 
ATOM     17  C   UNL     1       3.773   4.642  17.413  0.00  0.00    +0.000 A 
ATOM     18  C   UNL     1       5.016   4.398  16.786  0.00  0.00    +0.000 A 
ATOM     19  C   UNL     1       5.962   4.678  17.742  0.00  0.00    +0.000 A 
ATOM     20  O   UNL     1       5.397   5.081  18.915  0.00  0.00    +0.000 OA
BRANCH  19  21
ATOM     21  N   UNL     1       7.389   4.605  17.704  0.00  0.00    +0.000 N 
ATOM     22  O   UNL     1       7.898   4.417  16.589  0.00  0.00    +0.000 OA
ATOM     23  O   UNL     1       8.003   4.733  18.769  0.00  0.00    +0.000 OA
ENDBRANCH  19  21
ENDBRANCH  15  16
ENDBRANCH   1  14
TORSDOF 4
ENDMDL
MODEL 8
REMARK VINA RESULT:      -7.6      4.029      6.412
REMARK  Name = 
REMARK  5 active torsions:
REMARK  status: ('A' for Active; 'I' for Inactive)
REMARK    1  A    between atoms: C_1  and  C_2
REMARK    2  A    between atoms: C_4  and  N_5
REMARK    3  A    between atoms: N_5  and  N_6
REMARK    4  A    between atoms: C_7  and  C_8
REMARK    5  A    between atoms: C_11  and  N_12
REMARK                            x       y       z     vdW  Elec       q    Type
REMARK                         _______ _______ _______ _____ _____    ______ ____
ROOT
ATOM      1  N   UNL     1       2.037   6.556  20.645  0.00  0.00    +0.000 N 
ATOM      2  H   UNL     1       1.847   5.979  21.458  0.00  0.00    +0.000 HD
ENDROOT
BRANCH   1   6
ATOM      3  C   UNL     1      -0.567   9.903  23.145  0.00  0.00    +0.000 C 
ATOM      4  C   UNL     1       0.183   9.510  21.903  0.00  0.00    +0.000 A 
ATOM      5  C   UNL     1       0.765   8.242  21.845  0.00  0.00    +0.000 A 
ATOM      6  C   UNL     1       1.460   7.836  20.710  0.00  0.00    +0.000 A 
ATOM      7  N   UNL     1       1.600   8.646  19.640  0.00  0.00    +0.000 NA
ATOM      8  C   UNL     1       1.049   9.878  19.681  0.00  0.00    +0.000 A 
ATOM      9  C   UNL     1       1.194  10.712  18.579  0.00  0.00    +0.000 A 
ATOM     10  C   UNL     1       0.651  12.002  18.542  0.00  0.00    +0.000 A 
ATOM     11  C   UNL     1      -0.058  12.480  19.632  0.00  0.00    +0.000 A 
ATOM     12  C   UNL     1      -0.223  11.669  20.751  0.00  0.00    +0.000 A 
ATOM     13  C   UNL     1       0.324  10.365  20.794  0.00  0.00    +0.000 A 
ENDBRANCH   1   6
BRANCH   1  14
ATOM     14  N   UNL     1       2.633   6.151  19.500  0.00  0.00    +0.000 NA
ATOM     15  C   UNL     1       3.673   5.388  19.592  0.00  0.00    +0.000 C 
BRANCH  15  16
ATOM     16  C   UNL     1       4.294   4.950  18.370  0.00  0.00    +0.000 A 
ATOM     17  C   UNL     1       3.747   4.354  17.244  0.00  0.00    +0.000 A 
ATOM     18  C   UNL     1       4.811   4.101  16.348  0.00  0.00    +0.000 A 
ATOM     19  C   UNL     1       5.936   4.566  16.984  0.00  0.00    +0.000 A 
ATOM     20  O   UNL     1       5.647   5.092  18.209  0.00  0.00    +0.000 OA
BRANCH  19  21
ATOM     21  N   UNL     1       7.307   4.574  16.585  0.00  0.00    +0.000 N 
ATOM     22  O   UNL     1       8.130   4.216  17.441  0.00  0.00    +0.000 OA
ATOM     23  O   UNL     1       7.571   4.932  15.431  0.00  0.00    +0.000 OA
ENDBRANCH  19  21
ENDBRANCH  15  16
ENDBRANCH   1  14
TORSDOF 4
ENDMDL
MODEL 9
REMARK VINA RESULT:      -7.6      6.653      8.352
REMARK  Name = 
REMARK  5 active torsions:
REMARK  status: ('A' for Active; 'I' for Inactive)
REMARK    1  A    between atoms: C_1  and  C_2
REMARK    2  A    between atoms: C_4  and  N_5
REMARK    3  A    between atoms: N_5  and  N_6
REMARK    4  A    between atoms: C_7  and  C_8
REMARK    5  A    between atoms: C_11  and  N_12
REMARK                            x       y       z     vdW  Elec       q    Type
REMARK                         _______ _______ _______ _____ _____    ______ ____
ROOT
ATOM      1  N   UNL     1       8.883   8.908  18.968  0.00  0.00    +0.000 N 
ATOM      2  H   UNL     1       9.171   8.529  19.865  0.00  0.00    +0.000 HD
ENDROOT
BRANCH   1   6
ATOM      3  C   UNL     1       7.728  13.339  17.163  0.00  0.00    +0.000 C 
ATOM      4  C   UNL     1       8.681  12.459  17.921  0.00  0.00    +0.000 A 
ATOM      5  C   UNL     1       8.351  11.115  18.104  0.00  0.00    +0.000 A 
ATOM      6  C   UNL     1       9.209  10.263  18.792  0.00  0.00    +0.000 A 
ATOM      7  N   UNL     1      10.377  10.704  19.306  0.00  0.00    +0.000 NA
ATOM      8  C   UNL     1      10.711  12.001  19.144  0.00  0.00    +0.000 A 
ATOM      9  C   UNL     1      11.912  12.454  19.675  0.00  0.00    +0.000 A 
ATOM     10  C   UNL     1      12.331  13.784  19.548  0.00  0.00    +0.000 A 
ATOM     11  C   UNL     1      11.533  14.694  18.873  0.00  0.00    +0.000 A 
ATOM     12  C   UNL     1      10.324  14.272  18.329  0.00  0.00    +0.000 A 
ATOM     13  C   UNL     1       9.895  12.930  18.455  0.00  0.00    +0.000 A 
ENDBRANCH   1   6
BRANCH   1  14
ATOM     14  N   UNL     1       8.111   8.283  18.050  0.00  0.00    +0.000 NA
ATOM     15  C   UNL     1       7.828   7.036  18.239  0.00  0.00    +0.000 C 
BRANCH  15  16
ATOM     16  C   UNL     1       6.995   6.382  17.265  0.00  0.00    +0.000 A 
ATOM     17  C   UNL     1       5.650   6.044  17.309  0.00  0.00    +0.000 A 
ATOM     18  C   UNL     1       5.346   5.387  16.095  0.00  0.00    +0.000 A 
ATOM     19  C   UNL     1       6.524   5.373  15.388  0.00  0.00    +0.000 A 
ATOM     20  O   UNL     1       7.536   5.976  16.074  0.00  0.00    +0.000 OA
BRANCH  19  21
ATOM     21  N   UNL     1       6.844   4.836  14.103  0.00  0.00    +0.000 N 
ATOM     22  O   UNL     1       6.216   3.822  13.761  0.00  0.00    +0.000 OA
ATOM     23  O   UNL     1       7.710   5.412  13.435  0.00  0.00    +0.000 OA
ENDBRANCH  19  21
ENDBRANCH  15  16
ENDBRANCH   1  14
TORSDOF 4
ENDMDL
