MODEL 1
REMARK VINA RESULT:      -7.5      0.000      0.000
REMARK  Name = 
REMARK  5 active torsions:
REMARK  status: ('A' for Active; 'I' for Inactive)
REMARK    1  A    between atoms: C_1  and  C_2
REMARK    2  A    between atoms: C_2  and  C_4
REMARK    3  A    between atoms: C_4  and  C_5
REMARK    4  A    between atoms: C_5  and  N_6
REMARK    5  A    between atoms: C_14  and  C_15
REMARK                            x       y       z     vdW  Elec       q    Type
REMARK                         _______ _______ _______ _____ _____    ______ ____
ROOT
ATOM      1  N   UNL     1       4.551   3.678  17.455  0.00  0.00    +0.000 NA
ATOM      2  C   UNL     1       5.606   4.071  18.403  0.00  0.00    +0.000 C 
ATOM      3  C   UNL     1       6.821   4.633  17.667  0.00  0.00    +0.000 C 
ATOM      4  C   UNL     1       6.477   5.781  16.704  0.00  0.00    +0.000 C 
ATOM      5  N   UNL     1       7.565   5.890  15.684  0.00  0.00    +0.000 N 
ATOM      6  C   UNL     1       7.018   5.151  14.589  0.00  0.00    +0.000 A 
ATOM      7  C   UNL     1       7.713   4.762  13.462  0.00  0.00    +0.000 A 
ATOM      8  C   UNL     1       7.038   4.009  12.493  0.00  0.00    +0.000 A 
ATOM      9  C   UNL     1       5.678   3.676  12.647  0.00  0.00    +0.000 A 
ATOM     10  C   UNL     1       4.982   2.804  11.644  0.00  0.00    +0.000 C 
ATOM     11  C   UNL     1       4.974   4.147  13.762  0.00  0.00    +0.000 A 
ATOM     12  C   UNL     1       5.656   4.887  14.716  0.00  0.00    +0.000 A 
ATOM     13  C   UNL     1       5.151   5.577  15.944  0.00  0.00    +0.000 C 
ATOM     14  C   UNL     1       4.065   4.873  16.752  0.00  0.00    +0.000 C 
ATOM     15  H   UNL     1       7.705   6.850  15.371  0.00  0.00    +0.000 HD
ENDROOT
BRANCH   1  16
ATOM     16  C   UNL     1       3.477   2.932  18.141  0.00  0.00    +0.000 C 
BRANCH  16  17
ATOM     17  C   UNL     1       2.193   3.756  18.292  0.00  0.00    +0.000 C 
BRANCH  17  19
ATOM     18  C   UNL     1       1.016   3.289  20.514  0.00  0.00    +0.000 C 
ATOM     19  C   UNL     1       1.100   3.016  19.031  0.00  0.00    +0.000 C 
ATOM     20  O   UNL     1       0.333   2.227  18.483  0.00  0.00    +0.000 OA
ENDBRANCH  17  19
ENDBRANCH  16  17
ENDBRANCH   1  16
TORSDOF 3
ENDMDL
MODEL 2
REMARK VINA RESULT:      -7.4      1.217      1.330
REMARK  Name = 
REMARK  5 active torsions:
REMARK  status: ('A' for Active; 'I' for Inactive)
REMARK    1  A    between atoms: C_1  and  C_2
REMARK    2  A    between atoms: C_2  and  C_4
REMARK    3  A    between atoms: C_4  and  C_5
REMARK    4  A    between atoms: C_5  and  N_6
REMARK    5  A    between atoms: C_14  and  C_15
REMARK                            x       y       z     vdW  Elec       q    Type
REMARK                         _______ _______ _______ _____ _____    ______ ____
ROOT
ATOM      1  N   UNL     1       4.420   3.649  17.882  0.00  0.00    +0.000 NA
ATOM      2  C   UNL     1       5.389   4.108  18.890  0.00  0.00    +0.000 C 
ATOM      3  C   UNL     1       6.586   4.788  18.228  0.00  0.00    +0.000 C 
ATOM      4  C   UNL     1       6.192   5.924  17.269  0.00  0.00    +0.000 C 
ATOM      5  N   UNL     1       7.316   6.148  16.308  0.00  0.00    +0.000 N 
ATOM      6  C   UNL     1       6.889   5.390  15.173  0.00  0.00    +0.000 A 
ATOM      7  C   UNL     1       7.669   5.087  14.076  0.00  0.00    +0.000 A 
ATOM      8  C   UNL     1       7.110   4.301  13.060  0.00  0.00    +0.000 A 
ATOM      9  C   UNL     1       5.778   3.850  13.140  0.00  0.00    +0.000 A 
ATOM     10  C   UNL     1       5.209   2.945  12.086  0.00  0.00    +0.000 C 
ATOM     11  C   UNL     1       4.981   4.235  14.226  0.00  0.00    +0.000 A 
ATOM     12  C   UNL     1       5.550   5.008  15.226  0.00  0.00    +0.000 A 
ATOM     13  C   UNL     1       4.928   5.625  16.439  0.00  0.00    +0.000 C 
ATOM     14  C   UNL     1       3.868   4.813  17.178  0.00  0.00    +0.000 C 
ATOM     15  H   UNL     1       7.387   7.123  16.020  0.00  0.00    +0.000 HD
ENDROOT
BRANCH   1  16
ATOM     16  C   UNL     1       3.381   2.799  18.500  0.00  0.00    +0.000 C 
BRANCH  16  17
ATOM     17  C   UNL     1       3.604   2.597  20.003  0.00  0.00    +0.000 C 
BRANCH  17  19
ATOM     18  C   UNL     1       1.178   3.403  20.054  0.00  0.00    +0.000 C 
ATOM     19  C   UNL     1       2.386   2.940  20.832  0.00  0.00    +0.000 C 
ATOM     20  O   UNL     1       2.368   2.871  22.059  0.00  0.00    +0.000 OA
ENDBRANCH  17  19
ENDBRANCH  16  17
ENDBRANCH   1  16
TORSDOF 3
ENDMDL
MODEL 3
REMARK VINA RESULT:      -7.3      1.027      1.040
REMARK  Name = 
REMARK  5 active torsions:
REMARK  status: ('A' for Active; 'I' for Inactive)
REMARK    1  A    between atoms: C_1  and  C_2
REMARK    2  A    between atoms: C_2  and  C_4
REMARK    3  A    between atoms: C_4  and  C_5
REMARK    4  A    between atoms: C_5  and  N_6
REMARK    5  A    between atoms: C_14  and  C_15
REMARK                            x       y       z     vdW  Elec       q    Type
REMARK                         _______ _______ _______ _____ _____    ______ ____
ROOT
ATOM      1  N   UNL     1       4.668   3.637  17.505  0.00  0.00    +0.000 NA
ATOM      2  C   UNL     1       5.719   4.079  18.435  0.00  0.00    +0.000 C 
ATOM      3  C   UNL     1       6.902   4.680  17.678  0.00  0.00    +0.000 C 
ATOM      4  C   UNL     1       6.501   5.805  16.708  0.00  0.00    +0.000 C 
ATOM      5  N   UNL     1       7.570   5.946  15.672  0.00  0.00    +0.000 N 
ATOM      6  C   UNL     1       7.038   5.176  14.592  0.00  0.00    +0.000 A 
ATOM      7  C   UNL     1       7.732   4.803  13.459  0.00  0.00    +0.000 A 
ATOM      8  C   UNL     1       7.074   4.014  12.507  0.00  0.00    +0.000 A 
ATOM      9  C   UNL     1       5.730   3.630  12.683  0.00  0.00    +0.000 A 
ATOM     10  C   UNL     1       5.055   2.722  11.698  0.00  0.00    +0.000 C 
ATOM     11  C   UNL     1       5.023   4.085  13.803  0.00  0.00    +0.000 A 
ATOM     12  C   UNL     1       5.689   4.860  14.740  0.00  0.00    +0.000 A 
ATOM     13  C   UNL     1       5.174   5.542  15.969  0.00  0.00    +0.000 C 
ATOM     14  C   UNL     1       4.127   4.805  16.798  0.00  0.00    +0.000 C 
ATOM     15  H   UNL     1       7.668   6.907  15.348  0.00  0.00    +0.000 HD
ENDROOT
BRANCH   1  16
ATOM     16  C   UNL     1       3.633   2.857  18.214  0.00  0.00    +0.000 C 
BRANCH  16  17
ATOM     17  C   UNL     1       2.334   3.646  18.410  0.00  0.00    +0.000 C 
BRANCH  17  19
ATOM     18  C   UNL     1       1.018   3.461  20.594  0.00  0.00    +0.000 C 
ATOM     19  C   UNL     1       2.141   4.123  19.832  0.00  0.00    +0.000 C 
ATOM     20  O   UNL     1       2.829   5.003  20.345  0.00  0.00    +0.000 OA
ENDBRANCH  17  19
ENDBRANCH  16  17
ENDBRANCH   1  16
TORSDOF 3
ENDMDL
MODEL 4
REMARK VINA RESULT:      -7.2      3.665      6.753
REMARK  Name = 
REMARK  5 active torsions:
REMARK  status: ('A' for Active; 'I' for Inactive)
REMARK    1  A    between atoms: C_1  and  C_2
REMARK    2  A    between atoms: C_2  and  C_4
REMARK    3  A    between atoms: C_4  and  C_5
REMARK    4  A    between atoms: C_5  and  N_6
REMARK    5  A    between atoms: C_14  and  C_15
REMARK                            x       y       z     vdW  Elec       q    Type
REMARK                         _______ _______ _______ _____ _____    ______ ____
ROOT
ATOM      1  N   UNL     1       5.586   5.803  17.593  0.00  0.00    +0.000 NA
ATOM      2  C   UNL     1       5.956   4.781  18.585  0.00  0.00    +0.000 C 
ATOM      3  C   UNL     1       4.930   4.720  19.716  0.00  0.00    +0.000 C 
ATOM      4  C   UNL     1       3.486   4.526  19.223  0.00  0.00    +0.000 C 
ATOM      5  N   UNL     1       2.551   5.003  20.288  0.00  0.00    +0.000 N 
ATOM      6  C   UNL     1       2.251   6.328  19.845  0.00  0.00    +0.000 A 
ATOM      7  C   UNL     1       1.592   7.288  20.587  0.00  0.00    +0.000 A 
ATOM      8  C   UNL     1       1.407   8.555  20.020  0.00  0.00    +0.000 A 
ATOM      9  C   UNL     1       1.858   8.841  18.716  0.00  0.00    +0.000 A 
ATOM     10  C   UNL     1       1.727  10.221  18.143  0.00  0.00    +0.000 C 
ATOM     11  C   UNL     1       2.455   7.829  17.953  0.00  0.00    +0.000 A 
ATOM     12  C   UNL     1       2.636   6.581  18.531  0.00  0.00    +0.000 A 
ATOM     13  C   UNL     1       3.159   5.311  17.937  0.00  0.00    +0.000 C 
ATOM     14  C   UNL     1       4.321   5.418  16.954  0.00  0.00    +0.000 C 
ATOM     15  H   UNL     1       1.679   4.475  20.299  0.00  0.00    +0.000 HD
ENDROOT
BRANCH   1  16
ATOM     16  C   UNL     1       6.682   6.020  16.627  0.00  0.00    +0.000 C 
BRANCH  16  17
ATOM     17  C   UNL     1       7.133   4.723  15.948  0.00  0.00    +0.000 C 
BRANCH  17  19
ATOM     18  C   UNL     1       6.070   3.940  13.758  0.00  0.00    +0.000 C 
ATOM     19  C   UNL     1       7.105   4.805  14.438  0.00  0.00    +0.000 C 
ATOM     20  O   UNL     1       7.877   5.507  13.789  0.00  0.00    +0.000 OA
ENDBRANCH  17  19
ENDBRANCH  16  17
ENDBRANCH   1  16
TORSDOF 3
ENDMDL
MODEL 5
REMARK VINA RESULT:      -7.2      1.233      1.556
REMARK  Name = 
REMARK  5 active torsions:
REMARK  status: ('A' for Active; 'I' for Inactive)
REMARK    1  A    between atoms: C_1  and  C_2
REMARK    2  A    between atoms: C_2  and  C_4
REMARK    3  A    between atoms: C_4  and  C_5
REMARK    4  A    between atoms: C_5  and  N_6
REMARK    5  A    between atoms: C_14  and  C_15
REMARK                            x       y       z     vdW  Elec       q    Type
REMARK                         _______ _______ _______ _____ _____    ______ ____
ROOT
ATOM      1  N   UNL     1       3.859   3.101  18.114  0.00  0.00    +0.000 NA
ATOM      2  C   UNL     1       4.570   3.523  19.332  0.00  0.00    +0.000 C 
ATOM      3  C   UNL     1       5.761   4.417  18.988  0.00  0.00    +0.000 C 
ATOM      4  C   UNL     1       5.387   5.623  18.109  0.00  0.00    +0.000 C 
ATOM      5  N   UNL     1       6.618   6.101  17.407  0.00  0.00    +0.000 N 
ATOM      6  C   UNL     1       6.498   5.463  16.134  0.00  0.00    +0.000 A 
ATOM      7  C   UNL     1       7.488   5.403  15.174  0.00  0.00    +0.000 A 
ATOM      8  C   UNL     1       7.223   4.707  13.988  0.00  0.00    +0.000 A 
ATOM      9  C   UNL     1       5.969   4.103  13.765  0.00  0.00    +0.000 A 
ATOM     10  C   UNL     1       5.717   3.293  12.527  0.00  0.00    +0.000 C 
ATOM     11  C   UNL     1       4.954   4.243  14.719  0.00  0.00    +0.000 A 
ATOM     12  C   UNL     1       5.234   4.930  15.890  0.00  0.00    +0.000 A 
ATOM     13  C   UNL     1       4.335   5.301  17.029  0.00  0.00    +0.000 C 
ATOM     14  C   UNL     1       3.284   4.282  17.458  0.00  0.00    +0.000 C 
ATOM     15  H   UNL     1       6.606   7.108  17.252  0.00  0.00    +0.000 HD
ENDROOT
BRANCH   1  16
ATOM     16  C   UNL     1       2.854   2.064  18.425  0.00  0.00    +0.000 C 
BRANCH  16  17
ATOM     17  C   UNL     1       1.484   2.657  18.770  0.00  0.00    +0.000 C 
BRANCH  17  19
ATOM     18  C   UNL     1       1.104   4.527  20.473  0.00  0.00    +0.000 C 
ATOM     19  C   UNL     1       1.363   3.060  20.223  0.00  0.00    +0.000 C 
ATOM     20  O   UNL     1       1.483   2.265  21.153  0.00  0.00    +0.000 OA
ENDBRANCH  17  19
ENDBRANCH  16  17
ENDBRANCH   1  16
TORSDOF 3
ENDMDL
MODEL 6
REMARK VINA RESULT:      -6.9      3.286      6.530
REMARK  Name = 
REMARK  5 active torsions:
REMARK  status: ('A' for Active; 'I' for Inactive)
REMARK    1  A    between atoms: C_1  and  C_2
REMARK    2  A    between atoms: C_2  and  C_4
REMARK    3  A    between atoms: C_4  and  C_5
REMARK    4  A    between atoms: C_5  and  N_6
REMARK    5  A    between atoms: C_14  and  C_15
REMARK                            x       y       z     vdW  Elec       q    Type
REMARK                         _______ _______ _______ _____ _____    ______ ____
ROOT
ATOM      1  N   UNL     1       4.384   3.992  17.555  0.00  0.00    +0.000 NA
ATOM      2  C   UNL     1       4.663   3.051  18.651  0.00  0.00    +0.000 C 
ATOM      3  C   UNL     1       3.935   3.468  19.928  0.00  0.00    +0.000 C 
ATOM      4  C   UNL     1       2.423   3.670  19.733  0.00  0.00    +0.000 C 
ATOM      5  N   UNL     1       1.915   4.556  20.826  0.00  0.00    +0.000 N 
ATOM      6  C   UNL     1       1.908   5.836  20.188  0.00  0.00    +0.000 A 
ATOM      7  C   UNL     1       1.722   7.045  20.827  0.00  0.00    +0.000 A 
ATOM      8  C   UNL     1       1.779   8.216  20.061  0.00  0.00    +0.000 A 
ATOM      9  C   UNL     1       1.994   8.166  18.670  0.00  0.00    +0.000 A 
ATOM     10  C   UNL     1       2.131   9.426  17.867  0.00  0.00    +0.000 C 
ATOM     11  C   UNL     1       2.102   6.924  18.032  0.00  0.00    +0.000 A 
ATOM     12  C   UNL     1       2.050   5.773  18.804  0.00  0.00    +0.000 A 
ATOM     13  C   UNL     1       2.054   4.334  18.392  0.00  0.00    +0.000 C 
ATOM     14  C   UNL     1       2.954   3.938  17.225  0.00  0.00    +0.000 C 
ATOM     15  H   UNL     1       0.956   4.335  21.086  0.00  0.00    +0.000 HD
ENDROOT
BRANCH   1  16
ATOM     16  C   UNL     1       5.257   3.721  16.394  0.00  0.00    +0.000 C 
BRANCH  16  17
ATOM     17  C   UNL     1       6.080   4.945  15.980  0.00  0.00    +0.000 C 
BRANCH  17  19
ATOM     18  C   UNL     1       7.341   6.662  17.394  0.00  0.00    +0.000 C 
ATOM     19  C   UNL     1       7.229   5.232  16.922  0.00  0.00    +0.000 C 
ATOM     20  O   UNL     1       8.038   4.377  17.275  0.00  0.00    +0.000 OA
ENDBRANCH  17  19
ENDBRANCH  16  17
ENDBRANCH   1  16
TORSDOF 3
ENDMDL
MODEL 7
REMARK VINA RESULT:      -6.9      3.381      6.655
REMARK  Name = 
REMARK  5 active torsions:
REMARK  status: ('A' for Active; 'I' for Inactive)
REMARK    1  A    between atoms: C_1  and  C_2
REMARK    2  A    between atoms: C_2  and  C_4
REMARK    3  A    between atoms: C_4  and  C_5
REMARK    4  A    between atoms: C_5  and  N_6
REMARK    5  A    between atoms: C_14  and  C_15
REMARK                            x       y       z     vdW  Elec       q    Type
REMARK                         _______ _______ _______ _____ _____    ______ ____
ROOT
ATOM      1  N   UNL     1       4.328   3.860  17.591  0.00  0.00    +0.000 NA
ATOM      2  C   UNL     1       4.588   2.927  18.699  0.00  0.00    +0.000 C 
ATOM      3  C   UNL     1       3.869   3.376  19.971  0.00  0.00    +0.000 C 
ATOM      4  C   UNL     1       2.361   3.608  19.774  0.00  0.00    +0.000 C 
ATOM      5  N   UNL     1       1.873   4.518  20.855  0.00  0.00    +0.000 N 
ATOM      6  C   UNL     1       1.893   5.789  20.201  0.00  0.00    +0.000 A 
ATOM      7  C   UNL     1       1.733   7.010  20.825  0.00  0.00    +0.000 A 
ATOM      8  C   UNL     1       1.814   8.170  20.045  0.00  0.00    +0.000 A 
ATOM      9  C   UNL     1       2.028   8.098  18.654  0.00  0.00    +0.000 A 
ATOM     10  C   UNL     1       2.191   9.345  17.836  0.00  0.00    +0.000 C 
ATOM     11  C   UNL     1       2.109   6.846  18.032  0.00  0.00    +0.000 A 
ATOM     12  C   UNL     1       2.033   5.706  18.818  0.00  0.00    +0.000 A 
ATOM     13  C   UNL     1       2.006   4.263  18.424  0.00  0.00    +0.000 C 
ATOM     14  C   UNL     1       2.897   3.833  17.262  0.00  0.00    +0.000 C 
ATOM     15  H   UNL     1       0.909   4.320  21.118  0.00  0.00    +0.000 HD
ENDROOT
BRANCH   1  16
ATOM     16  C   UNL     1       5.195   3.556  16.434  0.00  0.00    +0.000 C 
BRANCH  16  17
ATOM     17  C   UNL     1       6.435   4.454  16.377  0.00  0.00    +0.000 C 
BRANCH  17  19
ATOM     18  C   UNL     1       6.188   3.958  13.881  0.00  0.00    +0.000 C 
ATOM     19  C   UNL     1       6.897   4.736  14.964  0.00  0.00    +0.000 C 
ATOM     20  O   UNL     1       7.799   5.526  14.697  0.00  0.00    +0.000 OA
ENDBRANCH  17  19
ENDBRANCH  16  17
ENDBRANCH   1  16
TORSDOF 3
ENDMDL
MODEL 8
REMARK VINA RESULT:      -6.8      2.882      5.188
REMARK  Name = 
REMARK  5 active torsions:
REMARK  status: ('A' for Active; 'I' for Inactive)
REMARK    1  A    between atoms: C_1  and  C_2
REMARK    2  A    between atoms: C_2  and  C_4
REMARK    3  A    between atoms: C_4  and  C_5
REMARK    4  A    between atoms: C_5  and  N_6
REMARK    5  A    between atoms: C_14  and  C_15
REMARK                            x       y       z     vdW  Elec       q    Type
REMARK                         _______ _______ _______ _____ _____    ______ ____
ROOT
ATOM      1  N   UNL     1       3.714   3.240  18.545  0.00  0.00    +0.000 NA
ATOM      2  C   UNL     1       4.177   3.057  17.160  0.00  0.00    +0.000 C 
ATOM      3  C   UNL     1       4.229   4.392  16.419  0.00  0.00    +0.000 C 
ATOM      4  C   UNL     1       5.054   5.466  17.149  0.00  0.00    +0.000 C 
ATOM      5  N   UNL     1       4.620   6.813  16.665  0.00  0.00    +0.000 N 
ATOM      6  C   UNL     1       3.691   7.205  17.678  0.00  0.00    +0.000 A 
ATOM      7  C   UNL     1       2.837   8.286  17.603  0.00  0.00    +0.000 A 
ATOM      8  C   UNL     1       1.959   8.515  18.670  0.00  0.00    +0.000 A 
ATOM      9  C   UNL     1       1.962   7.681  19.806  0.00  0.00    +0.000 A 
ATOM     10  C   UNL     1       0.968   7.885  20.911  0.00  0.00    +0.000 C 
ATOM     11  C   UNL     1       2.891   6.637  19.894  0.00  0.00    +0.000 A 
ATOM     12  C   UNL     1       3.749   6.419  18.827  0.00  0.00    +0.000 A 
ATOM     13  C   UNL     1       4.879   5.448  18.681  0.00  0.00    +0.000 C 
ATOM     14  C   UNL     1       4.693   4.055  19.276  0.00  0.00    +0.000 C 
ATOM     15  H   UNL     1       5.384   7.487  16.667  0.00  0.00    +0.000 HD
ENDROOT
BRANCH   1  16
ATOM     16  C   UNL     1       3.449   1.937  19.188  0.00  0.00    +0.000 C 
BRANCH  16  17
ATOM     17  C   UNL     1       1.987   1.782  19.620  0.00  0.00    +0.000 C 
BRANCH  17  19
ATOM     18  C   UNL     1       0.803   3.912  20.397  0.00  0.00    +0.000 C 
ATOM     19  C   UNL     1       1.611   2.691  20.770  0.00  0.00    +0.000 C 
ATOM     20  O   UNL     1       1.947   2.478  21.933  0.00  0.00    +0.000 OA
ENDBRANCH  17  19
ENDBRANCH  16  17
ENDBRANCH   1  16
TORSDOF 3
ENDMDL
MODEL 9
REMARK VINA RESULT:      -6.8      2.720      6.320
REMARK  Name = 
REMARK  5 active torsions:
REMARK  status: ('A' for Active; 'I' for Inactive)
REMARK    1  A    between atoms: C_1  and  C_2
REMARK    2  A    between atoms: C_2  and  C_4
REMARK    3  A    between atoms: C_4  and  C_5
REMARK    4  A    between atoms: C_5  and  N_6
REMARK    5  A    between atoms: C_14  and  C_15
REMARK                            x       y       z     vdW  Elec       q    Type
REMARK                         _______ _______ _______ _____ _____    ______ ____
ROOT
ATOM      1  N   UNL     1       4.865   4.809  15.705  0.00  0.00    +0.000 NA
ATOM      2  C   UNL     1       5.499   6.114  15.952  0.00  0.00    +0.000 C 
ATOM      3  C   UNL     1       5.184   6.618  17.360  0.00  0.00    +0.000 C 
ATOM      4  C   UNL     1       5.534   5.606  18.465  0.00  0.00    +0.000 C 
ATOM      5  N   UNL     1       4.733   5.936  19.684  0.00  0.00    +0.000 N 
ATOM      6  C   UNL     1       3.630   5.034  19.564  0.00  0.00    +0.000 A 
ATOM      7  C   UNL     1       2.480   5.074  20.327  0.00  0.00    +0.000 A 
ATOM      8  C   UNL     1       1.473   4.138  20.060  0.00  0.00    +0.000 A 
ATOM      9  C   UNL     1       1.635   3.162  19.057  0.00  0.00    +0.000 A 
ATOM     10  C   UNL     1       0.523   2.211  18.724  0.00  0.00    +0.000 C 
ATOM     11  C   UNL     1       2.842   3.092  18.349  0.00  0.00    +0.000 A 
ATOM     12  C   UNL     1       3.826   4.029  18.620  0.00  0.00    +0.000 A 
ATOM     13  C   UNL     1       5.221   4.144  18.088  0.00  0.00    +0.000 C 
ATOM     14  C   UNL     1       5.443   3.813  16.616  0.00  0.00    +0.000 C 
ATOM     15  H   UNL     1       5.229   5.706  20.544  0.00  0.00    +0.000 HD
ENDROOT
BRANCH   1  16
ATOM     16  C   UNL     1       4.978   4.430  14.282  0.00  0.00    +0.000 C 
BRANCH  16  17
ATOM     17  C   UNL     1       6.353   3.848  13.937  0.00  0.00    +0.000 C 
BRANCH  17  19
ATOM     18  C   UNL     1       5.741   2.593  11.795  0.00  0.00    +0.000 C 
ATOM     19  C   UNL     1       6.566   3.676  12.449  0.00  0.00    +0.000 C 
ATOM     20  O   UNL     1       7.365   4.350  11.802  0.00  0.00    +0.000 OA
ENDBRANCH  17  19
ENDBRANCH  16  17
ENDBRANCH   1  16
TORSDOF 3
ENDMDL
