MODEL 1
REMARK VINA RESULT:      -9.2      0.000      0.000
REMARK  Name = 
REMARK  8 active torsions:
REMARK  status: ('A' for Active; 'I' for Inactive)
REMARK    1  A    between atoms: C_1  and  C_2
REMARK    2  A    between atoms: C_4  and  C_5
REMARK    3  A    between atoms: C_7  and  C_8
REMARK    4  A    between atoms: N_12  and  C_13
REMARK    5  A    between atoms: C_13  and  C_14
REMARK    6  A    between atoms: C_17  and  O_18
REMARK    7  A    between atoms: O_18  and  C_19
REMARK    8  A    between atoms: C_22  and  C_23
REMARK                            x       y       z     vdW  Elec       q    Type
REMARK                         _______ _______ _______ _____ _____    ______ ____
ROOT
ATOM      1  C   UNL     1       2.174   7.071  18.929  0.00  0.00    +0.000 A 
ATOM      2  C   UNL     1       1.651   7.562  20.138  0.00  0.00    +0.000 A 
ATOM      3  C   UNL     1       1.139   8.872  20.235  0.00  0.00    +0.000 A 
ATOM      4  C   UNL     1       1.197   9.739  19.143  0.00  0.00    +0.000 A 
ATOM      5  C   UNL     1       1.754   9.278  17.949  0.00  0.00    +0.000 A 
ATOM      6  C   UNL     1       2.244   7.966  17.846  0.00  0.00    +0.000 A 
ENDROOT
BRANCH   1   7
ATOM      7  C   UNL     1       2.636   5.611  18.742  0.00  0.00    +0.000 C 
BRANCH   7  12
ATOM      8  C   UNL     1       4.704   4.346  19.507  0.00  0.00    +0.000 C 
ATOM      9  C   UNL     1       4.275   2.905  19.248  0.00  0.00    +0.000 C 
ATOM     10  C   UNL     1       3.304   2.673  20.378  0.00  0.00    +0.000 C 
ATOM     11  C   UNL     1       2.669   4.042  20.615  0.00  0.00    +0.000 C 
ATOM     12  N   UNL     1       3.442   5.061  19.849  0.00  0.00    +0.000 NA
BRANCH   8  19
ATOM     13  C   UNL     1       6.205   4.045  14.760  0.00  0.00    +0.000 C 
ATOM     14  C   UNL     1       6.396   4.671  16.112  0.00  0.00    +0.000 A 
ATOM     15  C   UNL     1       7.104   5.866  16.250  0.00  0.00    +0.000 A 
ATOM     16  C   UNL     1       7.154   6.524  17.486  0.00  0.00    +0.000 A 
ATOM     17  C   UNL     1       7.857   7.846  17.597  0.00  0.00    +0.000 C 
ATOM     18  C   UNL     1       6.473   5.986  18.597  0.00  0.00    +0.000 A 
ATOM     19  C   UNL     1       5.750   4.789  18.492  0.00  0.00    +0.000 A 
ATOM     20  C   UNL     1       5.756   4.132  17.238  0.00  0.00    +0.000 A 
ENDBRANCH   8  19
ENDBRANCH   7  12
ENDBRANCH   1   7
BRANCH   4  21
ATOM     21  O   UNL     1       0.652  11.008  19.109  0.00  0.00    +0.000 OA
BRANCH  21  22
ATOM     22  C   UNL     1      -0.704  11.191  18.956  0.00  0.00    +0.000 A 
ATOM     23  C   UNL     1      -1.327  10.454  17.935  0.00  0.00    +0.000 A 
ATOM     24  C   UNL     1      -2.701  10.599  17.684  0.00  0.00    +0.000 A 
ATOM     25  C   UNL     1      -3.472  11.488  18.446  0.00  0.00    +0.000 A 
ATOM     26  C   UNL     1      -2.834  12.247  19.438  0.00  0.00    +0.000 A 
ATOM     27  C   UNL     1      -1.466  12.115  19.668  0.00  0.00    +0.000 A 
ATOM     28  F   UNL     1      -0.906  12.918  20.581  0.00  0.00    +0.000 F 
BRANCH  25  29
ATOM     29  C   UNL     1      -4.939  11.696  18.273  0.00  0.00    +0.000 C 
ATOM     30  N   UNL     1      -5.377  12.568  17.316  0.00  0.00    +0.000 N 
ATOM     31  O   UNL     1      -5.752  11.106  18.970  0.00  0.00    +0.000 OA
ATOM     32  H   UNL     1      -4.793  13.148  16.735  0.00  0.00    +0.000 HD
ATOM     33  H   UNL     1      -6.378  12.698  17.260  0.00  0.00    +0.000 HD
ENDBRANCH  25  29
ENDBRANCH  21  22
ENDBRANCH   4  21
TORSDOF 6
ENDMDL
MODEL 2
REMARK VINA RESULT:      -9.1      3.595     10.042
REMARK  Name = 
REMARK  8 active torsions:
REMARK  status: ('A' for Active; 'I' for Inactive)
REMARK    1  A    between atoms: C_1  and  C_2
REMARK    2  A    between atoms: C_4  and  C_5
REMARK    3  A    between atoms: C_7  and  C_8
REMARK    4  A    between atoms: N_12  and  C_13
REMARK    5  A    between atoms: C_13  and  C_14
REMARK    6  A    between atoms: C_17  and  O_18
REMARK    7  A    between atoms: O_18  and  C_19
REMARK    8  A    between atoms: C_22  and  C_23
REMARK                            x       y       z     vdW  Elec       q    Type
REMARK                         _______ _______ _______ _____ _____    ______ ____
ROOT
ATOM      1  C   UNL     1       1.222   9.405  18.973  0.00  0.00    +0.000 A 
ATOM      2  C   UNL     1       1.295   8.695  20.185  0.00  0.00    +0.000 A 
ATOM      3  C   UNL     1       1.989   7.472  20.276  0.00  0.00    +0.000 A 
ATOM      4  C   UNL     1       2.570   6.900  19.142  0.00  0.00    +0.000 A 
ATOM      5  C   UNL     1       2.466   7.572  17.923  0.00  0.00    +0.000 A 
ATOM      6  C   UNL     1       1.794   8.802  17.838  0.00  0.00    +0.000 A 
ENDROOT
BRANCH   1   7
ATOM      7  C   UNL     1       0.577  10.801  18.852  0.00  0.00    +0.000 C 
BRANCH   7  12
ATOM      8  C   UNL     1      -1.589  11.823  19.704  0.00  0.00    +0.000 C 
ATOM      9  C   UNL     1      -1.294  13.311  19.536  0.00  0.00    +0.000 C 
ATOM     10  C   UNL     1      -0.336  13.557  20.674  0.00  0.00    +0.000 C 
ATOM     11  C   UNL     1       0.421  12.239  20.821  0.00  0.00    +0.000 C 
ATOM     12  N   UNL     1      -0.265  11.205  19.995  0.00  0.00    +0.000 NA
BRANCH   8  19
ATOM     13  C   UNL     1      -6.133  12.544  17.779  0.00  0.00    +0.000 C 
ATOM     14  C   UNL     1      -4.824  11.810  17.697  0.00  0.00    +0.000 A 
ATOM     15  C   UNL     1      -4.436  11.176  16.517  0.00  0.00    +0.000 A 
ATOM     16  C   UNL     1      -3.154  10.623  16.396  0.00  0.00    +0.000 A 
ATOM     17  C   UNL     1      -2.728  10.010  15.093  0.00  0.00    +0.000 C 
ATOM     18  C   UNL     1      -2.243  10.718  17.468  0.00  0.00    +0.000 A 
ATOM     19  C   UNL     1      -2.600  11.353  18.667  0.00  0.00    +0.000 A 
ATOM     20  C   UNL     1      -3.917  11.863  18.766  0.00  0.00    +0.000 A 
ENDBRANCH   8  19
ENDBRANCH   7  12
ENDBRANCH   1   7
BRANCH   4  21
ATOM     21  O   UNL     1       3.339   5.751  19.140  0.00  0.00    +0.000 OA
BRANCH  21  22
ATOM     22  C   UNL     1       4.141   5.441  18.066  0.00  0.00    +0.000 A 
ATOM     23  C   UNL     1       5.221   6.304  17.817  0.00  0.00    +0.000 A 
ATOM     24  C   UNL     1       6.076   6.085  16.724  0.00  0.00    +0.000 A 
ATOM     25  C   UNL     1       5.859   5.003  15.859  0.00  0.00    +0.000 A 
ATOM     26  C   UNL     1       4.756   4.169  16.094  0.00  0.00    +0.000 A 
ATOM     27  C   UNL     1       3.900   4.404  17.167  0.00  0.00    +0.000 A 
ATOM     28  F   UNL     1       2.826   3.613  17.295  0.00  0.00    +0.000 F 
BRANCH  25  29
ATOM     29  C   UNL     1       6.721   4.673  14.688  0.00  0.00    +0.000 C 
ATOM     30  N   UNL     1       6.392   3.604  13.903  0.00  0.00    +0.000 N 
ATOM     31  O   UNL     1       7.712   5.337  14.420  0.00  0.00    +0.000 OA
ATOM     32  H   UNL     1       5.638   2.958  14.072  0.00  0.00    +0.000 HD
ATOM     33  H   UNL     1       7.026   3.402  13.141  0.00  0.00    +0.000 HD
ENDBRANCH  25  29
ENDBRANCH  21  22
ENDBRANCH   4  21
TORSDOF 6
ENDMDL
MODEL 3
REMARK VINA RESULT:      -9.1      1.034      1.346
REMARK  Name = 
REMARK  8 active torsions:
REMARK  status: ('A' for Active; 'I' for Inactive)
REMARK    1  A    between atoms: C_1  and  C_2
REMARK    2  A    between atoms: C_4  and  C_5
REMARK    3  A    between atoms: C_7  and  C_8
REMARK    4  A    between atoms: N_12  and  C_13
REMARK    5  A    between atoms: C_13  and  C_14
REMARK    6  A    between atoms: C_17  and  O_18
REMARK    7  A    between atoms: O_18  and  C_19
REMARK    8  A    between atoms: C_22  and  C_23
REMARK                            x       y       z     vdW  Elec       q    Type
REMARK                         _______ _______ _______ _____ _____    ______ ____
ROOT
ATOM      1  C   UNL     1       2.144   6.984  18.933  0.00  0.00    +0.000 A 
ATOM      2  C   UNL     1       1.701   7.612  20.111  0.00  0.00    +0.000 A 
ATOM      3  C   UNL     1       1.293   8.961  20.113  0.00  0.00    +0.000 A 
ATOM      4  C   UNL     1       1.380   9.730  18.950  0.00  0.00    +0.000 A 
ATOM      5  C   UNL     1       1.860   9.131  17.784  0.00  0.00    +0.000 A 
ATOM      6  C   UNL     1       2.245   7.781  17.778  0.00  0.00    +0.000 A 
ENDROOT
BRANCH   1   7
ATOM      7  C   UNL     1       2.486   5.482  18.857  0.00  0.00    +0.000 C 
BRANCH   7  12
ATOM      8  C   UNL     1       4.619   4.295  19.567  0.00  0.00    +0.000 C 
ATOM      9  C   UNL     1       4.224   2.837  19.353  0.00  0.00    +0.000 C 
ATOM     10  C   UNL     1       3.303   2.600  20.523  0.00  0.00    +0.000 C 
ATOM     11  C   UNL     1       2.637   3.954  20.757  0.00  0.00    +0.000 C 
ATOM     12  N   UNL     1       3.350   4.979  19.943  0.00  0.00    +0.000 NA
BRANCH   8  19
ATOM     13  C   UNL     1       5.704   4.304  14.699  0.00  0.00    +0.000 C 
ATOM     14  C   UNL     1       6.053   4.793  16.076  0.00  0.00    +0.000 A 
ATOM     15  C   UNL     1       6.864   5.915  16.248  0.00  0.00    +0.000 A 
ATOM     16  C   UNL     1       7.066   6.456  17.525  0.00  0.00    +0.000 A 
ATOM     17  C   UNL     1       7.881   7.708  17.683  0.00  0.00    +0.000 C 
ATOM     18  C   UNL     1       6.436   5.874  18.643  0.00  0.00    +0.000 A 
ATOM     19  C   UNL     1       5.612   4.747  18.505  0.00  0.00    +0.000 A 
ATOM     20  C   UNL     1       5.464   4.204  17.205  0.00  0.00    +0.000 A 
ENDBRANCH   8  19
ENDBRANCH   7  12
ENDBRANCH   1   7
BRANCH   4  21
ATOM     21  O   UNL     1       0.931  11.031  18.825  0.00  0.00    +0.000 OA
BRANCH  21  22
ATOM     22  C   UNL     1      -0.411  11.325  18.894  0.00  0.00    +0.000 A 
ATOM     23  C   UNL     1      -0.813  12.194  19.922  0.00  0.00    +0.000 A 
ATOM     24  C   UNL     1      -2.167  12.527  20.091  0.00  0.00    +0.000 A 
ATOM     25  C   UNL     1      -3.141  11.990  19.238  0.00  0.00    +0.000 A 
ATOM     26  C   UNL     1      -2.735  11.093  18.238  0.00  0.00    +0.000 A 
ATOM     27  C   UNL     1      -1.393  10.750  18.090  0.00  0.00    +0.000 A 
ATOM     28  F   UNL     1      -1.080   9.836  17.162  0.00  0.00    +0.000 F 
BRANCH  25  29
ATOM     29  C   UNL     1      -4.598  12.298  19.320  0.00  0.00    +0.000 C 
ATOM     30  N   UNL     1      -4.990  13.564  19.653  0.00  0.00    +0.000 N 
ATOM     31  O   UNL     1      -5.443  11.442  19.099  0.00  0.00    +0.000 OA
ATOM     32  H   UNL     1      -4.380  14.321  19.915  0.00  0.00    +0.000 HD
ATOM     33  H   UNL     1      -5.988  13.714  19.726  0.00  0.00    +0.000 HD
ENDBRANCH  25  29
ENDBRANCH  21  22
ENDBRANCH   4  21
TORSDOF 6
ENDMDL
MODEL 4
REMARK VINA RESULT:      -9.1      1.379      2.281
REMARK  Name = 
REMARK  8 active torsions:
REMARK  status: ('A' for Active; 'I' for Inactive)
REMARK    1  A    between atoms: C_1  and  C_2
REMARK    2  A    between atoms: C_4  and  C_5
REMARK    3  A    between atoms: C_7  and  C_8
REMARK    4  A    between atoms: N_12  and  C_13
REMARK    5  A    between atoms: C_13  and  C_14
REMARK    6  A    between atoms: C_17  and  O_18
REMARK    7  A    between atoms: O_18  and  C_19
REMARK    8  A    between atoms: C_22  and  C_23
REMARK                            x       y       z     vdW  Elec       q    Type
REMARK                         _______ _______ _______ _____ _____    ______ ____
ROOT
ATOM      1  C   UNL     1       2.109   6.293  19.200  0.00  0.00    +0.000 A 
ATOM      2  C   UNL     1       1.754   7.066  20.319  0.00  0.00    +0.000 A 
ATOM      3  C   UNL     1       1.538   8.455  20.212  0.00  0.00    +0.000 A 
ATOM      4  C   UNL     1       1.735   9.111  18.996  0.00  0.00    +0.000 A 
ATOM      5  C   UNL     1       2.131   8.363  17.886  0.00  0.00    +0.000 A 
ATOM      6  C   UNL     1       2.324   6.975  17.988  0.00  0.00    +0.000 A 
ENDROOT
BRANCH   1   7
ATOM      7  C   UNL     1       2.238   4.757  19.243  0.00  0.00    +0.000 C 
BRANCH   7  12
ATOM      8  C   UNL     1       4.607   3.851  19.060  0.00  0.00    +0.000 C 
ATOM      9  C   UNL     1       4.333   2.396  18.689  0.00  0.00    +0.000 C 
ATOM     10  C   UNL     1       3.860   1.834  20.006  0.00  0.00    +0.000 C 
ATOM     11  C   UNL     1       3.152   3.006  20.682  0.00  0.00    +0.000 C 
ATOM     12  N   UNL     1       3.451   4.248  19.913  0.00  0.00    +0.000 NA
BRANCH   8  19
ATOM     13  C   UNL     1       7.663   7.504  17.582  0.00  0.00    +0.000 C 
ATOM     14  C   UNL     1       6.748   6.380  17.186  0.00  0.00    +0.000 A 
ATOM     15  C   UNL     1       6.823   5.816  15.913  0.00  0.00    +0.000 A 
ATOM     16  C   UNL     1       6.076   4.673  15.597  0.00  0.00    +0.000 A 
ATOM     17  C   UNL     1       6.226   4.036  14.245  0.00  0.00    +0.000 C 
ATOM     18  C   UNL     1       5.253   4.079  16.574  0.00  0.00    +0.000 A 
ATOM     19  C   UNL     1       5.157   4.618  17.865  0.00  0.00    +0.000 A 
ATOM     20  C   UNL     1       5.895   5.796  18.135  0.00  0.00    +0.000 A 
ENDBRANCH   8  19
ENDBRANCH   7  12
ENDBRANCH   1   7
BRANCH   4  21
ATOM     21  O   UNL     1       1.473  10.448  18.765  0.00  0.00    +0.000 OA
BRANCH  21  22
ATOM     22  C   UNL     1       0.223  10.973  18.998  0.00  0.00    +0.000 A 
ATOM     23  C   UNL     1       0.098  11.837  20.098  0.00  0.00    +0.000 A 
ATOM     24  C   UNL     1      -1.146  12.396  20.433  0.00  0.00    +0.000 A 
ATOM     25  C   UNL     1      -2.286  12.094  19.675  0.00  0.00    +0.000 A 
ATOM     26  C   UNL     1      -2.159  11.201  18.600  0.00  0.00    +0.000 A 
ATOM     27  C   UNL     1      -0.927  10.633  18.288  0.00  0.00    +0.000 A 
ATOM     28  F   UNL     1      -0.886   9.735  17.295  0.00  0.00    +0.000 F 
BRANCH  25  29
ATOM     29  C   UNL     1      -3.645  12.653  19.934  0.00  0.00    +0.000 C 
ATOM     30  N   UNL     1      -4.616  12.502  18.985  0.00  0.00    +0.000 N 
ATOM     31  O   UNL     1      -3.902  13.243  20.974  0.00  0.00    +0.000 OA
ATOM     32  H   UNL     1      -4.491  12.091  18.074  0.00  0.00    +0.000 HD
ATOM     33  H   UNL     1      -5.510  12.926  19.194  0.00  0.00    +0.000 HD
ENDBRANCH  25  29
ENDBRANCH  21  22
ENDBRANCH   4  21
TORSDOF 6
ENDMDL
MODEL 5
REMARK VINA RESULT:      -8.9      0.955      1.004
REMARK  Name = 
REMARK  8 active torsions:
REMARK  status: ('A' for Active; 'I' for Inactive)
REMARK    1  A    between atoms: C_1  and  C_2
REMARK    2  A    between atoms: C_4  and  C_5
REMARK    3  A    between atoms: C_7  and  C_8
REMARK    4  A    between atoms: N_12  and  C_13
REMARK    5  A    between atoms: C_13  and  C_14
REMARK    6  A    between atoms: C_17  and  O_18
REMARK    7  A    between atoms: O_18  and  C_19
REMARK    8  A    between atoms: C_22  and  C_23
REMARK                            x       y       z     vdW  Elec       q    Type
REMARK                         _______ _______ _______ _____ _____    ______ ____
ROOT
ATOM      1  C   UNL     1       2.163   7.198  18.900  0.00  0.00    +0.000 A 
ATOM      2  C   UNL     1       1.656   7.748  20.091  0.00  0.00    +0.000 A 
ATOM      3  C   UNL     1       1.245   9.095  20.158  0.00  0.00    +0.000 A 
ATOM      4  C   UNL     1       1.393   9.938  19.054  0.00  0.00    +0.000 A 
ATOM      5  C   UNL     1       1.936   9.415  17.879  0.00  0.00    +0.000 A 
ATOM      6  C   UNL     1       2.324   8.067  17.806  0.00  0.00    +0.000 A 
ENDROOT
BRANCH   1   7
ATOM      7  C   UNL     1       2.512   5.704  18.745  0.00  0.00    +0.000 C 
BRANCH   7  12
ATOM      8  C   UNL     1       4.552   4.379  19.486  0.00  0.00    +0.000 C 
ATOM      9  C   UNL     1       4.079   2.951  19.230  0.00  0.00    +0.000 C 
ATOM     10  C   UNL     1       3.113   2.745  20.370  0.00  0.00    +0.000 C 
ATOM     11  C   UNL     1       2.521   4.131  20.615  0.00  0.00    +0.000 C 
ATOM     12  N   UNL     1       3.314   5.129  19.842  0.00  0.00    +0.000 NA
BRANCH   8  19
ATOM     13  C   UNL     1       5.972   4.072  14.715  0.00  0.00    +0.000 C 
ATOM     14  C   UNL     1       6.206   4.676  16.070  0.00  0.00    +0.000 A 
ATOM     15  C   UNL     1       6.960   5.842  16.209  0.00  0.00    +0.000 A 
ATOM     16  C   UNL     1       7.052   6.485  17.451  0.00  0.00    +0.000 A 
ATOM     17  C   UNL     1       7.807   7.778  17.566  0.00  0.00    +0.000 C 
ATOM     18  C   UNL     1       6.368   5.961  18.567  0.00  0.00    +0.000 A 
ATOM     19  C   UNL     1       5.598   4.793  18.460  0.00  0.00    +0.000 A 
ATOM     20  C   UNL     1       5.562   4.149  17.200  0.00  0.00    +0.000 A 
ENDBRANCH   8  19
ENDBRANCH   7  12
ENDBRANCH   1   7
BRANCH   4  21
ATOM     21  O   UNL     1       0.949  11.244  18.990  0.00  0.00    +0.000 OA
BRANCH  21  22
ATOM     22  C   UNL     1      -0.365  11.558  19.255  0.00  0.00    +0.000 A 
ATOM     23  C   UNL     1      -1.291  11.302  18.230  0.00  0.00    +0.000 A 
ATOM     24  C   UNL     1      -2.650  11.619  18.397  0.00  0.00    +0.000 A 
ATOM     25  C   UNL     1      -3.100  12.204  19.589  0.00  0.00    +0.000 A 
ATOM     26  C   UNL     1      -2.161  12.490  20.591  0.00  0.00    +0.000 A 
ATOM     27  C   UNL     1      -0.813  12.193  20.411  0.00  0.00    +0.000 A 
ATOM     28  F   UNL     1       0.041  12.556  21.377  0.00  0.00    +0.000 F 
BRANCH  25  29
ATOM     29  C   UNL     1      -4.522  12.556  19.871  0.00  0.00    +0.000 C 
ATOM     30  N   UNL     1      -4.922  12.707  21.169  0.00  0.00    +0.000 N 
ATOM     31  O   UNL     1      -5.331  12.707  18.967  0.00  0.00    +0.000 OA
ATOM     32  H   UNL     1      -4.354  12.544  21.984  0.00  0.00    +0.000 HD
ATOM     33  H   UNL     1      -5.902  12.914  21.309  0.00  0.00    +0.000 HD
ENDBRANCH  25  29
ENDBRANCH  21  22
ENDBRANCH   4  21
TORSDOF 6
ENDMDL
MODEL 6
REMARK VINA RESULT:      -8.8      2.430      2.871
REMARK  Name = 
REMARK  8 active torsions:
REMARK  status: ('A' for Active; 'I' for Inactive)
REMARK    1  A    between atoms: C_1  and  C_2
REMARK    2  A    between atoms: C_4  and  C_5
REMARK    3  A    between atoms: C_7  and  C_8
REMARK    4  A    between atoms: N_12  and  C_13
REMARK    5  A    between atoms: C_13  and  C_14
REMARK    6  A    between atoms: C_17  and  O_18
REMARK    7  A    between atoms: O_18  and  C_19
REMARK    8  A    between atoms: C_22  and  C_23
REMARK                            x       y       z     vdW  Elec       q    Type
REMARK                         _______ _______ _______ _____ _____    ______ ____
ROOT
ATOM      1  C   UNL     1       1.822   7.773  19.428  0.00  0.00    +0.000 A 
ATOM      2  C   UNL     1       1.558   8.935  18.683  0.00  0.00    +0.000 A 
ATOM      3  C   UNL     1       1.218  10.149  19.315  0.00  0.00    +0.000 A 
ATOM      4  C   UNL     1       1.072  10.209  20.702  0.00  0.00    +0.000 A 
ATOM      5  C   UNL     1       1.288   9.051  21.451  0.00  0.00    +0.000 A 
ATOM      6  C   UNL     1       1.648   7.848  20.822  0.00  0.00    +0.000 A 
ENDROOT
BRANCH   1   7
ATOM      7  C   UNL     1       2.312   6.456  18.791  0.00  0.00    +0.000 C 
BRANCH   7  12
ATOM      8  C   UNL     1       3.508   4.274  19.310  0.00  0.00    +0.000 C 
ATOM      9  C   UNL     1       2.613   3.273  18.585  0.00  0.00    +0.000 C 
ATOM     10  C   UNL     1       1.415   3.224  19.499  0.00  0.00    +0.000 C 
ATOM     11  C   UNL     1       1.334   4.631  20.087  0.00  0.00    +0.000 C 
ATOM     12  N   UNL     1       2.586   5.362  19.742  0.00  0.00    +0.000 NA
BRANCH   8  19
ATOM     13  C   UNL     1       5.792   4.144  14.878  0.00  0.00    +0.000 C 
ATOM     14  C   UNL     1       5.890   4.450  16.346  0.00  0.00    +0.000 A 
ATOM     15  C   UNL     1       6.910   5.267  16.836  0.00  0.00    +0.000 A 
ATOM     16  C   UNL     1       6.913   5.671  18.177  0.00  0.00    +0.000 A 
ATOM     17  C   UNL     1       7.977   6.610  18.669  0.00  0.00    +0.000 C 
ATOM     18  C   UNL     1       5.873   5.264  19.037  0.00  0.00    +0.000 A 
ATOM     19  C   UNL     1       4.831   4.446  18.576  0.00  0.00    +0.000 A 
ATOM     20  C   UNL     1       4.884   4.024  17.225  0.00  0.00    +0.000 A 
ENDBRANCH   8  19
ENDBRANCH   7  12
ENDBRANCH   1   7
BRANCH   4  21
ATOM     21  O   UNL     1       0.824  11.362  21.422  0.00  0.00    +0.000 OA
BRANCH  21  22
ATOM     22  C   UNL     1      -0.453  11.681  21.825  0.00  0.00    +0.000 A 
ATOM     23  C   UNL     1      -1.095  12.712  21.120  0.00  0.00    +0.000 A 
ATOM     24  C   UNL     1      -2.388  13.130  21.480  0.00  0.00    +0.000 A 
ATOM     25  C   UNL     1      -3.054  12.526  22.556  0.00  0.00    +0.000 A 
ATOM     26  C   UNL     1      -2.389  11.523  23.278  0.00  0.00    +0.000 A 
ATOM     27  C   UNL     1      -1.100  11.129  22.929  0.00  0.00    +0.000 A 
ATOM     28  F   UNL     1      -0.495  10.217  23.701  0.00  0.00    +0.000 F 
BRANCH  25  29
ATOM     29  C   UNL     1      -4.432  12.881  23.002  0.00  0.00    +0.000 C 
ATOM     30  N   UNL     1      -4.884  12.406  24.201  0.00  0.00    +0.000 N 
ATOM     31  O   UNL     1      -5.162  13.581  22.315  0.00  0.00    +0.000 OA
ATOM     32  H   UNL     1      -4.390  11.774  24.809  0.00  0.00    +0.000 HD
ATOM     33  H   UNL     1      -5.836  12.648  24.443  0.00  0.00    +0.000 HD
ENDBRANCH  25  29
ENDBRANCH  21  22
ENDBRANCH   4  21
TORSDOF 6
ENDMDL
MODEL 7
REMARK VINA RESULT:      -8.8      2.088      2.674
REMARK  Name = 
REMARK  8 active torsions:
REMARK  status: ('A' for Active; 'I' for Inactive)
REMARK    1  A    between atoms: C_1  and  C_2
REMARK    2  A    between atoms: C_4  and  C_5
REMARK    3  A    between atoms: C_7  and  C_8
REMARK    4  A    between atoms: N_12  and  C_13
REMARK    5  A    between atoms: C_13  and  C_14
REMARK    6  A    between atoms: C_17  and  O_18
REMARK    7  A    between atoms: O_18  and  C_19
REMARK    8  A    between atoms: C_22  and  C_23
REMARK                            x       y       z     vdW  Elec       q    Type
REMARK                         _______ _______ _______ _____ _____    ______ ____
ROOT
ATOM      1  C   UNL     1       1.757   7.926  19.686  0.00  0.00    +0.000 A 
ATOM      2  C   UNL     1       1.465   9.065  18.916  0.00  0.00    +0.000 A 
ATOM      3  C   UNL     1       1.073  10.277  19.520  0.00  0.00    +0.000 A 
ATOM      4  C   UNL     1       0.902  10.357  20.904  0.00  0.00    +0.000 A 
ATOM      5  C   UNL     1       1.145   9.219  21.676  0.00  0.00    +0.000 A 
ATOM      6  C   UNL     1       1.558   8.019  21.076  0.00  0.00    +0.000 A 
ENDROOT
BRANCH   1   7
ATOM      7  C   UNL     1       2.303   6.617  19.080  0.00  0.00    +0.000 C 
BRANCH   7  12
ATOM      8  C   UNL     1       3.454   4.414  19.615  0.00  0.00    +0.000 C 
ATOM      9  C   UNL     1       2.494   3.420  18.966  0.00  0.00    +0.000 C 
ATOM     10  C   UNL     1       1.340   3.440  19.936  0.00  0.00    +0.000 C 
ATOM     11  C   UNL     1       1.331   4.867  20.480  0.00  0.00    +0.000 C 
ATOM     12  N   UNL     1       2.588   5.545  20.053  0.00  0.00    +0.000 NA
BRANCH   8  19
ATOM     13  C   UNL     1       5.496   4.217  15.070  0.00  0.00    +0.000 C 
ATOM     14  C   UNL     1       5.687   4.494  16.534  0.00  0.00    +0.000 A 
ATOM     15  C   UNL     1       6.777   5.242  16.980  0.00  0.00    +0.000 A 
ATOM     16  C   UNL     1       6.873   5.626  18.324  0.00  0.00    +0.000 A 
ATOM     17  C   UNL     1       8.015   6.493  18.771  0.00  0.00    +0.000 C 
ATOM     18  C   UNL     1       5.856   5.267  19.232  0.00  0.00    +0.000 A 
ATOM     19  C   UNL     1       4.745   4.519  18.816  0.00  0.00    +0.000 A 
ATOM     20  C   UNL     1       4.703   4.115  17.459  0.00  0.00    +0.000 A 
ENDBRANCH   8  19
ENDBRANCH   7  12
ENDBRANCH   1   7
BRANCH   4  21
ATOM     21  O   UNL     1       0.602  11.511  21.600  0.00  0.00    +0.000 OA
BRANCH  21  22
ATOM     22  C   UNL     1      -0.704  11.901  21.791  0.00  0.00    +0.000 A 
ATOM     23  C   UNL     1      -1.290  11.555  23.020  0.00  0.00    +0.000 A 
ATOM     24  C   UNL     1      -2.629  11.883  23.293  0.00  0.00    +0.000 A 
ATOM     25  C   UNL     1      -3.403  12.556  22.338  0.00  0.00    +0.000 A 
ATOM     26  C   UNL     1      -2.820  12.865  21.100  0.00  0.00    +0.000 A 
ATOM     27  C   UNL     1      -1.499  12.517  20.827  0.00  0.00    +0.000 A 
ATOM     28  F   UNL     1      -1.025  12.778  19.602  0.00  0.00    +0.000 F 
BRANCH  25  29
ATOM     29  C   UNL     1      -4.822  12.968  22.540  0.00  0.00    +0.000 C 
ATOM     30  N   UNL     1      -5.374  13.883  21.689  0.00  0.00    +0.000 N 
ATOM     31  O   UNL     1      -5.495  12.505  23.450  0.00  0.00    +0.000 OA
ATOM     32  H   UNL     1      -4.891  14.370  20.952  0.00  0.00    +0.000 HD
ATOM     33  H   UNL     1      -6.329  14.154  21.888  0.00  0.00    +0.000 HD
ENDBRANCH  25  29
ENDBRANCH  21  22
ENDBRANCH   4  21
TORSDOF 6
ENDMDL
MODEL 8
REMARK VINA RESULT:      -8.8      2.315      2.703
REMARK  Name = 
REMARK  8 active torsions:
REMARK  status: ('A' for Active; 'I' for Inactive)
REMARK    1  A    between atoms: C_1  and  C_2
REMARK    2  A    between atoms: C_4  and  C_5
REMARK    3  A    between atoms: C_7  and  C_8
REMARK    4  A    between atoms: N_12  and  C_13
REMARK    5  A    between atoms: C_13  and  C_14
REMARK    6  A    between atoms: C_17  and  O_18
REMARK    7  A    between atoms: O_18  and  C_19
REMARK    8  A    between atoms: C_22  and  C_23
REMARK                            x       y       z     vdW  Elec       q    Type
REMARK                         _______ _______ _______ _____ _____    ______ ____
ROOT
ATOM      1  C   UNL     1       1.952   6.953  19.045  0.00  0.00    +0.000 A 
ATOM      2  C   UNL     1       1.892   8.211  18.420  0.00  0.00    +0.000 A 
ATOM      3  C   UNL     1       1.695   9.391  19.166  0.00  0.00    +0.000 A 
ATOM      4  C   UNL     1       1.491   9.331  20.546  0.00  0.00    +0.000 A 
ATOM      5  C   UNL     1       1.504   8.084  21.173  0.00  0.00    +0.000 A 
ATOM      6  C   UNL     1       1.722   6.911  20.432  0.00  0.00    +0.000 A 
ENDROOT
BRANCH   1   7
ATOM      7  C   UNL     1       2.283   5.651  18.287  0.00  0.00    +0.000 C 
BRANCH   7  12
ATOM      8  C   UNL     1       3.900   3.706  18.549  0.00  0.00    +0.000 C 
ATOM      9  C   UNL     1       3.165   2.612  17.780  0.00  0.00    +0.000 C 
ATOM     10  C   UNL     1       2.058   2.260  18.742  0.00  0.00    +0.000 C 
ATOM     11  C   UNL     1       1.751   3.573  19.458  0.00  0.00    +0.000 C 
ATOM     12  N   UNL     1       2.819   4.558  19.121  0.00  0.00    +0.000 NA
BRANCH   8  19
ATOM     13  C   UNL     1       5.978   4.149  14.037  0.00  0.00    +0.000 C 
ATOM     14  C   UNL     1       6.059   4.458  15.505  0.00  0.00    +0.000 A 
ATOM     15  C   UNL     1       6.878   5.486  15.972  0.00  0.00    +0.000 A 
ATOM     16  C   UNL     1       6.839   5.869  17.320  0.00  0.00    +0.000 A 
ATOM     17  C   UNL     1       7.673   7.027  17.789  0.00  0.00    +0.000 C 
ATOM     18  C   UNL     1       5.957   5.223  18.209  0.00  0.00    +0.000 A 
ATOM     19  C   UNL     1       5.117   4.188  17.771  0.00  0.00    +0.000 A 
ATOM     20  C   UNL     1       5.214   3.801  16.413  0.00  0.00    +0.000 A 
ENDBRANCH   8  19
ENDBRANCH   7  12
ENDBRANCH   1   7
BRANCH   4  21
ATOM     21  O   UNL     1       1.372  10.428  21.377  0.00  0.00    +0.000 OA
BRANCH  21  22
ATOM     22  C   UNL     1       0.135  10.932  21.708  0.00  0.00    +0.000 A 
ATOM     23  C   UNL     1      -0.381  11.935  20.871  0.00  0.00    +0.000 A 
ATOM     24  C   UNL     1      -1.623  12.531  21.149  0.00  0.00    +0.000 A 
ATOM     25  C   UNL     1      -2.363  12.138  22.273  0.00  0.00    +0.000 A 
ATOM     26  C   UNL     1      -1.822  11.162  23.123  0.00  0.00    +0.000 A 
ATOM     27  C   UNL     1      -0.581  10.591  22.854  0.00  0.00    +0.000 A 
ATOM     28  F   UNL     1      -0.090   9.717  23.742  0.00  0.00    +0.000 F 
BRANCH  25  29
ATOM     29  C   UNL     1      -3.698  12.692  22.641  0.00  0.00    +0.000 C 
ATOM     30  N   UNL     1      -4.167  13.790  21.975  0.00  0.00    +0.000 N 
ATOM     31  O   UNL     1      -4.375  12.187  23.525  0.00  0.00    +0.000 OA
ATOM     32  H   UNL     1      -3.664  14.317  21.280  0.00  0.00    +0.000 HD
ATOM     33  H   UNL     1      -5.062  14.147  22.284  0.00  0.00    +0.000 HD
ENDBRANCH  25  29
ENDBRANCH  21  22
ENDBRANCH   4  21
TORSDOF 6
ENDMDL
MODEL 9
REMARK VINA RESULT:      -8.8      1.039      1.900
REMARK  Name = 
REMARK  8 active torsions:
REMARK  status: ('A' for Active; 'I' for Inactive)
REMARK    1  A    between atoms: C_1  and  C_2
REMARK    2  A    between atoms: C_4  and  C_5
REMARK    3  A    between atoms: C_7  and  C_8
REMARK    4  A    between atoms: N_12  and  C_13
REMARK    5  A    between atoms: C_13  and  C_14
REMARK    6  A    between atoms: C_17  and  O_18
REMARK    7  A    between atoms: O_18  and  C_19
REMARK    8  A    between atoms: C_22  and  C_23
REMARK                            x       y       z     vdW  Elec       q    Type
REMARK                         _______ _______ _______ _____ _____    ______ ____
ROOT
ATOM      1  C   UNL     1       1.972   6.680  19.184  0.00  0.00    +0.000 A 
ATOM      2  C   UNL     1       1.605   7.349  20.365  0.00  0.00    +0.000 A 
ATOM      3  C   UNL     1       1.333   8.732  20.369  0.00  0.00    +0.000 A 
ATOM      4  C   UNL     1       1.485   9.488  19.205  0.00  0.00    +0.000 A 
ATOM      5  C   UNL     1       1.892   8.844  18.035  0.00  0.00    +0.000 A 
ATOM      6  C   UNL     1       2.141   7.462  18.027  0.00  0.00    +0.000 A 
ENDROOT
BRANCH   1   7
ATOM      7  C   UNL     1       2.164   5.152  19.106  0.00  0.00    +0.000 C 
BRANCH   7  12
ATOM      8  C   UNL     1       4.492   4.131  19.056  0.00  0.00    +0.000 C 
ATOM      9  C   UNL     1       4.162   2.672  18.753  0.00  0.00    +0.000 C 
ATOM     10  C   UNL     1       3.620   2.205  20.080  0.00  0.00    +0.000 C 
ATOM     11  C   UNL     1       2.946   3.443  20.668  0.00  0.00    +0.000 C 
ATOM     12  N   UNL     1       3.328   4.626  19.844  0.00  0.00    +0.000 NA
BRANCH   8  19
ATOM     13  C   UNL     1       7.689   7.627  17.497  0.00  0.00    +0.000 C 
ATOM     14  C   UNL     1       6.774   6.492  17.131  0.00  0.00    +0.000 A 
ATOM     15  C   UNL     1       6.903   5.842  15.904  0.00  0.00    +0.000 A 
ATOM     16  C   UNL     1       6.151   4.692  15.627  0.00  0.00    +0.000 A 
ATOM     17  C   UNL     1       6.358   3.962  14.330  0.00  0.00    +0.000 C 
ATOM     18  C   UNL     1       5.268   4.179  16.597  0.00  0.00    +0.000 A 
ATOM     19  C   UNL     1       5.117   4.807  17.843  0.00  0.00    +0.000 A 
ATOM     20  C   UNL     1       5.863   5.988  18.071  0.00  0.00    +0.000 A 
ENDBRANCH   8  19
ENDBRANCH   7  12
ENDBRANCH   1   7
BRANCH   4  21
ATOM     21  O   UNL     1       1.166  10.827  19.083  0.00  0.00    +0.000 OA
BRANCH  21  22
ATOM     22  C   UNL     1      -0.099  11.281  19.373  0.00  0.00    +0.000 A 
ATOM     23  C   UNL     1      -1.076  11.101  18.380  0.00  0.00    +0.000 A 
ATOM     24  C   UNL     1      -2.389  11.562  18.574  0.00  0.00    +0.000 A 
ATOM     25  C   UNL     1      -2.743  12.216  19.762  0.00  0.00    +0.000 A 
ATOM     26  C   UNL     1      -1.752  12.424  20.733  0.00  0.00    +0.000 A 
ATOM     27  C   UNL     1      -0.447  11.985  20.525  0.00  0.00    +0.000 A 
ATOM     28  F   UNL     1       0.467  12.276  21.460  0.00  0.00    +0.000 F 
BRANCH  25  29
ATOM     29  C   UNL     1      -4.112  12.720  20.072  0.00  0.00    +0.000 C 
ATOM     30  N   UNL     1      -4.944  13.059  19.043  0.00  0.00    +0.000 N 
ATOM     31  O   UNL     1      -4.499  12.839  21.226  0.00  0.00    +0.000 OA
ATOM     32  H   UNL     1      -4.702  13.059  18.065  0.00  0.00    +0.000 HD
ATOM     33  H   UNL     1      -5.849  13.426  19.306  0.00  0.00    +0.000 HD
ENDBRANCH  25  29
ENDBRANCH  21  22
ENDBRANCH   4  21
TORSDOF 6
ENDMDL
