MODEL 1
REMARK VINA RESULT:      -8.8      0.000      0.000
REMARK  Name = 
REMARK  2 active torsions:
REMARK  status: ('A' for Active; 'I' for Inactive)
REMARK    1  A    between atoms: C_4  and  C_5
REMARK    2  A    between atoms: C_5  and  N_6
REMARK                            x       y       z     vdW  Elec       q    Type
REMARK                         _______ _______ _______ _____ _____    ______ ____
ROOT
ATOM      1  N   UNL     1       6.372   5.917  16.840  0.00  0.00    +0.000 NA
ATOM      2  C   UNL     1       5.052   6.163  16.221  0.00  0.00    +0.000 C 
ATOM      3  C   UNL     1       3.958   5.259  16.815  0.00  0.00    +0.000 C 
ATOM      4  C   UNL     1       3.842   5.402  18.361  0.00  0.00    +0.000 C 
ATOM      5  C   UNL     1       3.137   6.722  18.792  0.00  0.00    +0.000 C 
ATOM      6  C   UNL     1       2.301   6.394  20.051  0.00  0.00    +0.000 C 
ATOM      7  C   UNL     1       2.040   4.943  19.875  0.00  0.00    +0.000 A 
ATOM      8  C   UNL     1       1.130   4.155  20.590  0.00  0.00    +0.000 A 
ATOM      9  C   UNL     1       1.061   2.781  20.312  0.00  0.00    +0.000 A 
ATOM     10  C   UNL     1       1.912   2.212  19.351  0.00  0.00    +0.000 A 
ATOM     11  C   UNL     1       2.843   3.008  18.671  0.00  0.00    +0.000 A 
ATOM     12  C   UNL     1       2.888   4.386  18.936  0.00  0.00    +0.000 A 
ATOM     13  C   UNL     1       5.250   5.237  18.992  0.00  0.00    +0.000 C 
ATOM     14  C   UNL     1       6.313   6.123  18.306  0.00  0.00    +0.000 C 
ENDROOT
BRANCH   1  15
ATOM     15  C   UNL     1       7.042   4.668  16.395  0.00  0.00    +0.000 C 
BRANCH  15  19
ATOM     16  C   UNL     1       7.108   4.480  12.102  0.00  0.00    +0.000 A 
ATOM     17  C   UNL     1       6.244   3.653  12.816  0.00  0.00    +0.000 A 
ATOM     18  C   UNL     1       6.219   3.715  14.211  0.00  0.00    +0.000 A 
ATOM     19  C   UNL     1       7.072   4.604  14.883  0.00  0.00    +0.000 A 
ATOM     20  N   UNL     1       7.908   5.405  14.162  0.00  0.00    +0.000 NA
ATOM     21  C   UNL     1       7.940   5.362  12.796  0.00  0.00    +0.000 A 
ENDBRANCH  15  19
ENDBRANCH   1  15
TORSDOF 2
ENDMDL
MODEL 2
REMARK VINA RESULT:      -7.9      0.625      1.055
REMARK  Name = 
REMARK  2 active torsions:
REMARK  status: ('A' for Active; 'I' for Inactive)
REMARK    1  A    between atoms: C_4  and  C_5
REMARK    2  A    between atoms: C_5  and  N_6
REMARK                            x       y       z     vdW  Elec       q    Type
REMARK                         _______ _______ _______ _____ _____    ______ ____
ROOT
ATOM      1  N   UNL     1       6.361   5.823  16.745  0.00  0.00    +0.000 NA
ATOM      2  C   UNL     1       5.038   6.075  16.137  0.00  0.00    +0.000 C 
ATOM      3  C   UNL     1       3.943   5.183  16.748  0.00  0.00    +0.000 C 
ATOM      4  C   UNL     1       3.842   5.336  18.294  0.00  0.00    +0.000 C 
ATOM      5  C   UNL     1       3.152   6.664  18.723  0.00  0.00    +0.000 C 
ATOM      6  C   UNL     1       2.326   6.351  19.992  0.00  0.00    +0.000 C 
ATOM      7  C   UNL     1       2.052   4.901  19.828  0.00  0.00    +0.000 A 
ATOM      8  C   UNL     1       1.143   4.125  20.558  0.00  0.00    +0.000 A 
ATOM      9  C   UNL     1       1.061   2.749  20.289  0.00  0.00    +0.000 A 
ATOM     10  C   UNL     1       1.899   2.167  19.324  0.00  0.00    +0.000 A 
ATOM     11  C   UNL     1       2.829   2.952  18.629  0.00  0.00    +0.000 A 
ATOM     12  C   UNL     1       2.887   4.331  18.885  0.00  0.00    +0.000 A 
ATOM     13  C   UNL     1       5.255   5.165  18.912  0.00  0.00    +0.000 C 
ATOM     14  C   UNL     1       6.318   6.039  18.210  0.00  0.00    +0.000 C 
ENDROOT
BRANCH   1  15
ATOM     15  C   UNL     1       7.018   4.566  16.302  0.00  0.00    +0.000 C 
BRANCH  15  19
ATOM     16  C   UNL     1       6.962   4.302  12.013  0.00  0.00    +0.000 A 
ATOM     17  C   UNL     1       7.796   5.226  12.637  0.00  0.00    +0.000 A 
ATOM     18  C   UNL     1       7.818   5.311  14.031  0.00  0.00    +0.000 A 
ATOM     19  C   UNL     1       6.991   4.470  14.791  0.00  0.00    +0.000 A 
ATOM     20  N   UNL     1       6.184   3.572  14.158  0.00  0.00    +0.000 NA
ATOM     21  C   UNL     1       6.156   3.471  12.795  0.00  0.00    +0.000 A 
ENDBRANCH  15  19
ENDBRANCH   1  15
TORSDOF 2
ENDMDL
MODEL 3
REMARK VINA RESULT:      -7.6      1.734      6.902
REMARK  Name = 
REMARK  2 active torsions:
REMARK  status: ('A' for Active; 'I' for Inactive)
REMARK    1  A    between atoms: C_4  and  C_5
REMARK    2  A    between atoms: C_5  and  N_6
REMARK                            x       y       z     vdW  Elec       q    Type
REMARK                         _______ _______ _______ _____ _____    ______ ____
ROOT
ATOM      1  N   UNL     1       4.246   5.728  17.994  0.00  0.00    +0.000 NA
ATOM      2  C   UNL     1       5.003   4.458  18.013  0.00  0.00    +0.000 C 
ATOM      3  C   UNL     1       5.141   3.848  16.607  0.00  0.00    +0.000 C 
ATOM      4  C   UNL     1       5.797   4.830  15.592  0.00  0.00    +0.000 C 
ATOM      5  C   UNL     1       7.333   4.972  15.800  0.00  0.00    +0.000 C 
ATOM      6  C   UNL     1       7.963   5.136  14.397  0.00  0.00    +0.000 C 
ATOM      7  C   UNL     1       6.966   4.452  13.534  0.00  0.00    +0.000 A 
ATOM      8  C   UNL     1       7.123   4.082  12.192  0.00  0.00    +0.000 A 
ATOM      9  C   UNL     1       6.041   3.486  11.525  0.00  0.00    +0.000 A 
ATOM     10  C   UNL     1       4.820   3.293  12.192  0.00  0.00    +0.000 A 
ATOM     11  C   UNL     1       4.669   3.704  13.523  0.00  0.00    +0.000 A 
ATOM     12  C   UNL     1       5.763   4.276  14.191  0.00  0.00    +0.000 A 
ATOM     13  C   UNL     1       5.052   6.190  15.652  0.00  0.00    +0.000 C 
ATOM     14  C   UNL     1       4.891   6.713  17.097  0.00  0.00    +0.000 C 
ENDROOT
BRANCH   1  15
ATOM     15  C   UNL     1       2.778   5.570  17.825  0.00  0.00    +0.000 C 
BRANCH  15  19
ATOM     16  C   UNL     1       1.197   3.019  20.900  0.00  0.00    +0.000 A 
ATOM     17  C   UNL     1       0.923   2.740  19.563  0.00  0.00    +0.000 A 
ATOM     18  C   UNL     1       1.438   3.566  18.563  0.00  0.00    +0.000 A 
ATOM     19  C   UNL     1       2.221   4.677  18.913  0.00  0.00    +0.000 A 
ATOM     20  N   UNL     1       2.477   4.929  20.229  0.00  0.00    +0.000 NA
ATOM     21  C   UNL     1       1.986   4.126  21.220  0.00  0.00    +0.000 A 
ENDBRANCH  15  19
ENDBRANCH   1  15
TORSDOF 2
ENDMDL
MODEL 4
REMARK VINA RESULT:      -7.5      1.717      6.946
REMARK  Name = 
REMARK  2 active torsions:
REMARK  status: ('A' for Active; 'I' for Inactive)
REMARK    1  A    between atoms: C_4  and  C_5
REMARK    2  A    between atoms: C_5  and  N_6
REMARK                            x       y       z     vdW  Elec       q    Type
REMARK                         _______ _______ _______ _____ _____    ______ ____
ROOT
ATOM      1  N   UNL     1       4.213   5.695  18.000  0.00  0.00    +0.000 NA
ATOM      2  C   UNL     1       4.986   4.435  18.019  0.00  0.00    +0.000 C 
ATOM      3  C   UNL     1       5.144   3.833  16.612  0.00  0.00    +0.000 C 
ATOM      4  C   UNL     1       5.797   4.828  15.608  0.00  0.00    +0.000 C 
ATOM      5  C   UNL     1       7.330   4.988  15.830  0.00  0.00    +0.000 C 
ATOM      6  C   UNL     1       7.970   5.167  14.433  0.00  0.00    +0.000 C 
ATOM      7  C   UNL     1       6.989   4.475  13.558  0.00  0.00    +0.000 A 
ATOM      8  C   UNL     1       7.162   4.113  12.216  0.00  0.00    +0.000 A 
ATOM      9  C   UNL     1       6.094   3.507  11.537  0.00  0.00    +0.000 A 
ATOM     10  C   UNL     1       4.869   3.297  12.191  0.00  0.00    +0.000 A 
ATOM     11  C   UNL     1       4.701   3.699  13.523  0.00  0.00    +0.000 A 
ATOM     12  C   UNL     1       5.782   4.281  14.203  0.00  0.00    +0.000 A 
ATOM     13  C   UNL     1       5.035   6.179  15.667  0.00  0.00    +0.000 C 
ATOM     14  C   UNL     1       4.854   6.693  17.113  0.00  0.00    +0.000 C 
ENDROOT
BRANCH   1  15
ATOM     15  C   UNL     1       2.749   5.521  17.817  0.00  0.00    +0.000 C 
BRANCH  15  19
ATOM     16  C   UNL     1       1.195   2.856  20.807  0.00  0.00    +0.000 A 
ATOM     17  C   UNL     1       1.822   4.037  21.195  0.00  0.00    +0.000 A 
ATOM     18  C   UNL     1       2.325   4.906  20.224  0.00  0.00    +0.000 A 
ATOM     19  C   UNL     1       2.202   4.576  18.865  0.00  0.00    +0.000 A 
ATOM     20  N   UNL     1       1.582   3.414  18.511  0.00  0.00    +0.000 NA
ATOM     21  C   UNL     1       1.078   2.557  19.447  0.00  0.00    +0.000 A 
ENDBRANCH  15  19
ENDBRANCH   1  15
TORSDOF 2
ENDMDL
MODEL 5
REMARK VINA RESULT:      -7.1      1.181      2.456
REMARK  Name = 
REMARK  2 active torsions:
REMARK  status: ('A' for Active; 'I' for Inactive)
REMARK    1  A    between atoms: C_4  and  C_5
REMARK    2  A    between atoms: C_5  and  N_6
REMARK                            x       y       z     vdW  Elec       q    Type
REMARK                         _______ _______ _______ _____ _____    ______ ____
ROOT
ATOM      1  N   UNL     1       6.546   4.253  16.708  0.00  0.00    +0.000 NA
ATOM      2  C   UNL     1       6.943   4.503  18.110  0.00  0.00    +0.000 C 
ATOM      3  C   UNL     1       5.872   5.296  18.880  0.00  0.00    +0.000 C 
ATOM      4  C   UNL     1       4.478   4.601  18.849  0.00  0.00    +0.000 C 
ATOM      5  C   UNL     1       4.401   3.368  19.795  0.00  0.00    +0.000 C 
ATOM      6  C   UNL     1       2.969   3.338  20.378  0.00  0.00    +0.000 C 
ATOM      7  C   UNL     1       2.579   4.770  20.303  0.00  0.00    +0.000 A 
ATOM      8  C   UNL     1       1.473   5.378  20.909  0.00  0.00    +0.000 A 
ATOM      9  C   UNL     1       1.241   6.743  20.677  0.00  0.00    +0.000 A 
ATOM     10  C   UNL     1       2.093   7.470  19.830  0.00  0.00    +0.000 A 
ATOM     11  C   UNL     1       3.174   6.837  19.202  0.00  0.00    +0.000 A 
ATOM     12  C   UNL     1       3.414   5.478  19.459  0.00  0.00    +0.000 A 
ATOM     13  C   UNL     1       4.117   4.258  17.380  0.00  0.00    +0.000 C 
ATOM     14  C   UNL     1       5.260   3.521  16.646  0.00  0.00    +0.000 C 
ENDROOT
BRANCH   1  15
ATOM     15  C   UNL     1       6.655   5.435  15.813  0.00  0.00    +0.000 C 
BRANCH  15  19
ATOM     16  C   UNL     1       7.185   4.155  11.745  0.00  0.00    +0.000 A 
ATOM     17  C   UNL     1       6.207   3.556  12.535  0.00  0.00    +0.000 A 
ATOM     18  C   UNL     1       6.032   3.973  13.856  0.00  0.00    +0.000 A 
ATOM     19  C   UNL     1       6.849   4.986  14.380  0.00  0.00    +0.000 A 
ATOM     20  N   UNL     1       7.798   5.559  13.586  0.00  0.00    +0.000 NA
ATOM     21  C   UNL     1       7.979   5.168  12.289  0.00  0.00    +0.000 A 
ENDBRANCH  15  19
ENDBRANCH   1  15
TORSDOF 2
ENDMDL
MODEL 6
REMARK VINA RESULT:      -6.9      1.794      3.213
REMARK  Name = 
REMARK  2 active torsions:
REMARK  status: ('A' for Active; 'I' for Inactive)
REMARK    1  A    between atoms: C_4  and  C_5
REMARK    2  A    between atoms: C_5  and  N_6
REMARK                            x       y       z     vdW  Elec       q    Type
REMARK                         _______ _______ _______ _____ _____    ______ ____
ROOT
ATOM      1  N   UNL     1       6.840   4.123  15.491  0.00  0.00    +0.000 NA
ATOM      2  C   UNL     1       7.419   4.908  16.602  0.00  0.00    +0.000 C 
ATOM      3  C   UNL     1       6.420   5.934  17.166  0.00  0.00    +0.000 C 
ATOM      4  C   UNL     1       5.089   5.274  17.634  0.00  0.00    +0.000 C 
ATOM      5  C   UNL     1       5.237   4.513  18.984  0.00  0.00    +0.000 C 
ATOM      6  C   UNL     1       3.912   4.707  19.756  0.00  0.00    +0.000 C 
ATOM      7  C   UNL     1       3.416   5.990  19.195  0.00  0.00    +0.000 A 
ATOM      8  C   UNL     1       2.371   6.780  19.688  0.00  0.00    +0.000 A 
ATOM      9  C   UNL     1       2.013   7.942  18.986  0.00  0.00    +0.000 A 
ATOM     10  C   UNL     1       2.679   8.282  17.797  0.00  0.00    +0.000 A 
ATOM     11  C   UNL     1       3.697   7.459  17.297  0.00  0.00    +0.000 A 
ATOM     12  C   UNL     1       4.067   6.313  18.019  0.00  0.00    +0.000 A 
ATOM     13  C   UNL     1       4.541   4.376  16.493  0.00  0.00    +0.000 C 
ATOM     14  C   UNL     1       5.613   3.417  15.928  0.00  0.00    +0.000 C 
ENDROOT
BRANCH   1  15
ATOM     15  C   UNL     1       6.733   4.856  14.203  0.00  0.00    +0.000 C 
BRANCH  15  19
ATOM     16  C   UNL     1       5.335   2.228  11.104  0.00  0.00    +0.000 A 
ATOM     17  C   UNL     1       4.453   3.129  11.695  0.00  0.00    +0.000 A 
ATOM     18  C   UNL     1       4.907   3.986  12.699  0.00  0.00    +0.000 A 
ATOM     19  C   UNL     1       6.246   3.926  13.113  0.00  0.00    +0.000 A 
ATOM     20  N   UNL     1       7.092   3.035  12.519  0.00  0.00    +0.000 NA
ATOM     21  C   UNL     1       6.666   2.194  11.529  0.00  0.00    +0.000 A 
ENDBRANCH  15  19
ENDBRANCH   1  15
TORSDOF 2
ENDMDL
MODEL 7
REMARK VINA RESULT:      -6.8      1.760      3.241
REMARK  Name = 
REMARK  2 active torsions:
REMARK  status: ('A' for Active; 'I' for Inactive)
REMARK    1  A    between atoms: C_4  and  C_5
REMARK    2  A    between atoms: C_5  and  N_6
REMARK                            x       y       z     vdW  Elec       q    Type
REMARK                         _______ _______ _______ _____ _____    ______ ____
ROOT
ATOM      1  N   UNL     1       6.804   4.105  15.552  0.00  0.00    +0.000 NA
ATOM      2  C   UNL     1       7.384   4.854  16.687  0.00  0.00    +0.000 C 
ATOM      3  C   UNL     1       6.395   5.882  17.265  0.00  0.00    +0.000 C 
ATOM      4  C   UNL     1       5.049   5.232  17.703  0.00  0.00    +0.000 C 
ATOM      5  C   UNL     1       5.171   4.437  19.036  0.00  0.00    +0.000 C 
ATOM      6  C   UNL     1       3.840   4.633  19.799  0.00  0.00    +0.000 C 
ATOM      7  C   UNL     1       3.371   5.937  19.264  0.00  0.00    +0.000 A 
ATOM      8  C   UNL     1       2.333   6.732  19.766  0.00  0.00    +0.000 A 
ATOM      9  C   UNL     1       2.001   7.916  19.088  0.00  0.00    +0.000 A 
ATOM     10  C   UNL     1       2.684   8.273  17.914  0.00  0.00    +0.000 A 
ATOM     11  C   UNL     1       3.695   7.447  17.406  0.00  0.00    +0.000 A 
ATOM     12  C   UNL     1       4.039   6.278  18.103  0.00  0.00    +0.000 A 
ATOM     13  C   UNL     1       4.499   4.371  16.536  0.00  0.00    +0.000 C 
ATOM     14  C   UNL     1       5.562   3.409  15.959  0.00  0.00    +0.000 C 
ENDROOT
BRANCH   1  15
ATOM     15  C   UNL     1       6.723   4.871  14.281  0.00  0.00    +0.000 C 
BRANCH  15  19
ATOM     16  C   UNL     1       5.341   2.316  11.115  0.00  0.00    +0.000 A 
ATOM     17  C   UNL     1       6.689   2.311  11.467  0.00  0.00    +0.000 A 
ATOM     18  C   UNL     1       7.139   3.139  12.497  0.00  0.00    +0.000 A 
ATOM     19  C   UNL     1       6.231   3.975  13.164  0.00  0.00    +0.000 A 
ATOM     20  N   UNL     1       4.916   3.961  12.803  0.00  0.00    +0.000 NA
ATOM     21  C   UNL     1       4.457   3.152  11.801  0.00  0.00    +0.000 A 
ENDBRANCH  15  19
ENDBRANCH   1  15
TORSDOF 2
ENDMDL
MODEL 8
REMARK VINA RESULT:      -6.7      4.568      7.248
REMARK  Name = 
REMARK  2 active torsions:
REMARK  status: ('A' for Active; 'I' for Inactive)
REMARK    1  A    between atoms: C_4  and  C_5
REMARK    2  A    between atoms: C_5  and  N_6
REMARK                            x       y       z     vdW  Elec       q    Type
REMARK                         _______ _______ _______ _____ _____    ______ ____
ROOT
ATOM      1  N   UNL     1       2.503   7.231  19.118  0.00  0.00    +0.000 NA
ATOM      2  C   UNL     1       2.803   8.252  18.092  0.00  0.00    +0.000 C 
ATOM      3  C   UNL     1       1.540   9.014  17.650  0.00  0.00    +0.000 C 
ATOM      4  C   UNL     1       0.796   9.679  18.845  0.00  0.00    +0.000 C 
ATOM      5  C   UNL     1       1.517  10.957  19.366  0.00  0.00    +0.000 C 
ATOM      6  C   UNL     1       0.413  11.951  19.797  0.00  0.00    +0.000 C 
ATOM      7  C   UNL     1      -0.728  11.527  18.947  0.00  0.00    +0.000 A 
ATOM      8  C   UNL     1      -1.927  12.218  18.735  0.00  0.00    +0.000 A 
ATOM      9  C   UNL     1      -2.915  11.627  17.932  0.00  0.00    +0.000 A 
ATOM     10  C   UNL     1      -2.706  10.355  17.377  0.00  0.00    +0.000 A 
ATOM     11  C   UNL     1      -1.515   9.661  17.629  0.00  0.00    +0.000 A 
ATOM     12  C   UNL     1      -0.521  10.269  18.412  0.00  0.00    +0.000 A 
ATOM     13  C   UNL     1       0.573   8.619  19.956  0.00  0.00    +0.000 C 
ATOM     14  C   UNL     1       1.865   7.846  20.305  0.00  0.00    +0.000 C 
ENDROOT
BRANCH   1  15
ATOM     15  C   UNL     1       1.842   6.006  18.598  0.00  0.00    +0.000 C 
BRANCH  15  19
ATOM     16  C   UNL     1       2.683   2.659  21.159  0.00  0.00    +0.000 A 
ATOM     17  C   UNL     1       1.457   3.312  21.256  0.00  0.00    +0.000 A 
ATOM     18  C   UNL     1       1.181   4.397  20.423  0.00  0.00    +0.000 A 
ATOM     19  C   UNL     1       2.146   4.828  19.499  0.00  0.00    +0.000 A 
ATOM     20  N   UNL     1       3.339   4.172  19.421  0.00  0.00    +0.000 NA
ATOM     21  C   UNL     1       3.623   3.103  20.224  0.00  0.00    +0.000 A 
ENDBRANCH  15  19
ENDBRANCH   1  15
TORSDOF 2
ENDMDL
MODEL 9
REMARK VINA RESULT:      -6.6      1.315      1.987
REMARK  Name = 
REMARK  2 active torsions:
REMARK  status: ('A' for Active; 'I' for Inactive)
REMARK    1  A    between atoms: C_4  and  C_5
REMARK    2  A    between atoms: C_5  and  N_6
REMARK                            x       y       z     vdW  Elec       q    Type
REMARK                         _______ _______ _______ _____ _____    ______ ____
ROOT
ATOM      1  N   UNL     1       6.275   5.514  16.462  0.00  0.00    +0.000 NA
ATOM      2  C   UNL     1       5.809   6.208  17.682  0.00  0.00    +0.000 C 
ATOM      3  C   UNL     1       4.422   5.716  18.131  0.00  0.00    +0.000 C 
ATOM      4  C   UNL     1       4.380   4.177  18.360  0.00  0.00    +0.000 C 
ATOM      5  C   UNL     1       5.080   3.747  19.682  0.00  0.00    +0.000 C 
ATOM      6  C   UNL     1       4.274   2.556  20.251  0.00  0.00    +0.000 C 
ATOM      7  C   UNL     1       2.925   2.799  19.677  0.00  0.00    +0.000 A 
ATOM      8  C   UNL     1       1.727   2.171  20.039  0.00  0.00    +0.000 A 
ATOM      9  C   UNL     1       0.554   2.501  19.342  0.00  0.00    +0.000 A 
ATOM     10  C   UNL     1       0.597   3.424  18.285  0.00  0.00    +0.000 A 
ATOM     11  C   UNL     1       1.812   4.016  17.911  0.00  0.00    +0.000 A 
ATOM     12  C   UNL     1       2.976   3.700  18.630  0.00  0.00    +0.000 A 
ATOM     13  C   UNL     1       4.960   3.463  17.111  0.00  0.00    +0.000 C 
ATOM     14  C   UNL     1       6.323   4.049  16.675  0.00  0.00    +0.000 C 
ENDROOT
BRANCH   1  15
ATOM     15  C   UNL     1       5.616   5.958  15.207  0.00  0.00    +0.000 C 
BRANCH  15  19
ATOM     16  C   UNL     1       7.002   3.610  11.886  0.00  0.00    +0.000 A 
ATOM     17  C   UNL     1       5.758   3.340  12.450  0.00  0.00    +0.000 A 
ATOM     18  C   UNL     1       5.305   4.104  13.527  0.00  0.00    +0.000 A 
ATOM     19  C   UNL     1       6.111   5.133  14.039  0.00  0.00    +0.000 A 
ATOM     20  N   UNL     1       7.325   5.379  13.468  0.00  0.00    +0.000 NA
ATOM     21  C   UNL     1       7.781   4.646  12.408  0.00  0.00    +0.000 A 
ENDBRANCH  15  19
ENDBRANCH   1  15
TORSDOF 2
ENDMDL
