MODEL 1
REMARK VINA RESULT:      -7.3      0.000      0.000
REMARK  Name = 
REMARK  8 active torsions:
REMARK  status: ('A' for Active; 'I' for Inactive)
REMARK    1  A    between atoms: C_1  and  C_2
REMARK    2  A    between atoms: C_2  and  C_3
REMARK    3  A    between atoms: C_2  and  C_4
REMARK    4  A    between atoms: C_4  and  N_5
REMARK    5  A    between atoms: N_5  and  S_6
REMARK    6  A    between atoms: S_6  and  C_9
REMARK    7  A    between atoms: C_12  and  S_13
REMARK    8  A    between atoms: S_13  and  N_16
REMARK                            x       y       z     vdW  Elec       q    Type
REMARK                         _______ _______ _______ _____ _____    ______ ____
ROOT
ATOM      1  C   UNL     1       2.011   7.594  19.471  0.00  0.00    +0.000 A 
ATOM      2  C   UNL     1       2.040   8.478  18.390  0.00  0.00    +0.000 A 
ATOM      3  C   UNL     1       1.598   9.795  18.567  0.00  0.00    +0.000 A 
ATOM      4  C   UNL     1       1.110  10.208  19.814  0.00  0.00    +0.000 A 
ATOM      5  C   UNL     1       1.080   9.317  20.894  0.00  0.00    +0.000 A 
ATOM      6  C   UNL     1       1.508   8.000  20.715  0.00  0.00    +0.000 A 
ENDROOT
BRANCH   1   7
ATOM      7  S   UNL     1       2.580   5.916  19.281  0.00  0.00    +0.000 S 
ATOM      8  O   UNL     1       4.014   5.899  19.488  0.00  0.00    +0.000 OA
ATOM      9  O   UNL     1       1.969   5.412  18.072  0.00  0.00    +0.000 OA
BRANCH   7  10
ATOM     10  N   UNL     1       1.835   5.137  20.592  0.00  0.00    +0.000 NA
ATOM     11  H   UNL     1       2.530   4.846  21.275  0.00  0.00    +0.000 HD
BRANCH  10  12
ATOM     12  C   UNL     1       0.838   4.100  20.254  0.00  0.00    +0.000 C 
BRANCH  12  14
ATOM     13  C   UNL     1       1.880   2.060  19.261  0.00  0.00    +0.000 C 
ATOM     14  C   UNL     1       1.374   2.692  20.561  0.00  0.00    +0.000 C 
ATOM     15  C   UNL     1       2.504   2.704  21.594  0.00  0.00    +0.000 C 
ENDBRANCH  12  14
ENDBRANCH  10  12
ENDBRANCH   7  10
ENDBRANCH   1   7
BRANCH   4  16
ATOM     16  S   UNL     1       0.649  11.923  20.057  0.00  0.00    +0.000 S 
ATOM     17  O   UNL     1       1.635  12.498  20.951  0.00  0.00    +0.000 OA
ATOM     18  O   UNL     1       0.411  12.485  18.749  0.00  0.00    +0.000 OA
BRANCH  16  19
ATOM     19  N   UNL     1      -0.850  11.848  20.891  0.00  0.00    +0.000 NA
ATOM     20  C   UNL     1      -0.750  11.975  22.368  0.00  0.00    +0.000 C 
ATOM     21  C   UNL     1      -2.089  11.731  23.047  0.00  0.00    +0.000 C 
ATOM     22  C   UNL     1      -3.161  12.638  22.461  0.00  0.00    +0.000 C 
ATOM     23  C   UNL     1      -3.278  12.379  20.966  0.00  0.00    +0.000 C 
ATOM     24  C   UNL     1      -1.953  12.622  20.265  0.00  0.00    +0.000 C 
ATOM     25  O   UNL     1      -2.807  14.010  22.704  0.00  0.00    +0.000 OA
ATOM     26  C   UNL     1      -4.010  14.629  23.157  0.00  0.00    +0.000 C 
ATOM     27  C   UNL     1      -4.737  13.512  23.856  0.00  0.00    +0.000 C 
ATOM     28  O   UNL     1      -4.430  12.358  23.074  0.00  0.00    +0.000 OA
ENDBRANCH  16  19
ENDBRANCH   4  16
TORSDOF 6
ENDMDL
MODEL 2
REMARK VINA RESULT:      -7.3      3.360      9.438
REMARK  Name = 
REMARK  8 active torsions:
REMARK  status: ('A' for Active; 'I' for Inactive)
REMARK    1  A    between atoms: C_1  and  C_2
REMARK    2  A    between atoms: C_2  and  C_3
REMARK    3  A    between atoms: C_2  and  C_4
REMARK    4  A    between atoms: C_4  and  N_5
REMARK    5  A    between atoms: N_5  and  S_6
REMARK    6  A    between atoms: S_6  and  C_9
REMARK    7  A    between atoms: C_12  and  S_13
REMARK    8  A    between atoms: S_13  and  N_16
REMARK                            x       y       z     vdW  Elec       q    Type
REMARK                         _______ _______ _______ _____ _____    ______ ____
ROOT
ATOM      1  C   UNL     1       1.404   9.226  19.264  0.00  0.00    +0.000 A 
ATOM      2  C   UNL     1       1.925   8.415  18.252  0.00  0.00    +0.000 A 
ATOM      3  C   UNL     1       2.186   7.065  18.520  0.00  0.00    +0.000 A 
ATOM      4  C   UNL     1       1.946   6.545  19.798  0.00  0.00    +0.000 A 
ATOM      5  C   UNL     1       1.425   7.362  20.809  0.00  0.00    +0.000 A 
ATOM      6  C   UNL     1       1.177   8.711  20.549  0.00  0.00    +0.000 A 
ENDROOT
BRANCH   1   7
ATOM      7  S   UNL     1       1.048  10.944  18.951  0.00  0.00    +0.000 S 
ATOM      8  O   UNL     1       2.170  11.514  18.233  0.00  0.00    +0.000 OA
ATOM      9  O   UNL     1       0.568  11.495  20.197  0.00  0.00    +0.000 OA
BRANCH   7  10
ATOM     10  N   UNL     1      -0.276  10.845  17.894  0.00  0.00    +0.000 NA
ATOM     11  H   UNL     1      -0.124  11.430  17.076  0.00  0.00    +0.000 HD
BRANCH  10  12
ATOM     12  C   UNL     1      -1.613  10.987  18.508  0.00  0.00    +0.000 C 
BRANCH  12  14
ATOM     13  C   UNL     1      -4.032  10.762  17.927  0.00  0.00    +0.000 C 
ATOM     14  C   UNL     1      -2.652  10.112  17.787  0.00  0.00    +0.000 C 
ATOM     15  C   UNL     1      -2.331   9.918  16.302  0.00  0.00    +0.000 C 
ENDBRANCH  12  14
ENDBRANCH  10  12
ENDBRANCH   7  10
ENDBRANCH   1   7
BRANCH   4  16
ATOM     16  S   UNL     1       2.180   4.793  20.097  0.00  0.00    +0.000 S 
ATOM     17  O   UNL     1       2.535   4.651  21.495  0.00  0.00    +0.000 OA
ATOM     18  O   UNL     1       1.030   4.115  19.547  0.00  0.00    +0.000 OA
BRANCH  16  19
ATOM     19  N   UNL     1       3.551   4.378  19.151  0.00  0.00    +0.000 NA
ATOM     20  C   UNL     1       3.243   3.934  17.767  0.00  0.00    +0.000 C 
ATOM     21  C   UNL     1       4.484   3.424  17.049  0.00  0.00    +0.000 C 
ATOM     22  C   UNL     1       5.592   4.466  17.088  0.00  0.00    +0.000 C 
ATOM     23  C   UNL     1       5.924   4.795  18.537  0.00  0.00    +0.000 C 
ATOM     24  C   UNL     1       4.701   5.311  19.273  0.00  0.00    +0.000 C 
ATOM     25  O   UNL     1       5.157   5.648  16.395  0.00  0.00    +0.000 OA
ATOM     26  C   UNL     1       6.263   6.024  15.575  0.00  0.00    +0.000 C 
ATOM     27  C   UNL     1       6.927   4.713  15.258  0.00  0.00    +0.000 C 
ATOM     28  O   UNL     1       6.775   3.950  16.455  0.00  0.00    +0.000 OA
ENDBRANCH  16  19
ENDBRANCH   4  16
TORSDOF 6
ENDMDL
MODEL 3
REMARK VINA RESULT:      -7.2      3.108      4.382
REMARK  Name = 
REMARK  8 active torsions:
REMARK  status: ('A' for Active; 'I' for Inactive)
REMARK    1  A    between atoms: C_1  and  C_2
REMARK    2  A    between atoms: C_2  and  C_3
REMARK    3  A    between atoms: C_2  and  C_4
REMARK    4  A    between atoms: C_4  and  N_5
REMARK    5  A    between atoms: N_5  and  S_6
REMARK    6  A    between atoms: S_6  and  C_9
REMARK    7  A    between atoms: C_12  and  S_13
REMARK    8  A    between atoms: S_13  and  N_16
REMARK                            x       y       z     vdW  Elec       q    Type
REMARK                         _______ _______ _______ _____ _____    ______ ____
ROOT
ATOM      1  C   UNL     1       2.989   6.634  18.782  0.00  0.00    +0.000 A 
ATOM      2  C   UNL     1       2.335   6.796  20.006  0.00  0.00    +0.000 A 
ATOM      3  C   UNL     1       1.561   7.942  20.226  0.00  0.00    +0.000 A 
ATOM      4  C   UNL     1       1.467   8.924  19.232  0.00  0.00    +0.000 A 
ATOM      5  C   UNL     1       2.125   8.759  18.007  0.00  0.00    +0.000 A 
ATOM      6  C   UNL     1       2.908   7.624  17.791  0.00  0.00    +0.000 A 
ENDROOT
BRANCH   1   7
ATOM      7  S   UNL     1       3.969   5.180  18.467  0.00  0.00    +0.000 S 
ATOM      8  O   UNL     1       5.365   5.569  18.456  0.00  0.00    +0.000 OA
ATOM      9  O   UNL     1       3.348   4.503  17.351  0.00  0.00    +0.000 OA
BRANCH   7  10
ATOM     10  N   UNL     1       3.678   4.248  19.855  0.00  0.00    +0.000 NA
ATOM     11  H   UNL     1       4.428   4.371  20.531  0.00  0.00    +0.000 HD
BRANCH  10  12
ATOM     12  C   UNL     1       3.286   2.841  19.626  0.00  0.00    +0.000 C 
BRANCH  12  14
ATOM     13  C   UNL     1       1.909   3.027  21.701  0.00  0.00    +0.000 C 
ATOM     14  C   UNL     1       1.913   2.538  20.250  0.00  0.00    +0.000 C 
ATOM     15  C   UNL     1       0.761   3.199  19.487  0.00  0.00    +0.000 C 
ENDBRANCH  12  14
ENDBRANCH  10  12
ENDBRANCH   7  10
ENDBRANCH   1   7
BRANCH   4  16
ATOM     16  S   UNL     1       0.386  10.333  19.482  0.00  0.00    +0.000 S 
ATOM     17  O   UNL     1      -0.410  10.470  18.278  0.00  0.00    +0.000 OA
ATOM     18  O   UNL     1      -0.238  10.161  20.772  0.00  0.00    +0.000 OA
BRANCH  16  19
ATOM     19  N   UNL     1       1.451  11.676  19.575  0.00  0.00    +0.000 NA
ATOM     20  C   UNL     1       1.745  12.331  18.274  0.00  0.00    +0.000 C 
ATOM     21  C   UNL     1       2.821  13.398  18.410  0.00  0.00    +0.000 C 
ATOM     22  C   UNL     1       2.446  14.402  19.490  0.00  0.00    +0.000 C 
ATOM     23  C   UNL     1       2.262  13.673  20.814  0.00  0.00    +0.000 C 
ATOM     24  C   UNL     1       1.189  12.606  20.704  0.00  0.00    +0.000 C 
ATOM     25  O   UNL     1       1.230  15.072  19.116  0.00  0.00    +0.000 OA
ATOM     26  C   UNL     1       1.470  16.453  19.383  0.00  0.00    +0.000 C 
ATOM     27  C   UNL     1       2.950  16.601  19.163  0.00  0.00    +0.000 C 
ATOM     28  O   UNL     1       3.495  15.373  19.645  0.00  0.00    +0.000 OA
ENDBRANCH  16  19
ENDBRANCH   4  16
TORSDOF 6
ENDMDL
MODEL 4
REMARK VINA RESULT:      -7.2      3.054      4.318
REMARK  Name = 
REMARK  8 active torsions:
REMARK  status: ('A' for Active; 'I' for Inactive)
REMARK    1  A    between atoms: C_1  and  C_2
REMARK    2  A    between atoms: C_2  and  C_3
REMARK    3  A    between atoms: C_2  and  C_4
REMARK    4  A    between atoms: C_4  and  N_5
REMARK    5  A    between atoms: N_5  and  S_6
REMARK    6  A    between atoms: S_6  and  C_9
REMARK    7  A    between atoms: C_12  and  S_13
REMARK    8  A    between atoms: S_13  and  N_16
REMARK                            x       y       z     vdW  Elec       q    Type
REMARK                         _______ _______ _______ _____ _____    ______ ____
ROOT
ATOM      1  C   UNL     1       2.681   7.261  18.675  0.00  0.00    +0.000 A 
ATOM      2  C   UNL     1       2.457   8.189  17.654  0.00  0.00    +0.000 A 
ATOM      3  C   UNL     1       1.684   9.327  17.918  0.00  0.00    +0.000 A 
ATOM      4  C   UNL     1       1.124   9.514  19.188  0.00  0.00    +0.000 A 
ATOM      5  C   UNL     1       1.349   8.581  20.207  0.00  0.00    +0.000 A 
ATOM      6  C   UNL     1       2.108   7.439  19.943  0.00  0.00    +0.000 A 
ENDROOT
BRANCH   1   7
ATOM      7  S   UNL     1       3.672   5.811  18.375  0.00  0.00    +0.000 S 
ATOM      8  O   UNL     1       4.988   6.243  17.949  0.00  0.00    +0.000 OA
ATOM      9  O   UNL     1       2.859   4.917  17.584  0.00  0.00    +0.000 OA
BRANCH   7  10
ATOM     10  N   UNL     1       3.801   5.142  19.930  0.00  0.00    +0.000 NA
ATOM     11  H   UNL     1       4.745   5.254  20.289  0.00  0.00    +0.000 HD
BRANCH  10  12
ATOM     12  C   UNL     1       3.237   3.787  20.106  0.00  0.00    +0.000 C 
BRANCH  12  14
ATOM     13  C   UNL     1       0.744   3.936  20.093  0.00  0.00    +0.000 C 
ATOM     14  C   UNL     1       1.979   3.819  20.990  0.00  0.00    +0.000 C 
ATOM     15  C   UNL     1       1.848   2.575  21.874  0.00  0.00    +0.000 C 
ENDBRANCH  12  14
ENDBRANCH  10  12
ENDBRANCH   7  10
ENDBRANCH   1   7
BRANCH   4  16
ATOM     16  S   UNL     1       0.229  11.026  19.543  0.00  0.00    +0.000 S 
ATOM     17  O   UNL     1      -0.593  11.308  18.383  0.00  0.00    +0.000 OA
ATOM     18  O   UNL     1      -0.359  10.870  20.853  0.00  0.00    +0.000 OA
BRANCH  16  19
ATOM     19  N   UNL     1       1.448  12.231  19.642  0.00  0.00    +0.000 NA
ATOM     20  C   UNL     1       1.700  12.968  18.376  0.00  0.00    +0.000 C 
ATOM     21  C   UNL     1       2.901  13.895  18.494  0.00  0.00    +0.000 C 
ATOM     22  C   UNL     1       2.743  14.829  19.684  0.00  0.00    +0.000 C 
ATOM     23  C   UNL     1       2.593  14.004  20.955  0.00  0.00    +0.000 C 
ATOM     24  C   UNL     1       1.397  13.074  20.863  0.00  0.00    +0.000 C 
ATOM     25  O   UNL     1       1.586  15.658  19.488  0.00  0.00    +0.000 OA
ATOM     26  C   UNL     1       2.008  16.974  19.843  0.00  0.00    +0.000 C 
ATOM     27  C   UNL     1       3.470  16.980  19.492  0.00  0.00    +0.000 C 
ATOM     28  O   UNL     1       3.908  15.660  19.815  0.00  0.00    +0.000 OA
ENDBRANCH  16  19
ENDBRANCH   4  16
TORSDOF 6
ENDMDL
MODEL 5
REMARK VINA RESULT:      -7.2      3.658      9.724
REMARK  Name = 
REMARK  8 active torsions:
REMARK  status: ('A' for Active; 'I' for Inactive)
REMARK    1  A    between atoms: C_1  and  C_2
REMARK    2  A    between atoms: C_2  and  C_3
REMARK    3  A    between atoms: C_2  and  C_4
REMARK    4  A    between atoms: C_4  and  N_5
REMARK    5  A    between atoms: N_5  and  S_6
REMARK    6  A    between atoms: S_6  and  C_9
REMARK    7  A    between atoms: C_12  and  S_13
REMARK    8  A    between atoms: S_13  and  N_16
REMARK                            x       y       z     vdW  Elec       q    Type
REMARK                         _______ _______ _______ _____ _____    ______ ____
ROOT
ATOM      1  C   UNL     1       0.968   9.737  19.270  0.00  0.00    +0.000 A 
ATOM      2  C   UNL     1       1.491   9.233  18.077  0.00  0.00    +0.000 A 
ATOM      3  C   UNL     1       2.084   7.963  18.069  0.00  0.00    +0.000 A 
ATOM      4  C   UNL     1       2.168   7.222  19.254  0.00  0.00    +0.000 A 
ATOM      5  C   UNL     1       1.644   7.732  20.448  0.00  0.00    +0.000 A 
ATOM      6  C   UNL     1       1.065   9.003  20.462  0.00  0.00    +0.000 A 
ENDROOT
BRANCH   1   7
ATOM      7  S   UNL     1       0.195  11.342  19.310  0.00  0.00    +0.000 S 
ATOM      8  O   UNL     1       1.231  12.346  19.173  0.00  0.00    +0.000 OA
ATOM      9  O   UNL     1      -0.722  11.326  20.427  0.00  0.00    +0.000 OA
BRANCH   7  10
ATOM     10  N   UNL     1      -0.732  11.325  17.889  0.00  0.00    +0.000 NA
ATOM     11  H   UNL     1      -0.188  11.676  17.104  0.00  0.00    +0.000 HD
BRANCH  10  12
ATOM     12  C   UNL     1      -2.094  11.891  17.991  0.00  0.00    +0.000 C 
BRANCH  12  14
ATOM     13  C   UNL     1      -2.714  10.966  15.756  0.00  0.00    +0.000 C 
ATOM     14  C   UNL     1      -3.114  11.025  17.233  0.00  0.00    +0.000 C 
ATOM     15  C   UNL     1      -3.210   9.602  17.791  0.00  0.00    +0.000 C 
ENDBRANCH  12  14
ENDBRANCH  10  12
ENDBRANCH   7  10
ENDBRANCH   1   7
BRANCH   4  16
ATOM     16  S   UNL     1       2.829   5.556  19.208  0.00  0.00    +0.000 S 
ATOM     17  O   UNL     1       3.232   5.229  20.562  0.00  0.00    +0.000 OA
ATOM     18  O   UNL     1       1.870   4.742  18.499  0.00  0.00    +0.000 OA
BRANCH  16  19
ATOM     19  N   UNL     1       4.243   5.684  18.244  0.00  0.00    +0.000 NA
ATOM     20  C   UNL     1       5.071   4.452  18.183  0.00  0.00    +0.000 C 
ATOM     21  C   UNL     1       6.385   4.691  17.455  0.00  0.00    +0.000 C 
ATOM     22  C   UNL     1       6.134   5.286  16.078  0.00  0.00    +0.000 C 
ATOM     23  C   UNL     1       5.373   6.596  16.226  0.00  0.00    +0.000 C 
ATOM     24  C   UNL     1       4.054   6.382  16.946  0.00  0.00    +0.000 C 
ATOM     25  O   UNL     1       5.375   4.355  15.288  0.00  0.00    +0.000 OA
ATOM     26  C   UNL     1       6.018   4.340  14.014  0.00  0.00    +0.000 C 
ATOM     27  C   UNL     1       7.457   4.626  14.343  0.00  0.00    +0.000 C 
ATOM     28  O   UNL     1       7.385   5.556  15.424  0.00  0.00    +0.000 OA
ENDBRANCH  16  19
ENDBRANCH   4  16
TORSDOF 6
ENDMDL
MODEL 6
REMARK VINA RESULT:      -7.1      1.219      1.459
REMARK  Name = 
REMARK  8 active torsions:
REMARK  status: ('A' for Active; 'I' for Inactive)
REMARK    1  A    between atoms: C_1  and  C_2
REMARK    2  A    between atoms: C_2  and  C_3
REMARK    3  A    between atoms: C_2  and  C_4
REMARK    4  A    between atoms: C_4  and  N_5
REMARK    5  A    between atoms: N_5  and  S_6
REMARK    6  A    between atoms: S_6  and  C_9
REMARK    7  A    between atoms: C_12  and  S_13
REMARK    8  A    between atoms: S_13  and  N_16
REMARK                            x       y       z     vdW  Elec       q    Type
REMARK                         _______ _______ _______ _____ _____    ______ ____
ROOT
ATOM      1  C   UNL     1       2.118   7.249  19.628  0.00  0.00    +0.000 A 
ATOM      2  C   UNL     1       2.186   8.034  18.475  0.00  0.00    +0.000 A 
ATOM      3  C   UNL     1       1.674   9.338  18.500  0.00  0.00    +0.000 A 
ATOM      4  C   UNL     1       1.082   9.835  19.668  0.00  0.00    +0.000 A 
ATOM      5  C   UNL     1       1.014   9.043  20.821  0.00  0.00    +0.000 A 
ATOM      6  C   UNL     1       1.511   7.739  20.794  0.00  0.00    +0.000 A 
ENDROOT
BRANCH   1   7
ATOM      7  S   UNL     1       2.773   5.592  19.632  0.00  0.00    +0.000 S 
ATOM      8  O   UNL     1       2.342   4.938  20.850  0.00  0.00    +0.000 OA
ATOM      9  O   UNL     1       4.167   5.702  19.266  0.00  0.00    +0.000 OA
BRANCH   7  10
ATOM     10  N   UNL     1       1.957   4.885  18.322  0.00  0.00    +0.000 NA
ATOM     11  H   UNL     1       1.031   4.574  18.605  0.00  0.00    +0.000 HD
BRANCH  10  12
ATOM     12  C   UNL     1       2.721   3.895  17.534  0.00  0.00    +0.000 C 
BRANCH  12  14
ATOM     13  C   UNL     1       3.376   1.715  18.562  0.00  0.00    +0.000 C 
ATOM     14  C   UNL     1       2.252   2.462  17.838  0.00  0.00    +0.000 C 
ATOM     15  C   UNL     1       0.984   2.426  18.695  0.00  0.00    +0.000 C 
ENDBRANCH  12  14
ENDBRANCH  10  12
ENDBRANCH   7  10
ENDBRANCH   1   7
BRANCH   4  16
ATOM     16  S   UNL     1       0.530  11.540  19.722  0.00  0.00    +0.000 S 
ATOM     17  O   UNL     1       1.597  12.306  20.335  0.00  0.00    +0.000 OA
ATOM     18  O   UNL     1       0.042  11.866  18.403  0.00  0.00    +0.000 OA
BRANCH  16  19
ATOM     19  N   UNL     1      -0.806  11.523  20.800  0.00  0.00    +0.000 NA
ATOM     20  C   UNL     1      -0.444  11.506  22.241  0.00  0.00    +0.000 C 
ATOM     21  C   UNL     1      -1.666  11.321  23.127  0.00  0.00    +0.000 C 
ATOM     22  C   UNL     1      -2.723  12.369  22.809  0.00  0.00    +0.000 C 
ATOM     23  C   UNL     1      -3.118  12.257  21.343  0.00  0.00    +0.000 C 
ATOM     24  C   UNL     1      -1.913  12.444  20.439  0.00  0.00    +0.000 C 
ATOM     25  O   UNL     1      -2.193  13.676  23.086  0.00  0.00    +0.000 OA
ATOM     26  C   UNL     1      -3.233  14.356  23.789  0.00  0.00    +0.000 C 
ATOM     27  C   UNL     1      -3.941  13.249  24.522  0.00  0.00    +0.000 C 
ATOM     28  O   UNL     1      -3.892  12.148  23.615  0.00  0.00    +0.000 OA
ENDBRANCH  16  19
ENDBRANCH   4  16
TORSDOF 6
ENDMDL
MODEL 7
REMARK VINA RESULT:      -7.1      2.824      3.436
REMARK  Name = 
REMARK  8 active torsions:
REMARK  status: ('A' for Active; 'I' for Inactive)
REMARK    1  A    between atoms: C_1  and  C_2
REMARK    2  A    between atoms: C_2  and  C_3
REMARK    3  A    between atoms: C_2  and  C_4
REMARK    4  A    between atoms: C_4  and  N_5
REMARK    5  A    between atoms: N_5  and  S_6
REMARK    6  A    between atoms: S_6  and  C_9
REMARK    7  A    between atoms: C_12  and  S_13
REMARK    8  A    between atoms: S_13  and  N_16
REMARK                            x       y       z     vdW  Elec       q    Type
REMARK                         _______ _______ _______ _____ _____    ______ ____
ROOT
ATOM      1  C   UNL     1       2.942   6.571  18.706  0.00  0.00    +0.000 A 
ATOM      2  C   UNL     1       2.813   7.626  17.800  0.00  0.00    +0.000 A 
ATOM      3  C   UNL     1       2.106   8.774  18.180  0.00  0.00    +0.000 A 
ATOM      4  C   UNL     1       1.517   8.847  19.448  0.00  0.00    +0.000 A 
ATOM      5  C   UNL     1       1.647   7.785  20.352  0.00  0.00    +0.000 A 
ATOM      6  C   UNL     1       2.340   6.634  19.971  0.00  0.00    +0.000 A 
ENDROOT
BRANCH   1   7
ATOM      7  S   UNL     1       3.848   5.103  18.259  0.00  0.00    +0.000 S 
ATOM      8  O   UNL     1       5.220   5.482  17.992  0.00  0.00    +0.000 OA
ATOM      9  O   UNL     1       3.038   4.403  17.288  0.00  0.00    +0.000 OA
BRANCH   7  10
ATOM     10  N   UNL     1       3.805   4.206  19.699  0.00  0.00    +0.000 NA
ATOM     11  H   UNL     1       4.678   4.310  20.210  0.00  0.00    +0.000 HD
BRANCH  10  12
ATOM     12  C   UNL     1       3.325   2.813  19.587  0.00  0.00    +0.000 C 
BRANCH  12  14
ATOM     13  C   UNL     1       2.140   3.324  21.725  0.00  0.00    +0.000 C 
ATOM     14  C   UNL     1       2.020   2.609  20.376  0.00  0.00    +0.000 C 
ATOM     15  C   UNL     1       0.791   3.135  19.630  0.00  0.00    +0.000 C 
ENDBRANCH  12  14
ENDBRANCH  10  12
ENDBRANCH   7  10
ENDBRANCH   1   7
BRANCH   4  16
ATOM     16  S   UNL     1       0.709  10.362  19.961  0.00  0.00    +0.000 S 
ATOM     17  O   UNL     1       0.066  10.085  21.231  0.00  0.00    +0.000 OA
ATOM     18  O   UNL     1       1.681  11.422  19.834  0.00  0.00    +0.000 OA
BRANCH  16  19
ATOM     19  N   UNL     1      -0.516  10.613  18.785  0.00  0.00    +0.000 NA
ATOM     20  C   UNL     1      -1.620   9.619  18.812  0.00  0.00    +0.000 C 
ATOM     21  C   UNL     1      -2.573   9.803  17.641  0.00  0.00    +0.000 C 
ATOM     22  C   UNL     1      -3.086  11.234  17.587  0.00  0.00    +0.000 C 
ATOM     23  C   UNL     1      -1.907  12.188  17.456  0.00  0.00    +0.000 C 
ATOM     24  C   UNL     1      -0.943  12.026  18.617  0.00  0.00    +0.000 C 
ATOM     25  O   UNL     1      -3.828  11.519  18.785  0.00  0.00    +0.000 OA
ATOM     26  C   UNL     1      -5.008  12.187  18.341  0.00  0.00    +0.000 C 
ATOM     27  C   UNL     1      -5.252  11.599  16.979  0.00  0.00    +0.000 C 
ATOM     28  O   UNL     1      -3.942  11.407  16.445  0.00  0.00    +0.000 OA
ENDBRANCH  16  19
ENDBRANCH   4  16
TORSDOF 6
ENDMDL
MODEL 8
REMARK VINA RESULT:      -7.1      3.182      4.445
REMARK  Name = 
REMARK  8 active torsions:
REMARK  status: ('A' for Active; 'I' for Inactive)
REMARK    1  A    between atoms: C_1  and  C_2
REMARK    2  A    between atoms: C_2  and  C_3
REMARK    3  A    between atoms: C_2  and  C_4
REMARK    4  A    between atoms: C_4  and  N_5
REMARK    5  A    between atoms: N_5  and  S_6
REMARK    6  A    between atoms: S_6  and  C_9
REMARK    7  A    between atoms: C_12  and  S_13
REMARK    8  A    between atoms: S_13  and  N_16
REMARK                            x       y       z     vdW  Elec       q    Type
REMARK                         _______ _______ _______ _____ _____    ______ ____
ROOT
ATOM      1  C   UNL     1       2.895   6.979  18.669  0.00  0.00    +0.000 A 
ATOM      2  C   UNL     1       2.733   7.940  17.667  0.00  0.00    +0.000 A 
ATOM      3  C   UNL     1       1.944   9.069  17.920  0.00  0.00    +0.000 A 
ATOM      4  C   UNL     1       1.309   9.217  19.160  0.00  0.00    +0.000 A 
ATOM      5  C   UNL     1       1.473   8.250  20.160  0.00  0.00    +0.000 A 
ATOM      6  C   UNL     1       2.247   7.117  19.905  0.00  0.00    +0.000 A 
ENDROOT
BRANCH   1   7
ATOM      7  S   UNL     1       3.903   5.538  18.382  0.00  0.00    +0.000 S 
ATOM      8  O   UNL     1       4.887   5.456  19.443  0.00  0.00    +0.000 OA
ATOM      9  O   UNL     1       4.274   5.570  16.987  0.00  0.00    +0.000 OA
BRANCH   7  10
ATOM     10  N   UNL     1       2.785   4.277  18.584  0.00  0.00    +0.000 NA
ATOM     11  H   UNL     1       1.839   4.645  18.640  0.00  0.00    +0.000 HD
BRANCH  10  12
ATOM     12  C   UNL     1       3.113   3.273  19.618  0.00  0.00    +0.000 C 
BRANCH  12  14
ATOM     13  C   UNL     1       1.443   2.775  21.407  0.00  0.00    +0.000 C 
ATOM     14  C   UNL     1       1.881   2.427  19.981  0.00  0.00    +0.000 C 
ATOM     15  C   UNL     1       0.709   2.649  19.021  0.00  0.00    +0.000 C 
ENDBRANCH  12  14
ENDBRANCH  10  12
ENDBRANCH   7  10
ENDBRANCH   1   7
BRANCH   4  16
ATOM     16  S   UNL     1       0.393  10.718  19.510  0.00  0.00    +0.000 S 
ATOM     17  O   UNL     1      -0.460  10.964  18.364  0.00  0.00    +0.000 OA
ATOM     18  O   UNL     1      -0.162  10.573  20.834  0.00  0.00    +0.000 OA
BRANCH  16  19
ATOM     19  N   UNL     1       1.591  11.947  19.560  0.00  0.00    +0.000 NA
ATOM     20  C   UNL     1       1.834  12.634  18.265  0.00  0.00    +0.000 C 
ATOM     21  C   UNL     1       3.018  13.585  18.345  0.00  0.00    +0.000 C 
ATOM     22  C   UNL     1       2.841  14.566  19.495  0.00  0.00    +0.000 C 
ATOM     23  C   UNL     1       2.701  13.793  20.799  0.00  0.00    +0.000 C 
ATOM     24  C   UNL     1       1.522  12.840  20.744  0.00  0.00    +0.000 C 
ATOM     25  O   UNL     1       1.670  15.366  19.261  0.00  0.00    +0.000 OA
ATOM     26  C   UNL     1       2.068  16.703  19.562  0.00  0.00    +0.000 C 
ATOM     27  C   UNL     1       3.531  16.719  19.214  0.00  0.00    +0.000 C 
ATOM     28  O   UNL     1       3.991  15.422  19.593  0.00  0.00    +0.000 OA
ENDBRANCH  16  19
ENDBRANCH   4  16
TORSDOF 6
ENDMDL
MODEL 9
REMARK VINA RESULT:      -7.1      3.478      9.668
REMARK  Name = 
REMARK  8 active torsions:
REMARK  status: ('A' for Active; 'I' for Inactive)
REMARK    1  A    between atoms: C_1  and  C_2
REMARK    2  A    between atoms: C_2  and  C_3
REMARK    3  A    between atoms: C_2  and  C_4
REMARK    4  A    between atoms: C_4  and  N_5
REMARK    5  A    between atoms: N_5  and  S_6
REMARK    6  A    between atoms: S_6  and  C_9
REMARK    7  A    between atoms: C_12  and  S_13
REMARK    8  A    between atoms: S_13  and  N_16
REMARK                            x       y       z     vdW  Elec       q    Type
REMARK                         _______ _______ _______ _____ _____    ______ ____
ROOT
ATOM      1  C   UNL     1       1.120   9.803  19.581  0.00  0.00    +0.000 A 
ATOM      2  C   UNL     1       1.144   9.002  20.726  0.00  0.00    +0.000 A 
ATOM      3  C   UNL     1       1.590   7.678  20.629  0.00  0.00    +0.000 A 
ATOM      4  C   UNL     1       1.984   7.161  19.388  0.00  0.00    +0.000 A 
ATOM      5  C   UNL     1       1.956   7.966  18.243  0.00  0.00    +0.000 A 
ATOM      6  C   UNL     1       1.499   9.282  18.335  0.00  0.00    +0.000 A 
ENDROOT
BRANCH   1   7
ATOM      7  S   UNL     1       0.572  11.496  19.675  0.00  0.00    +0.000 S 
ATOM      8  O   UNL     1       1.740  12.352  19.634  0.00  0.00    +0.000 OA
ATOM      9  O   UNL     1      -0.390  11.555  20.751  0.00  0.00    +0.000 OA
BRANCH   7  10
ATOM     10  N   UNL     1      -0.280  11.674  18.218  0.00  0.00    +0.000 NA
ATOM     11  H   UNL     1       0.214  12.303  17.591  0.00  0.00    +0.000 HD
BRANCH  10  12
ATOM     12  C   UNL     1      -1.729  11.944  18.338  0.00  0.00    +0.000 C 
BRANCH  12  14
ATOM     13  C   UNL     1      -3.984  11.096  17.682  0.00  0.00    +0.000 C 
ATOM     14  C   UNL     1      -2.556  10.680  18.045  0.00  0.00    +0.000 C 
ATOM     15  C   UNL     1      -1.966   9.841  16.908  0.00  0.00    +0.000 C 
ENDBRANCH  12  14
ENDBRANCH  10  12
ENDBRANCH   7  10
ENDBRANCH   1   7
BRANCH   4  16
ATOM     16  S   UNL     1       2.655   5.501  19.296  0.00  0.00    +0.000 S 
ATOM     17  O   UNL     1       3.016   5.120  20.647  0.00  0.00    +0.000 OA
ATOM     18  O   UNL     1       1.724   4.713  18.524  0.00  0.00    +0.000 OA
BRANCH  16  19
ATOM     19  N   UNL     1       4.099   5.674  18.384  0.00  0.00    +0.000 NA
ATOM     20  C   UNL     1       4.957   4.461  18.338  0.00  0.00    +0.000 C 
ATOM     21  C   UNL     1       6.290   4.739  17.660  0.00  0.00    +0.000 C 
ATOM     22  C   UNL     1       6.074   5.347  16.282  0.00  0.00    +0.000 C 
ATOM     23  C   UNL     1       5.278   6.637  16.419  0.00  0.00    +0.000 C 
ATOM     24  C   UNL     1       3.940   6.383  17.089  0.00  0.00    +0.000 C 
ATOM     25  O   UNL     1       5.365   4.408  15.455  0.00  0.00    +0.000 OA
ATOM     26  C   UNL     1       6.052   4.425  14.204  0.00  0.00    +0.000 C 
ATOM     27  C   UNL     1       7.472   4.740  14.587  0.00  0.00    +0.000 C 
ATOM     28  O   UNL     1       7.341   5.654  15.676  0.00  0.00    +0.000 OA
ENDBRANCH  16  19
ENDBRANCH   4  16
TORSDOF 6
ENDMDL
