MODEL 1
REMARK VINA RESULT:      -8.6      0.000      0.000
REMARK  Name = 
REMARK  4 active torsions:
REMARK  status: ('A' for Active; 'I' for Inactive)
REMARK    1  A    between atoms: C_4  and  N_5
REMARK    2  A    between atoms: C_15  and  C_16
REMARK    3  A    between atoms: C_20  and  O_21
REMARK    4  A    between atoms: O_21  and  C_22
REMARK                            x       y       z     vdW  Elec       q    Type
REMARK                         _______ _______ _______ _____ _____    ______ ____
ROOT
ATOM      1  O   UNL     1       0.253   8.943  22.337  0.00  0.00    +0.000 OA
ATOM      2  C   UNL     1       0.364   9.565  21.289  0.00  0.00    +0.000 A 
ATOM      3  C   UNL     1      -0.211  10.907  21.137  0.00  0.00    +0.000 A 
ATOM      4  C   UNL     1      -0.126  11.564  19.968  0.00  0.00    +0.000 A 
ATOM      5  O   UNL     1       0.494  11.001  18.854  0.00  0.00    +0.000 OA
ATOM      6  C   UNL     1       1.119   9.786  18.973  0.00  0.00    +0.000 A 
ATOM      7  C   UNL     1       1.802   9.302  17.862  0.00  0.00    +0.000 A 
ATOM      8  C   UNL     1       2.437   8.054  17.925  0.00  0.00    +0.000 A 
ATOM      9  C   UNL     1       2.411   7.268  19.096  0.00  0.00    +0.000 A 
ATOM     10  C   UNL     1       1.722   7.789  20.203  0.00  0.00    +0.000 A 
ATOM     11  C   UNL     1       1.082   9.030  20.131  0.00  0.00    +0.000 A 
ENDROOT
BRANCH   4  12
ATOM     12  N   UNL     1      -0.623  12.850  19.769  0.00  0.00    +0.000 N 
ATOM     13  C   UNL     1      -0.323  13.635  18.554  0.00  0.00    +0.000 C 
ATOM     14  C   UNL     1      -0.018  15.094  18.921  0.00  0.00    +0.000 C 
ATOM     15  O   UNL     1      -1.079  15.682  19.693  0.00  0.00    +0.000 OA
ATOM     16  C   UNL     1      -1.284  14.931  20.901  0.00  0.00    +0.000 C 
ATOM     17  C   UNL     1      -1.672  13.476  20.596  0.00  0.00    +0.000 C 
ENDBRANCH   4  12
BRANCH   9  18
ATOM     18  C   UNL     1       3.076   5.946  19.159  0.00  0.00    +0.000 A 
ATOM     19  C   UNL     1       2.332   4.756  19.246  0.00  0.00    +0.000 A 
ATOM     20  C   UNL     1       2.958   3.510  19.311  0.00  0.00    +0.000 A 
ATOM     21  C   UNL     1       4.346   3.429  19.247  0.00  0.00    +0.000 A 
ATOM     22  C   UNL     1       5.112   4.585  19.118  0.00  0.00    +0.000 A 
ATOM     23  C   UNL     1       4.480   5.832  19.129  0.00  0.00    +0.000 A 
BRANCH  22  24
ATOM     24  O   UNL     1       6.457   4.377  19.050  0.00  0.00    +0.000 OA
BRANCH  24  25
ATOM     25  C   UNL     1       7.159   4.770  17.877  0.00  0.00    +0.000 C 
ATOM     26  F   UNL     1       8.307   4.094  17.658  0.00  0.00    +0.000 F 
ATOM     27  F   UNL     1       6.354   4.612  16.804  0.00  0.00    +0.000 F 
ATOM     28  F   UNL     1       7.469   6.083  17.981  0.00  0.00    +0.000 F 
ENDBRANCH  24  25
ENDBRANCH  22  24
ENDBRANCH   9  18
TORSDOF 4
ENDMDL
MODEL 2
REMARK VINA RESULT:      -8.5      0.809      1.351
REMARK  Name = 
REMARK  4 active torsions:
REMARK  status: ('A' for Active; 'I' for Inactive)
REMARK    1  A    between atoms: C_4  and  N_5
REMARK    2  A    between atoms: C_15  and  C_16
REMARK    3  A    between atoms: C_20  and  O_21
REMARK    4  A    between atoms: O_21  and  C_22
REMARK                            x       y       z     vdW  Elec       q    Type
REMARK                         _______ _______ _______ _____ _____    ______ ____
ROOT
ATOM      1  O   UNL     1       0.776   8.557  22.426  0.00  0.00    +0.000 OA
ATOM      2  C   UNL     1       0.767   9.338  21.484  0.00  0.00    +0.000 A 
ATOM      3  C   UNL     1       0.226  10.696  21.626  0.00  0.00    +0.000 A 
ATOM      4  C   UNL     1       0.175  11.531  20.575  0.00  0.00    +0.000 A 
ATOM      5  O   UNL     1       0.616  11.145  19.311  0.00  0.00    +0.000 OA
ATOM      6  C   UNL     1       1.206   9.918  19.148  0.00  0.00    +0.000 A 
ATOM      7  C   UNL     1       1.713   9.608  17.890  0.00  0.00    +0.000 A 
ATOM      8  C   UNL     1       2.303   8.357  17.666  0.00  0.00    +0.000 A 
ATOM      9  C   UNL     1       2.408   7.393  18.691  0.00  0.00    +0.000 A 
ATOM     10  C   UNL     1       1.896   7.740  19.952  0.00  0.00    +0.000 A 
ATOM     11  C   UNL     1       1.299   8.986  20.166  0.00  0.00    +0.000 A 
ENDROOT
BRANCH   4  12
ATOM     12  N   UNL     1      -0.296  12.839  20.653  0.00  0.00    +0.000 N 
ATOM     13  C   UNL     1      -1.499  13.203  21.431  0.00  0.00    +0.000 C 
ATOM     14  C   UNL     1      -2.362  14.201  20.646  0.00  0.00    +0.000 C 
ATOM     15  O   UNL     1      -1.608  15.359  20.248  0.00  0.00    +0.000 OA
ATOM     16  C   UNL     1      -0.493  14.965  19.432  0.00  0.00    +0.000 C 
ATOM     17  C   UNL     1       0.453  14.024  20.193  0.00  0.00    +0.000 C 
ENDBRANCH   4  12
BRANCH   9  18
ATOM     18  C   UNL     1       3.026   6.069  18.451  0.00  0.00    +0.000 A 
ATOM     19  C   UNL     1       2.287   5.005  17.902  0.00  0.00    +0.000 A 
ATOM     20  C   UNL     1       2.866   3.755  17.681  0.00  0.00    +0.000 A 
ATOM     21  C   UNL     1       4.214   3.557  17.967  0.00  0.00    +0.000 A 
ATOM     22  C   UNL     1       4.985   4.600  18.473  0.00  0.00    +0.000 A 
ATOM     23  C   UNL     1       4.379   5.826  18.761  0.00  0.00    +0.000 A 
BRANCH  22  24
ATOM     24  O   UNL     1       6.293   4.289  18.699  0.00  0.00    +0.000 OA
BRANCH  24  25
ATOM     25  C   UNL     1       7.301   4.936  17.931  0.00  0.00    +0.000 C 
ATOM     26  F   UNL     1       7.797   6.060  18.489  0.00  0.00    +0.000 F 
ATOM     27  F   UNL     1       8.319   4.073  17.720  0.00  0.00    +0.000 F 
ATOM     28  F   UNL     1       6.778   5.270  16.728  0.00  0.00    +0.000 F 
ENDBRANCH  24  25
ENDBRANCH  22  24
ENDBRANCH   9  18
TORSDOF 4
ENDMDL
MODEL 3
REMARK VINA RESULT:      -8.5      1.006      1.398
REMARK  Name = 
REMARK  4 active torsions:
REMARK  status: ('A' for Active; 'I' for Inactive)
REMARK    1  A    between atoms: C_4  and  N_5
REMARK    2  A    between atoms: C_15  and  C_16
REMARK    3  A    between atoms: C_20  and  O_21
REMARK    4  A    between atoms: O_21  and  C_22
REMARK                            x       y       z     vdW  Elec       q    Type
REMARK                         _______ _______ _______ _____ _____    ______ ____
ROOT
ATOM      1  O   UNL     1       0.715   8.491  22.419  0.00  0.00    +0.000 OA
ATOM      2  C   UNL     1       0.707   9.285  21.488  0.00  0.00    +0.000 A 
ATOM      3  C   UNL     1       0.144  10.632  21.641  0.00  0.00    +0.000 A 
ATOM      4  C   UNL     1       0.095  11.481  20.601  0.00  0.00    +0.000 A 
ATOM      5  O   UNL     1       0.560  11.119  19.338  0.00  0.00    +0.000 OA
ATOM      6  C   UNL     1       1.170   9.904  19.167  0.00  0.00    +0.000 A 
ATOM      7  C   UNL     1       1.700   9.619  17.913  0.00  0.00    +0.000 A 
ATOM      8  C   UNL     1       2.313   8.381  17.680  0.00  0.00    +0.000 A 
ATOM      9  C   UNL     1       2.418   7.405  18.693  0.00  0.00    +0.000 A 
ATOM     10  C   UNL     1       1.883   7.726  19.951  0.00  0.00    +0.000 A 
ATOM     11  C   UNL     1       1.263   8.959  20.173  0.00  0.00    +0.000 A 
ENDROOT
BRANCH   4  12
ATOM     12  N   UNL     1      -0.397  12.780  20.690  0.00  0.00    +0.000 N 
ATOM     13  C   UNL     1       0.303  13.843  21.442  0.00  0.00    +0.000 C 
ATOM     14  C   UNL     1      -0.701  14.678  22.249  0.00  0.00    +0.000 C 
ATOM     15  O   UNL     1      -1.745  15.208  21.414  0.00  0.00    +0.000 OA
ATOM     16  C   UNL     1      -2.447  14.138  20.762  0.00  0.00    +0.000 C 
ATOM     17  C   UNL     1      -1.506  13.311  19.874  0.00  0.00    +0.000 C 
ENDBRANCH   4  12
BRANCH   9  18
ATOM     18  C   UNL     1       3.059   6.093  18.443  0.00  0.00    +0.000 A 
ATOM     19  C   UNL     1       2.341   5.022  17.883  0.00  0.00    +0.000 A 
ATOM     20  C   UNL     1       2.943   3.784  17.653  0.00  0.00    +0.000 A 
ATOM     21  C   UNL     1       4.293   3.607  17.942  0.00  0.00    +0.000 A 
ATOM     22  C   UNL     1       5.045   4.659  18.459  0.00  0.00    +0.000 A 
ATOM     23  C   UNL     1       4.415   5.872  18.756  0.00  0.00    +0.000 A 
BRANCH  22  24
ATOM     24  O   UNL     1       6.356   4.369  18.687  0.00  0.00    +0.000 OA
BRANCH  24  25
ATOM     25  C   UNL     1       7.351   4.971  17.866  0.00  0.00    +0.000 C 
ATOM     26  F   UNL     1       6.910   5.376  16.656  0.00  0.00    +0.000 F 
ATOM     27  F   UNL     1       7.874   6.035  18.513  0.00  0.00    +0.000 F 
ATOM     28  F   UNL     1       8.342   4.073  17.663  0.00  0.00    +0.000 F 
ENDBRANCH  24  25
ENDBRANCH  22  24
ENDBRANCH   9  18
TORSDOF 4
ENDMDL
MODEL 4
REMARK VINA RESULT:      -8.5      1.382      2.474
REMARK  Name = 
REMARK  4 active torsions:
REMARK  status: ('A' for Active; 'I' for Inactive)
REMARK    1  A    between atoms: C_4  and  N_5
REMARK    2  A    between atoms: C_15  and  C_16
REMARK    3  A    between atoms: C_20  and  O_21
REMARK    4  A    between atoms: O_21  and  C_22
REMARK                            x       y       z     vdW  Elec       q    Type
REMARK                         _______ _______ _______ _____ _____    ______ ____
ROOT
ATOM      1  O   UNL     1       2.004  10.618  17.474  0.00  0.00    +0.000 OA
ATOM      2  C   UNL     1       1.465  10.431  18.556  0.00  0.00    +0.000 A 
ATOM      3  C   UNL     1       0.674  11.485  19.204  0.00  0.00    +0.000 A 
ATOM      4  C   UNL     1       0.125  11.288  20.414  0.00  0.00    +0.000 A 
ATOM      5  O   UNL     1       0.290  10.091  21.108  0.00  0.00    +0.000 OA
ATOM      6  C   UNL     1       0.949   9.049  20.508  0.00  0.00    +0.000 A 
ATOM      7  C   UNL     1       1.014   7.843  21.198  0.00  0.00    +0.000 A 
ATOM      8  C   UNL     1       1.696   6.755  20.638  0.00  0.00    +0.000 A 
ATOM      9  C   UNL     1       2.320   6.843  19.376  0.00  0.00    +0.000 A 
ATOM     10  C   UNL     1       2.228   8.070  18.699  0.00  0.00    +0.000 A 
ATOM     11  C   UNL     1       1.555   9.155  19.268  0.00  0.00    +0.000 A 
ENDROOT
BRANCH   4  12
ATOM     12  N   UNL     1      -0.661  12.234  21.067  0.00  0.00    +0.000 N 
ATOM     13  C   UNL     1      -1.004  12.126  22.500  0.00  0.00    +0.000 C 
ATOM     14  C   UNL     1      -2.478  12.491  22.727  0.00  0.00    +0.000 C 
ATOM     15  O   UNL     1      -2.793  13.789  22.195  0.00  0.00    +0.000 OA
ATOM     16  C   UNL     1      -2.516  13.825  20.786  0.00  0.00    +0.000 C 
ATOM     17  C   UNL     1      -1.033  13.545  20.499  0.00  0.00    +0.000 C 
ENDBRANCH   4  12
BRANCH   9  18
ATOM     18  C   UNL     1       3.048   5.695  18.788  0.00  0.00    +0.000 A 
ATOM     19  C   UNL     1       2.418   4.805  17.899  0.00  0.00    +0.000 A 
ATOM     20  C   UNL     1       3.101   3.720  17.350  0.00  0.00    +0.000 A 
ATOM     21  C   UNL     1       4.448   3.527  17.647  0.00  0.00    +0.000 A 
ATOM     22  C   UNL     1       5.114   4.413  18.491  0.00  0.00    +0.000 A 
ATOM     23  C   UNL     1       4.402   5.454  19.095  0.00  0.00    +0.000 A 
BRANCH  22  24
ATOM     24  O   UNL     1       6.431   4.129  18.694  0.00  0.00    +0.000 OA
BRANCH  24  25
ATOM     25  C   UNL     1       7.418   4.930  18.056  0.00  0.00    +0.000 C 
ATOM     26  F   UNL     1       6.967   5.642  17.001  0.00  0.00    +0.000 F 
ATOM     27  F   UNL     1       7.947   5.785  18.959  0.00  0.00    +0.000 F 
ATOM     28  F   UNL     1       8.408   4.122  17.613  0.00  0.00    +0.000 F 
ENDBRANCH  24  25
ENDBRANCH  22  24
ENDBRANCH   9  18
TORSDOF 4
ENDMDL
MODEL 5
REMARK VINA RESULT:      -8.3      1.211      2.128
REMARK  Name = 
REMARK  4 active torsions:
REMARK  status: ('A' for Active; 'I' for Inactive)
REMARK    1  A    between atoms: C_4  and  N_5
REMARK    2  A    between atoms: C_15  and  C_16
REMARK    3  A    between atoms: C_20  and  O_21
REMARK    4  A    between atoms: O_21  and  C_22
REMARK                            x       y       z     vdW  Elec       q    Type
REMARK                         _______ _______ _______ _____ _____    ______ ____
ROOT
ATOM      1  O   UNL     1       2.110  10.588  17.298  0.00  0.00    +0.000 OA
ATOM      2  C   UNL     1       1.558  10.461  18.383  0.00  0.00    +0.000 A 
ATOM      3  C   UNL     1       0.796  11.563  18.982  0.00  0.00    +0.000 A 
ATOM      4  C   UNL     1       0.233  11.432  20.194  0.00  0.00    +0.000 A 
ATOM      5  O   UNL     1       0.357  10.260  20.937  0.00  0.00    +0.000 OA
ATOM      6  C   UNL     1       0.987   9.175  20.384  0.00  0.00    +0.000 A 
ATOM      7  C   UNL     1       1.011   7.997  21.123  0.00  0.00    +0.000 A 
ATOM      8  C   UNL     1       1.664   6.867  20.612  0.00  0.00    +0.000 A 
ATOM      9  C   UNL     1       2.298   6.885  19.352  0.00  0.00    +0.000 A 
ATOM     10  C   UNL     1       2.248   8.086  18.626  0.00  0.00    +0.000 A 
ATOM     11  C   UNL     1       1.605   9.213  19.146  0.00  0.00    +0.000 A 
ENDROOT
BRANCH   4  12
ATOM     12  N   UNL     1      -0.528  12.428  20.802  0.00  0.00    +0.000 N 
ATOM     13  C   UNL     1      -1.462  13.285  20.043  0.00  0.00    +0.000 C 
ATOM     14  C   UNL     1      -1.351  14.743  20.510  0.00  0.00    +0.000 C 
ATOM     15  O   UNL     1      -1.544  14.863  21.930  0.00  0.00    +0.000 OA
ATOM     16  C   UNL     1      -0.568  14.074  22.629  0.00  0.00    +0.000 C 
ATOM     17  C   UNL     1      -0.682  12.587  22.261  0.00  0.00    +0.000 C 
ENDBRANCH   4  12
BRANCH   9  18
ATOM     18  C   UNL     1       2.994   5.692  18.817  0.00  0.00    +0.000 A 
ATOM     19  C   UNL     1       2.320   4.744  18.027  0.00  0.00    +0.000 A 
ATOM     20  C   UNL     1       2.974   3.617  17.528  0.00  0.00    +0.000 A 
ATOM     21  C   UNL     1       4.333   3.439  17.774  0.00  0.00    +0.000 A 
ATOM     22  C   UNL     1       5.040   4.380  18.518  0.00  0.00    +0.000 A 
ATOM     23  C   UNL     1       4.361   5.466  19.077  0.00  0.00    +0.000 A 
BRANCH  22  24
ATOM     24  O   UNL     1       6.365   4.104  18.679  0.00  0.00    +0.000 OA
BRANCH  24  25
ATOM     25  C   UNL     1       7.325   4.879  17.970  0.00  0.00    +0.000 C 
ATOM     26  F   UNL     1       7.742   5.986  18.620  0.00  0.00    +0.000 F 
ATOM     27  F   UNL     1       8.400   4.109  17.695  0.00  0.00    +0.000 F 
ATOM     28  F   UNL     1       6.778   5.273  16.797  0.00  0.00    +0.000 F 
ENDBRANCH  24  25
ENDBRANCH  22  24
ENDBRANCH   9  18
TORSDOF 4
ENDMDL
MODEL 6
REMARK VINA RESULT:      -8.3      2.853      3.833
REMARK  Name = 
REMARK  4 active torsions:
REMARK  status: ('A' for Active; 'I' for Inactive)
REMARK    1  A    between atoms: C_4  and  N_5
REMARK    2  A    between atoms: C_15  and  C_16
REMARK    3  A    between atoms: C_20  and  O_21
REMARK    4  A    between atoms: O_21  and  C_22
REMARK                            x       y       z     vdW  Elec       q    Type
REMARK                         _______ _______ _______ _____ _____    ______ ____
ROOT
ATOM      1  O   UNL     1       0.154   9.524  23.597  0.00  0.00    +0.000 OA
ATOM      2  C   UNL     1      -0.354  10.240  22.745  0.00  0.00    +0.000 A 
ATOM      3  C   UNL     1      -1.288  11.312  23.110  0.00  0.00    +0.000 A 
ATOM      4  C   UNL     1      -1.878  12.063  22.166  0.00  0.00    +0.000 A 
ATOM      5  O   UNL     1      -1.644  11.851  20.808  0.00  0.00    +0.000 OA
ATOM      6  C   UNL     1      -0.717  10.918  20.422  0.00  0.00    +0.000 A 
ATOM      7  C   UNL     1      -0.448  10.800  19.062  0.00  0.00    +0.000 A 
ATOM      8  C   UNL     1       0.474   9.845  18.615  0.00  0.00    +0.000 A 
ATOM      9  C   UNL     1       1.153   8.993  19.511  0.00  0.00    +0.000 A 
ATOM     10  C   UNL     1       0.867   9.143  20.878  0.00  0.00    +0.000 A 
ATOM     11  C   UNL     1      -0.062  10.091  21.318  0.00  0.00    +0.000 A 
ENDROOT
BRANCH   4  12
ATOM     12  N   UNL     1      -2.747  13.113  22.449  0.00  0.00    +0.000 N 
ATOM     13  C   UNL     1      -2.472  14.105  23.510  0.00  0.00    +0.000 C 
ATOM     14  C   UNL     1      -3.749  14.406  24.306  0.00  0.00    +0.000 C 
ATOM     15  O   UNL     1      -4.826  14.821  23.449  0.00  0.00    +0.000 OA
ATOM     16  C   UNL     1      -5.110  13.796  22.483  0.00  0.00    +0.000 C 
ATOM     17  C   UNL     1      -3.888  13.506  21.599  0.00  0.00    +0.000 C 
ENDBRANCH   4  12
BRANCH   9  18
ATOM     18  C   UNL     1       2.121   7.979  19.036  0.00  0.00    +0.000 A 
ATOM     19  C   UNL     1       2.859   8.168  17.854  0.00  0.00    +0.000 A 
ATOM     20  C   UNL     1       3.767   7.209  17.402  0.00  0.00    +0.000 A 
ATOM     21  C   UNL     1       3.986   6.056  18.152  0.00  0.00    +0.000 A 
ATOM     22  C   UNL     1       3.303   5.857  19.349  0.00  0.00    +0.000 A 
ATOM     23  C   UNL     1       2.341   6.786  19.754  0.00  0.00    +0.000 A 
BRANCH  22  24
ATOM     24  O   UNL     1       3.613   4.700  19.999  0.00  0.00    +0.000 OA
BRANCH  24  25
ATOM     25  C   UNL     1       2.594   3.731  20.213  0.00  0.00    +0.000 C 
ATOM     26  F   UNL     1       1.835   3.948  21.309  0.00  0.00    +0.000 F 
ATOM     27  F   UNL     1       1.786   3.692  19.130  0.00  0.00    +0.000 F 
ATOM     28  F   UNL     1       3.175   2.517  20.349  0.00  0.00    +0.000 F 
ENDBRANCH  24  25
ENDBRANCH  22  24
ENDBRANCH   9  18
TORSDOF 4
ENDMDL
MODEL 7
REMARK VINA RESULT:      -8.2      2.607      3.086
REMARK  Name = 
REMARK  4 active torsions:
REMARK  status: ('A' for Active; 'I' for Inactive)
REMARK    1  A    between atoms: C_4  and  N_5
REMARK    2  A    between atoms: C_15  and  C_16
REMARK    3  A    between atoms: C_20  and  O_21
REMARK    4  A    between atoms: O_21  and  C_22
REMARK                            x       y       z     vdW  Elec       q    Type
REMARK                         _______ _______ _______ _____ _____    ______ ____
ROOT
ATOM      1  O   UNL     1       0.072   9.394  22.264  0.00  0.00    +0.000 OA
ATOM      2  C   UNL     1       0.209  10.077  21.257  0.00  0.00    +0.000 A 
ATOM      3  C   UNL     1      -0.321  11.444  21.187  0.00  0.00    +0.000 A 
ATOM      4  C   UNL     1      -0.209  12.169  20.062  0.00  0.00    +0.000 A 
ATOM      5  O   UNL     1       0.399  11.656  18.917  0.00  0.00    +0.000 OA
ATOM      6  C   UNL     1       0.983  10.416  18.961  0.00  0.00    +0.000 A 
ATOM      7  C   UNL     1       1.656   9.979  17.825  0.00  0.00    +0.000 A 
ATOM      8  C   UNL     1       2.250   8.710  17.812  0.00  0.00    +0.000 A 
ATOM      9  C   UNL     1       2.192   7.854  18.932  0.00  0.00    +0.000 A 
ATOM     10  C   UNL     1       1.514   8.328  20.067  0.00  0.00    +0.000 A 
ATOM     11  C   UNL     1       0.915   9.591  20.070  0.00  0.00    +0.000 A 
ENDROOT
BRANCH   4  12
ATOM     12  N   UNL     1      -0.662  13.480  19.941  0.00  0.00    +0.000 N 
ATOM     13  C   UNL     1      -0.266  14.355  18.818  0.00  0.00    +0.000 C 
ATOM     14  C   UNL     1       0.048  15.769  19.326  0.00  0.00    +0.000 C 
ATOM     15  O   UNL     1      -1.048  16.320  20.077  0.00  0.00    +0.000 OA
ATOM     16  C   UNL     1      -1.348  15.478  21.201  0.00  0.00    +0.000 C 
ATOM     17  C   UNL     1      -1.748  14.065  20.751  0.00  0.00    +0.000 C 
ENDBRANCH   4  12
BRANCH   9  18
ATOM     18  C   UNL     1       2.813   6.510  18.914  0.00  0.00    +0.000 A 
ATOM     19  C   UNL     1       3.736   6.142  17.919  0.00  0.00    +0.000 A 
ATOM     20  C   UNL     1       4.317   4.874  17.898  0.00  0.00    +0.000 A 
ATOM     21  C   UNL     1       4.015   3.958  18.903  0.00  0.00    +0.000 A 
ATOM     22  C   UNL     1       3.136   4.303  19.927  0.00  0.00    +0.000 A 
ATOM     23  C   UNL     1       2.503   5.549  19.898  0.00  0.00    +0.000 A 
BRANCH  22  24
ATOM     24  O   UNL     1       2.932   3.330  20.858  0.00  0.00    +0.000 OA
BRANCH  24  25
ATOM     25  C   UNL     1       1.679   2.657  20.893  0.00  0.00    +0.000 C 
ATOM     26  F   UNL     1       0.604   3.468  20.788  0.00  0.00    +0.000 F 
ATOM     27  F   UNL     1       1.635   1.750  19.893  0.00  0.00    +0.000 F 
ATOM     28  F   UNL     1       1.580   1.993  22.068  0.00  0.00    +0.000 F 
ENDBRANCH  24  25
ENDBRANCH  22  24
ENDBRANCH   9  18
TORSDOF 4
ENDMDL
MODEL 8
REMARK VINA RESULT:      -8.2      2.453      3.512
REMARK  Name = 
REMARK  4 active torsions:
REMARK  status: ('A' for Active; 'I' for Inactive)
REMARK    1  A    between atoms: C_4  and  N_5
REMARK    2  A    between atoms: C_15  and  C_16
REMARK    3  A    between atoms: C_20  and  O_21
REMARK    4  A    between atoms: O_21  and  C_22
REMARK                            x       y       z     vdW  Elec       q    Type
REMARK                         _______ _______ _______ _____ _____    ______ ____
ROOT
ATOM      1  O   UNL     1       1.651  11.339  17.922  0.00  0.00    +0.000 OA
ATOM      2  C   UNL     1       1.207  10.933  18.988  0.00  0.00    +0.000 A 
ATOM      3  C   UNL     1       0.421  11.807  19.868  0.00  0.00    +0.000 A 
ATOM      4  C   UNL     1      -0.022  11.368  21.057  0.00  0.00    +0.000 A 
ATOM      5  O   UNL     1       0.253  10.079  21.511  0.00  0.00    +0.000 OA
ATOM      6  C   UNL     1       0.910   9.200  20.689  0.00  0.00    +0.000 A 
ATOM      7  C   UNL     1       1.085   7.898  21.145  0.00  0.00    +0.000 A 
ATOM      8  C   UNL     1       1.772   6.969  20.352  0.00  0.00    +0.000 A 
ATOM      9  C   UNL     1       2.290   7.314  19.087  0.00  0.00    +0.000 A 
ATOM     10  C   UNL     1       2.088   8.634  18.650  0.00  0.00    +0.000 A 
ATOM     11  C   UNL     1       1.412   9.559  19.451  0.00  0.00    +0.000 A 
ENDROOT
BRANCH   4  12
ATOM     12  N   UNL     1      -0.797  12.136  21.922  0.00  0.00    +0.000 N 
ATOM     13  C   UNL     1      -1.565  11.542  23.037  0.00  0.00    +0.000 C 
ATOM     14  C   UNL     1      -2.957  12.182  23.129  0.00  0.00    +0.000 C 
ATOM     15  O   UNL     1      -2.878  13.614  23.233  0.00  0.00    +0.000 OA
ATOM     16  C   UNL     1      -2.192  14.155  22.092  0.00  0.00    +0.000 C 
ATOM     17  C   UNL     1      -0.760  13.609  21.991  0.00  0.00    +0.000 C 
ENDBRANCH   4  12
BRANCH   9  18
ATOM     18  C   UNL     1       3.022   6.333  18.253  0.00  0.00    +0.000 A 
ATOM     19  C   UNL     1       4.097   6.725  17.435  0.00  0.00    +0.000 A 
ATOM     20  C   UNL     1       4.783   5.802  16.645  0.00  0.00    +0.000 A 
ATOM     21  C   UNL     1       4.432   4.455  16.691  0.00  0.00    +0.000 A 
ATOM     22  C   UNL     1       3.400   4.027  17.522  0.00  0.00    +0.000 A 
ATOM     23  C   UNL     1       2.670   4.969  18.253  0.00  0.00    +0.000 A 
BRANCH  22  24
ATOM     24  O   UNL     1       3.160   2.686  17.492  0.00  0.00    +0.000 OA
BRANCH  24  25
ATOM     25  C   UNL     1       3.427   1.909  18.654  0.00  0.00    +0.000 C 
ATOM     26  F   UNL     1       3.893   0.667  18.403  0.00  0.00    +0.000 F 
ATOM     27  F   UNL     1       4.325   2.560  19.425  0.00  0.00    +0.000 F 
ATOM     28  F   UNL     1       2.280   1.782  19.360  0.00  0.00    +0.000 F 
ENDBRANCH  24  25
ENDBRANCH  22  24
ENDBRANCH   9  18
TORSDOF 4
ENDMDL
MODEL 9
REMARK VINA RESULT:      -8.2      2.446      2.992
REMARK  Name = 
REMARK  4 active torsions:
REMARK  status: ('A' for Active; 'I' for Inactive)
REMARK    1  A    between atoms: C_4  and  N_5
REMARK    2  A    between atoms: C_15  and  C_16
REMARK    3  A    between atoms: C_20  and  O_21
REMARK    4  A    between atoms: O_21  and  C_22
REMARK                            x       y       z     vdW  Elec       q    Type
REMARK                         _______ _______ _______ _____ _____    ______ ____
ROOT
ATOM      1  O   UNL     1       1.090   8.795  22.670  0.00  0.00    +0.000 OA
ATOM      2  C   UNL     1       0.631   9.492  21.775  0.00  0.00    +0.000 A 
ATOM      3  C   UNL     1      -0.247  10.631  22.072  0.00  0.00    +0.000 A 
ATOM      4  C   UNL     1      -0.785  11.361  21.082  0.00  0.00    +0.000 A 
ATOM      5  O   UNL     1      -0.548  11.066  19.740  0.00  0.00    +0.000 OA
ATOM      6  C   UNL     1       0.331  10.065  19.416  0.00  0.00    +0.000 A 
ATOM      7  C   UNL     1       0.608   9.862  18.068  0.00  0.00    +0.000 A 
ATOM      8  C   UNL     1       1.482   8.837  17.683  0.00  0.00    +0.000 A 
ATOM      9  C   UNL     1       2.104   7.998  18.632  0.00  0.00    +0.000 A 
ATOM     10  C   UNL     1       1.812   8.235  19.985  0.00  0.00    +0.000 A 
ATOM     11  C   UNL     1       0.931   9.253  20.362  0.00  0.00    +0.000 A 
ENDROOT
BRANCH   4  12
ATOM     12  N   UNL     1      -1.598  12.471  21.298  0.00  0.00    +0.000 N 
ATOM     13  C   UNL     1      -1.199  13.586  22.182  0.00  0.00    +0.000 C 
ATOM     14  C   UNL     1      -2.386  14.036  23.046  0.00  0.00    +0.000 C 
ATOM     15  O   UNL     1      -3.531  14.370  22.243  0.00  0.00    +0.000 OA
ATOM     16  C   UNL     1      -3.931  13.235  21.457  0.00  0.00    +0.000 C 
ATOM     17  C   UNL     1      -2.807  12.786  20.512  0.00  0.00    +0.000 C 
ENDBRANCH   4  12
BRANCH   9  18
ATOM     18  C   UNL     1       3.020   6.909  18.224  0.00  0.00    +0.000 A 
ATOM     19  C   UNL     1       4.086   7.144  17.337  0.00  0.00    +0.000 A 
ATOM     20  C   UNL     1       4.947   6.116  16.947  0.00  0.00    +0.000 A 
ATOM     21  C   UNL     1       4.782   4.838  17.473  0.00  0.00    +0.000 A 
ATOM     22  C   UNL     1       3.762   4.581  18.386  0.00  0.00    +0.000 A 
ATOM     23  C   UNL     1       2.860   5.598  18.713  0.00  0.00    +0.000 A 
BRANCH  22  24
ATOM     24  O   UNL     1       3.712   3.298  18.842  0.00  0.00    +0.000 OA
BRANCH  24  25
ATOM     25  C   UNL     1       2.914   2.347  18.145  0.00  0.00    +0.000 C 
ATOM     26  F   UNL     1       3.564   1.214  17.804  0.00  0.00    +0.000 F 
ATOM     27  F   UNL     1       1.848   2.021  18.907  0.00  0.00    +0.000 F 
ATOM     28  F   UNL     1       2.459   2.919  17.007  0.00  0.00    +0.000 F 
ENDBRANCH  24  25
ENDBRANCH  22  24
ENDBRANCH   9  18
TORSDOF 4
ENDMDL
