MODEL 1
REMARK VINA RESULT:      -7.6      0.000      0.000
REMARK  Name = 
REMARK  3 active torsions:
REMARK  status: ('A' for Active; 'I' for Inactive)
REMARK    1  A    between atoms: C_1  and  C_2
REMARK    2  A    between atoms: C_2  and  C_3
REMARK    3  A    between atoms: C_2  and  N_9
REMARK                            x       y       z     vdW  Elec       q    Type
REMARK                         _______ _______ _______ _____ _____    ______ ____
ROOT
ATOM      1  N   UNL     1       0.114  10.874  19.609  0.00  0.00    +0.000 N 
ATOM      2  N   UNL     1      -0.703   9.895  20.243  0.00  0.00    +0.000 N 
ATOM      3  C   UNL     1       0.029   9.048  21.055  0.00  0.00    +0.000 A 
ATOM      4  O   UNL     1      -0.351   8.616  22.139  0.00  0.00    +0.000 OA
ATOM      5  C   UNL     1       1.205   8.451  20.342  0.00  0.00    +0.000 A 
ATOM      6  N   UNL     1       1.693   7.259  20.833  0.00  0.00    +0.000 N 
ATOM      7  C   UNL     1       2.291   6.350  19.958  0.00  0.00    +0.000 A 
ATOM      8  C   UNL     1       2.869   5.172  20.423  0.00  0.00    +0.000 A 
ATOM      9  C   UNL     1       3.349   4.243  19.506  0.00  0.00    +0.000 A 
ATOM     10 CL   UNL     1       4.308   2.924  20.053  0.00  0.00    +0.000 Cl
ATOM     11  C   UNL     1       3.126   4.420  18.141  0.00  0.00    +0.000 A 
ATOM     12  C   UNL     1       2.688   5.664  17.677  0.00  0.00    +0.000 A 
ATOM     13  C   UNL     1       2.397   6.671  18.598  0.00  0.00    +0.000 A 
ATOM     14  C   UNL     1       2.194   8.096  18.194  0.00  0.00    +0.000 A 
ATOM     15  O   UNL     1       2.455   8.448  17.040  0.00  0.00    +0.000 OA
ATOM     16  C   UNL     1       1.575   9.018  19.189  0.00  0.00    +0.000 A 
ATOM     17  C   UNL     1       1.292  10.470  19.001  0.00  0.00    +0.000 A 
ATOM     18  O   UNL     1       2.081  11.228  18.451  0.00  0.00    +0.000 OA
ATOM     19  H   UNL     1      -1.210   9.397  19.502  0.00  0.00    +0.000 HD
ATOM     20  H   UNL     1       1.215   6.896  21.657  0.00  0.00    +0.000 HD
ENDROOT
BRANCH   1  22
ATOM     21  C   UNL     1      -0.045  13.178  20.492  0.00  0.00    +0.000 C 
ATOM     22  C   UNL     1      -0.572  12.166  19.469  0.00  0.00    +0.000 C 
BRANCH  22  23
ATOM     23  C   UNL     1      -2.090  12.174  19.426  0.00  0.00    +0.000 A 
ATOM     24  C   UNL     1      -2.881  12.763  20.406  0.00  0.00    +0.000 A 
ATOM     25  C   UNL     1      -4.263  12.798  20.218  0.00  0.00    +0.000 A 
ATOM     26  C   UNL     1      -4.823  12.207  19.091  0.00  0.00    +0.000 A 
ATOM     27  C   UNL     1      -3.983  11.534  18.228  0.00  0.00    +0.000 A 
ATOM     28  N   UNL     1      -2.647  11.487  18.386  0.00  0.00    +0.000 NA
ENDBRANCH  22  23
ENDBRANCH   1  22
TORSDOF 2
ENDMDL
MODEL 2
REMARK VINA RESULT:      -7.6      3.264      7.430
REMARK  Name = 
REMARK  3 active torsions:
REMARK  status: ('A' for Active; 'I' for Inactive)
REMARK    1  A    between atoms: C_1  and  C_2
REMARK    2  A    between atoms: C_2  and  C_3
REMARK    3  A    between atoms: C_2  and  N_9
REMARK                            x       y       z     vdW  Elec       q    Type
REMARK                         _______ _______ _______ _____ _____    ______ ____
ROOT
ATOM      1  N   UNL     1       2.081   7.863  19.382  0.00  0.00    +0.000 N 
ATOM      2  N   UNL     1       1.750   8.054  20.753  0.00  0.00    +0.000 N 
ATOM      3  C   UNL     1       0.502   8.627  20.916  0.00  0.00    +0.000 A 
ATOM      4  O   UNL     1      -0.295   8.330  21.800  0.00  0.00    +0.000 OA
ATOM      5  C   UNL     1       0.335   9.872  20.097  0.00  0.00    +0.000 A 
ATOM      6  N   UNL     1      -0.606  10.783  20.531  0.00  0.00    +0.000 N 
ATOM      7  C   UNL     1      -0.414  12.141  20.275  0.00  0.00    +0.000 A 
ATOM      8  C   UNL     1      -1.377  13.085  20.623  0.00  0.00    +0.000 A 
ATOM      9  C   UNL     1      -1.094  14.437  20.455  0.00  0.00    +0.000 A 
ATOM     10 CL   UNL     1      -2.355  15.595  20.612  0.00  0.00    +0.000 Cl
ATOM     11  C   UNL     1       0.185  14.848  20.082  0.00  0.00    +0.000 A 
ATOM     12  C   UNL     1       1.090  13.903  19.591  0.00  0.00    +0.000 A 
ATOM     13  C   UNL     1       0.725  12.555  19.571  0.00  0.00    +0.000 A 
ATOM     14  C   UNL     1       1.502  11.523  18.821  0.00  0.00    +0.000 A 
ATOM     15  O   UNL     1       2.399  11.874  18.048  0.00  0.00    +0.000 OA
ATOM     16  C   UNL     1       1.226  10.089  19.124  0.00  0.00    +0.000 A 
ATOM     17  C   UNL     1       1.873   8.905  18.491  0.00  0.00    +0.000 A 
ATOM     18  O   UNL     1       2.097   8.841  17.290  0.00  0.00    +0.000 OA
ATOM     19  H   UNL     1       2.502   8.614  21.172  0.00  0.00    +0.000 HD
ATOM     20  H   UNL     1      -1.122  10.515  21.368  0.00  0.00    +0.000 HD
ENDROOT
BRANCH   1  22
ATOM     21  C   UNL     1       3.708   6.748  17.892  0.00  0.00    +0.000 C 
ATOM     22  C   UNL     1       2.860   6.636  19.162  0.00  0.00    +0.000 C 
BRANCH  22  23
ATOM     23  C   UNL     1       2.133   5.303  19.218  0.00  0.00    +0.000 A 
ATOM     24  C   UNL     1       1.917   4.502  18.102  0.00  0.00    +0.000 A 
ATOM     25  C   UNL     1       1.325   3.251  18.282  0.00  0.00    +0.000 A 
ATOM     26  C   UNL     1       0.922   2.853  19.552  0.00  0.00    +0.000 A 
ATOM     27  C   UNL     1       1.059   3.754  20.586  0.00  0.00    +0.000 A 
ATOM     28  N   UNL     1       1.627   4.966  20.440  0.00  0.00    +0.000 NA
ENDBRANCH  22  23
ENDBRANCH   1  22
TORSDOF 2
ENDMDL
MODEL 3
REMARK VINA RESULT:      -7.1      3.413      7.811
REMARK  Name = 
REMARK  3 active torsions:
REMARK  status: ('A' for Active; 'I' for Inactive)
REMARK    1  A    between atoms: C_1  and  C_2
REMARK    2  A    between atoms: C_2  and  C_3
REMARK    3  A    between atoms: C_2  and  N_9
REMARK                            x       y       z     vdW  Elec       q    Type
REMARK                         _______ _______ _______ _____ _____    ______ ____
ROOT
ATOM      1  N   UNL     1       2.884   7.125  18.462  0.00  0.00    +0.000 N 
ATOM      2  N   UNL     1       2.988   6.855  19.856  0.00  0.00    +0.000 N 
ATOM      3  C   UNL     1       1.777   6.996  20.509  0.00  0.00    +0.000 A 
ATOM      4  O   UNL     1       1.382   6.271  21.416  0.00  0.00    +0.000 OA
ATOM      5  C   UNL     1       1.122   8.314  20.217  0.00  0.00    +0.000 A 
ATOM      6  N   UNL     1       0.221   8.783  21.150  0.00  0.00    +0.000 N 
ATOM      7  C   UNL     1       0.060  10.159  21.317  0.00  0.00    +0.000 A 
ATOM      8  C   UNL     1      -0.895  10.675  22.189  0.00  0.00    +0.000 A 
ATOM      9  C   UNL     1      -0.941  12.047  22.411  0.00  0.00    +0.000 A 
ATOM     10 CL   UNL     1      -2.276  12.728  23.255  0.00  0.00    +0.000 Cl
ATOM     11  C   UNL     1       0.045  12.879  21.884  0.00  0.00    +0.000 A 
ATOM     12  C   UNL     1       0.901  12.383  20.897  0.00  0.00    +0.000 A 
ATOM     13  C   UNL     1       0.809  11.040  20.526  0.00  0.00    +0.000 A 
ATOM     14  C   UNL     1       1.479  10.495  19.306  0.00  0.00    +0.000 A 
ATOM     15  O   UNL     1       1.993  11.269  18.493  0.00  0.00    +0.000 OA
ATOM     16  C   UNL     1       1.590   9.014  19.179  0.00  0.00    +0.000 A 
ATOM     17  C   UNL     1       2.206   8.261  18.049  0.00  0.00    +0.000 A 
ATOM     18  O   UNL     1       2.034   8.576  16.878  0.00  0.00    +0.000 OA
ATOM     19  H   UNL     1       3.716   7.474  20.232  0.00  0.00    +0.000 HD
ATOM     20  H   UNL     1       0.066   8.175  21.954  0.00  0.00    +0.000 HD
ENDROOT
BRANCH   1  22
ATOM     21  C   UNL     1       3.225   4.831  17.607  0.00  0.00    +0.000 C 
ATOM     22  C   UNL     1       3.764   6.263  17.661  0.00  0.00    +0.000 C 
BRANCH  22  23
ATOM     23  C   UNL     1       5.253   6.275  17.965  0.00  0.00    +0.000 A 
ATOM     24  C   UNL     1       6.184   6.972  17.203  0.00  0.00    +0.000 A 
ATOM     25  C   UNL     1       7.512   6.995  17.629  0.00  0.00    +0.000 A 
ATOM     26  C   UNL     1       7.886   6.288  18.767  0.00  0.00    +0.000 A 
ATOM     27  C   UNL     1       6.929   5.521  19.396  0.00  0.00    +0.000 A 
ATOM     28  N   UNL     1       5.640   5.483  19.006  0.00  0.00    +0.000 NA
ENDBRANCH  22  23
ENDBRANCH   1  22
TORSDOF 2
ENDMDL
MODEL 4
REMARK VINA RESULT:      -7.0      4.326      6.822
REMARK  Name = 
REMARK  3 active torsions:
REMARK  status: ('A' for Active; 'I' for Inactive)
REMARK    1  A    between atoms: C_1  and  C_2
REMARK    2  A    between atoms: C_2  and  C_3
REMARK    3  A    between atoms: C_2  and  N_9
REMARK                            x       y       z     vdW  Elec       q    Type
REMARK                         _______ _______ _______ _____ _____    ______ ____
ROOT
ATOM      1  N   UNL     1       3.643   5.430  18.880  0.00  0.00    +0.000 N 
ATOM      2  N   UNL     1       2.687   5.177  17.856  0.00  0.00    +0.000 N 
ATOM      3  C   UNL     1       3.012   4.069  17.096  0.00  0.00    +0.000 A 
ATOM      4  O   UNL     1       2.204   3.252  16.667  0.00  0.00    +0.000 OA
ATOM      5  C   UNL     1       4.419   4.126  16.578  0.00  0.00    +0.000 A 
ATOM      6  N   UNL     1       4.697   3.392  15.445  0.00  0.00    +0.000 N 
ATOM      7  C   UNL     1       5.683   3.837  14.564  0.00  0.00    +0.000 A 
ATOM      8  C   UNL     1       6.051   3.086  13.451  0.00  0.00    +0.000 A 
ATOM      9  C   UNL     1       6.954   3.621  12.538  0.00  0.00    +0.000 A 
ATOM     10 CL   UNL     1       7.631   2.614  11.320  0.00  0.00    +0.000 Cl
ATOM     11  C   UNL     1       7.373   4.946  12.656  0.00  0.00    +0.000 A 
ATOM     12  C   UNL     1       7.124   5.637  13.845  0.00  0.00    +0.000 A 
ATOM     13  C   UNL     1       6.383   5.017  14.852  0.00  0.00    +0.000 A 
ATOM     14  C   UNL     1       6.303   5.559  16.243  0.00  0.00    +0.000 A 
ATOM     15  O   UNL     1       7.044   6.487  16.580  0.00  0.00    +0.000 OA
ATOM     16  C   UNL     1       5.243   5.018  17.140  0.00  0.00    +0.000 A 
ATOM     17  C   UNL     1       4.991   5.406  18.557  0.00  0.00    +0.000 A 
ATOM     18  O   UNL     1       5.897   5.583  19.361  0.00  0.00    +0.000 OA
ATOM     19  H   UNL     1       2.608   6.034  17.296  0.00  0.00    +0.000 HD
ATOM     20  H   UNL     1       3.916   2.855  15.068  0.00  0.00    +0.000 HD
ENDROOT
BRANCH   1  22
ATOM     21  C   UNL     1       2.257   4.845  20.842  0.00  0.00    +0.000 C 
ATOM     22  C   UNL     1       3.023   5.950  20.106  0.00  0.00    +0.000 C 
BRANCH  22  23
ATOM     23  C   UNL     1       2.193   7.218  20.010  0.00  0.00    +0.000 A 
ATOM     24  C   UNL     1       1.345   7.657  21.021  0.00  0.00    +0.000 A 
ATOM     25  C   UNL     1       0.704   8.887  20.869  0.00  0.00    +0.000 A 
ATOM     26  C   UNL     1       0.884   9.621  19.701  0.00  0.00    +0.000 A 
ATOM     27  C   UNL     1       1.641   9.060  18.695  0.00  0.00    +0.000 A 
ATOM     28  N   UNL     1       2.271   7.876  18.817  0.00  0.00    +0.000 NA
ENDBRANCH  22  23
ENDBRANCH   1  22
TORSDOF 2
ENDMDL
MODEL 5
REMARK VINA RESULT:      -7.0      1.152      1.600
REMARK  Name = 
REMARK  3 active torsions:
REMARK  status: ('A' for Active; 'I' for Inactive)
REMARK    1  A    between atoms: C_1  and  C_2
REMARK    2  A    between atoms: C_2  and  C_3
REMARK    3  A    between atoms: C_2  and  N_9
REMARK                            x       y       z     vdW  Elec       q    Type
REMARK                         _______ _______ _______ _____ _____    ______ ____
ROOT
ATOM      1  N   UNL     1      -0.063  11.241  20.143  0.00  0.00    +0.000 N 
ATOM      2  N   UNL     1      -0.824  10.205  20.754  0.00  0.00    +0.000 N 
ATOM      3  C   UNL     1      -0.030   9.312  21.450  0.00  0.00    +0.000 A 
ATOM      4  O   UNL     1      -0.330   8.795  22.521  0.00  0.00    +0.000 OA
ATOM      5  C   UNL     1       1.104   8.790  20.619  0.00  0.00    +0.000 A 
ATOM      6  N   UNL     1       1.638   7.573  20.986  0.00  0.00    +0.000 N 
ATOM      7  C   UNL     1       2.188   6.742  20.009  0.00  0.00    +0.000 A 
ATOM      8  C   UNL     1       2.809   5.542  20.345  0.00  0.00    +0.000 A 
ATOM      9  C   UNL     1       3.238   4.692  19.331  0.00  0.00    +0.000 A 
ATOM     10 CL   UNL     1       4.247   3.354  19.714  0.00  0.00    +0.000 Cl
ATOM     11  C   UNL     1       2.922   4.966  18.001  0.00  0.00    +0.000 A 
ATOM     12  C   UNL     1       2.440   6.233  17.661  0.00  0.00    +0.000 A 
ATOM     13  C   UNL     1       2.198   7.165  18.672  0.00  0.00    +0.000 A 
ATOM     14  C   UNL     1       1.951   8.612  18.390  0.00  0.00    +0.000 A 
ATOM     15  O   UNL     1       2.130   9.052  17.251  0.00  0.00    +0.000 OA
ATOM     16  C   UNL     1       1.390   9.448  19.489  0.00  0.00    +0.000 A 
ATOM     17  C   UNL     1       1.077  10.904  19.430  0.00  0.00    +0.000 A 
ATOM     18  O   UNL     1       1.818  11.714  18.888  0.00  0.00    +0.000 OA
ATOM     19  H   UNL     1      -1.373   9.754  20.012  0.00  0.00    +0.000 HD
ATOM     20  H   UNL     1       1.221   7.142  21.810  0.00  0.00    +0.000 HD
ENDROOT
BRANCH   1  22
ATOM     21  C   UNL     1       0.194  13.684  20.428  0.00  0.00    +0.000 C 
ATOM     22  C   UNL     1      -0.772  12.529  20.145  0.00  0.00    +0.000 C 
BRANCH  22  23
ATOM     23  C   UNL     1      -2.033  12.654  20.984  0.00  0.00    +0.000 A 
ATOM     24  C   UNL     1      -3.264  13.034  20.462  0.00  0.00    +0.000 A 
ATOM     25  C   UNL     1      -4.378  13.021  21.302  0.00  0.00    +0.000 A 
ATOM     26  C   UNL     1      -4.230  12.681  22.643  0.00  0.00    +0.000 A 
ATOM     27  C   UNL     1      -2.956  12.438  23.111  0.00  0.00    +0.000 A 
ATOM     28  N   UNL     1      -1.866  12.442  22.321  0.00  0.00    +0.000 NA
ENDBRANCH  22  23
ENDBRANCH   1  22
TORSDOF 2
ENDMDL
MODEL 6
REMARK VINA RESULT:      -6.9      1.490      2.815
REMARK  Name = 
REMARK  3 active torsions:
REMARK  status: ('A' for Active; 'I' for Inactive)
REMARK    1  A    between atoms: C_1  and  C_2
REMARK    2  A    between atoms: C_2  and  C_3
REMARK    3  A    between atoms: C_2  and  N_9
REMARK                            x       y       z     vdW  Elec       q    Type
REMARK                         _______ _______ _______ _____ _____    ______ ____
ROOT
ATOM      1  N   UNL     1       0.179  10.984  19.678  0.00  0.00    +0.000 N 
ATOM      2  N   UNL     1      -0.663  10.034  20.322  0.00  0.00    +0.000 N 
ATOM      3  C   UNL     1       0.049   9.165  21.128  0.00  0.00    +0.000 A 
ATOM      4  O   UNL     1      -0.333   8.747  22.217  0.00  0.00    +0.000 OA
ATOM      5  C   UNL     1       1.198   8.529  20.404  0.00  0.00    +0.000 A 
ATOM      6  N   UNL     1       1.651   7.322  20.893  0.00  0.00    +0.000 N 
ATOM      7  C   UNL     1       2.211   6.393  20.014  0.00  0.00    +0.000 A 
ATOM      8  C   UNL     1       2.754   5.197  20.476  0.00  0.00    +0.000 A 
ATOM      9  C   UNL     1       3.194   4.251  19.556  0.00  0.00    +0.000 A 
ATOM     10 CL   UNL     1       4.115   2.903  20.096  0.00  0.00    +0.000 Cl
ATOM     11  C   UNL     1       2.963   4.433  18.193  0.00  0.00    +0.000 A 
ATOM     12  C   UNL     1       2.562   5.689  17.730  0.00  0.00    +0.000 A 
ATOM     13  C   UNL     1       2.313   6.708  18.653  0.00  0.00    +0.000 A 
ATOM     14  C   UNL     1       2.152   8.138  18.247  0.00  0.00    +0.000 A 
ATOM     15  O   UNL     1       2.413   8.478  17.090  0.00  0.00    +0.000 OA
ATOM     16  C   UNL     1       1.575   9.081  19.246  0.00  0.00    +0.000 A 
ATOM     17  C   UNL     1       1.337  10.541  19.059  0.00  0.00    +0.000 A 
ATOM     18  O   UNL     1       2.144  11.272  18.499  0.00  0.00    +0.000 OA
ATOM     19  H   UNL     1      -1.194   9.551  19.587  0.00  0.00    +0.000 HD
ATOM     20  H   UNL     1       1.171   6.976  21.723  0.00  0.00    +0.000 HD
ENDROOT
BRANCH   1  22
ATOM     21  C   UNL     1      -1.132  12.440  18.170  0.00  0.00    +0.000 C 
ATOM     22  C   UNL     1      -0.466  12.298  19.542  0.00  0.00    +0.000 C 
BRANCH  22  23
ATOM     23  C   UNL     1       0.346  13.536  19.885  0.00  0.00    +0.000 A 
ATOM     24  C   UNL     1       0.574  14.574  18.989  0.00  0.00    +0.000 A 
ATOM     25  C   UNL     1       1.249  15.709  19.440  0.00  0.00    +0.000 A 
ATOM     26  C   UNL     1       1.720  15.760  20.748  0.00  0.00    +0.000 A 
ATOM     27  C   UNL     1       1.562  14.640  21.536  0.00  0.00    +0.000 A 
ATOM     28  N   UNL     1       0.913  13.534  21.126  0.00  0.00    +0.000 NA
ENDBRANCH  22  23
ENDBRANCH   1  22
TORSDOF 2
ENDMDL
MODEL 7
REMARK VINA RESULT:      -6.8      3.863      7.980
REMARK  Name = 
REMARK  3 active torsions:
REMARK  status: ('A' for Active; 'I' for Inactive)
REMARK    1  A    between atoms: C_1  and  C_2
REMARK    2  A    between atoms: C_2  and  C_3
REMARK    3  A    between atoms: C_2  and  N_9
REMARK                            x       y       z     vdW  Elec       q    Type
REMARK                         _______ _______ _______ _____ _____    ______ ____
ROOT
ATOM      1  N   UNL     1       0.558  10.393  19.632  0.00  0.00    +0.000 N 
ATOM      2  N   UNL     1      -0.675  10.029  19.020  0.00  0.00    +0.000 N 
ATOM      3  C   UNL     1      -1.517  11.112  18.854  0.00  0.00    +0.000 A 
ATOM      4  O   UNL     1      -2.239  11.296  17.879  0.00  0.00    +0.000 OA
ATOM      5  C   UNL     1      -1.704  11.888  20.124  0.00  0.00    +0.000 A 
ATOM      6  N   UNL     1      -2.856  12.639  20.233  0.00  0.00    +0.000 N 
ATOM      7  C   UNL     1      -3.419  12.853  21.491  0.00  0.00    +0.000 A 
ATOM      8  C   UNL     1      -4.534  13.670  21.656  0.00  0.00    +0.000 A 
ATOM      9  C   UNL     1      -5.131  13.761  22.909  0.00  0.00    +0.000 A 
ATOM     10 CL   UNL     1      -6.323  14.967  23.198  0.00  0.00    +0.000 Cl
ATOM     11  C   UNL     1      -4.710  12.937  23.951  0.00  0.00    +0.000 A 
ATOM     12  C   UNL     1      -3.506  12.238  23.826  0.00  0.00    +0.000 A 
ATOM     13  C   UNL     1      -2.797  12.311  22.625  0.00  0.00    +0.000 A 
ATOM     14  C   UNL     1      -1.387  11.834  22.493  0.00  0.00    +0.000 A 
ATOM     15  O   UNL     1      -0.751  11.520  23.503  0.00  0.00    +0.000 OA
ATOM     16  C   UNL     1      -0.840  11.655  21.118  0.00  0.00    +0.000 A 
ATOM     17  C   UNL     1       0.534  11.202  20.758  0.00  0.00    +0.000 A 
ATOM     18  O   UNL     1       1.532  11.596  21.347  0.00  0.00    +0.000 OA
ATOM     19  H   UNL     1      -1.090   9.285  19.594  0.00  0.00    +0.000 HD
ATOM     20  H   UNL     1      -3.474  12.613  19.423  0.00  0.00    +0.000 HD
ENDROOT
BRANCH   1  22
ATOM     21  C   UNL     1       1.785   9.743  17.587  0.00  0.00    +0.000 C 
ATOM     22  C   UNL     1       1.691   9.615  19.110  0.00  0.00    +0.000 C 
BRANCH  22  23
ATOM     23  C   UNL     1       1.830   8.167  19.546  0.00  0.00    +0.000 A 
ATOM     24  C   UNL     1       1.395   7.693  20.779  0.00  0.00    +0.000 A 
ATOM     25  C   UNL     1       1.483   6.325  21.037  0.00  0.00    +0.000 A 
ATOM     26  C   UNL     1       2.043   5.476  20.089  0.00  0.00    +0.000 A 
ATOM     27  C   UNL     1       2.564   6.040  18.944  0.00  0.00    +0.000 A 
ATOM     28  N   UNL     1       2.490   7.356  18.669  0.00  0.00    +0.000 NA
ENDBRANCH  22  23
ENDBRANCH   1  22
TORSDOF 2
ENDMDL
MODEL 8
REMARK VINA RESULT:      -6.8      3.499      7.789
REMARK  Name = 
REMARK  3 active torsions:
REMARK  status: ('A' for Active; 'I' for Inactive)
REMARK    1  A    between atoms: C_1  and  C_2
REMARK    2  A    between atoms: C_2  and  C_3
REMARK    3  A    between atoms: C_2  and  N_9
REMARK                            x       y       z     vdW  Elec       q    Type
REMARK                         _______ _______ _______ _____ _____    ______ ____
ROOT
ATOM      1  N   UNL     1       2.045   7.665  19.170  0.00  0.00    +0.000 N 
ATOM      2  N   UNL     1       2.044   7.847  20.582  0.00  0.00    +0.000 N 
ATOM      3  C   UNL     1       0.957   8.583  21.015  0.00  0.00    +0.000 A 
ATOM      4  O   UNL     1       0.331   8.366  22.048  0.00  0.00    +0.000 OA
ATOM      5  C   UNL     1       0.805   9.871  20.262  0.00  0.00    +0.000 A 
ATOM      6  N   UNL     1       0.122  10.887  20.896  0.00  0.00    +0.000 N 
ATOM      7  C   UNL     1       0.451  12.214  20.617  0.00  0.00    +0.000 A 
ATOM      8  C   UNL     1      -0.266  13.270  21.173  0.00  0.00    +0.000 A 
ATOM      9  C   UNL     1       0.170  14.574  20.960  0.00  0.00    +0.000 A 
ATOM     10 CL   UNL     1      -0.845  15.892  21.394  0.00  0.00    +0.000 Cl
ATOM     11  C   UNL     1       1.386  14.815  20.323  0.00  0.00    +0.000 A 
ATOM     12  C   UNL     1       2.018  13.771  19.640  0.00  0.00    +0.000 A 
ATOM     13  C   UNL     1       1.463  12.491  19.688  0.00  0.00    +0.000 A 
ATOM     14  C   UNL     1       1.904  11.390  18.778  0.00  0.00    +0.000 A 
ATOM     15  O   UNL     1       2.658  11.641  17.834  0.00  0.00    +0.000 OA
ATOM     16  C   UNL     1       1.491   9.999  19.122  0.00  0.00    +0.000 A 
ATOM     17  C   UNL     1       1.808   8.761  18.354  0.00  0.00    +0.000 A 
ATOM     18  O   UNL     1       1.760   8.714  17.132  0.00  0.00    +0.000 OA
ATOM     19  H   UNL     1       2.942   8.277  20.833  0.00  0.00    +0.000 HD
ATOM     20  H   UNL     1      -0.239  10.662  21.823  0.00  0.00    +0.000 HD
ENDROOT
BRANCH   1  22
ATOM     21  C   UNL     1       2.136   5.269  19.771  0.00  0.00    +0.000 C 
ATOM     22  C   UNL     1       2.571   6.350  18.777  0.00  0.00    +0.000 C 
BRANCH  22  23
ATOM     23  C   UNL     1       4.052   6.235  18.458  0.00  0.00    +0.000 A 
ATOM     24  C   UNL     1       4.641   6.809  17.337  0.00  0.00    +0.000 A 
ATOM     25  C   UNL     1       6.026   6.725  17.193  0.00  0.00    +0.000 A 
ATOM     26  C   UNL     1       6.779   6.033  18.136  0.00  0.00    +0.000 A 
ATOM     27  C   UNL     1       6.107   5.386  19.151  0.00  0.00    +0.000 A 
ATOM     28  N   UNL     1       4.772   5.453  19.314  0.00  0.00    +0.000 NA
ENDBRANCH  22  23
ENDBRANCH   1  22
TORSDOF 2
ENDMDL
MODEL 9
REMARK VINA RESULT:      -6.7      8.657     11.761
REMARK  Name = 
REMARK  3 active torsions:
REMARK  status: ('A' for Active; 'I' for Inactive)
REMARK    1  A    between atoms: C_1  and  C_2
REMARK    2  A    between atoms: C_2  and  C_3
REMARK    3  A    between atoms: C_2  and  N_9
REMARK                            x       y       z     vdW  Elec       q    Type
REMARK                         _______ _______ _______ _____ _____    ______ ____
ROOT
ATOM      1  N   UNL     1       8.817  15.694  18.245  0.00  0.00    +0.000 N 
ATOM      2  N   UNL     1       8.255  14.407  18.479  0.00  0.00    +0.000 N 
ATOM      3  C   UNL     1       7.094  14.203  17.756  0.00  0.00    +0.000 A 
ATOM      4  O   UNL     1       6.777  13.143  17.226  0.00  0.00    +0.000 OA
ATOM      5  C   UNL     1       6.104  15.313  17.943  0.00  0.00    +0.000 A 
ATOM      6  N   UNL     1       4.778  15.011  17.715  0.00  0.00    +0.000 N 
ATOM      7  C   UNL     1       3.788  15.692  18.425  0.00  0.00    +0.000 A 
ATOM      8  C   UNL     1       2.436  15.476  18.168  0.00  0.00    +0.000 A 
ATOM      9  C   UNL     1       1.485  16.088  18.978  0.00  0.00    +0.000 A 
ATOM     10 CL   UNL     1      -0.170  16.063  18.513  0.00  0.00    +0.000 Cl
ATOM     11  C   UNL     1       1.876  16.790  20.117  0.00  0.00    +0.000 A 
ATOM     12  C   UNL     1       3.222  17.129  20.282  0.00  0.00    +0.000 A 
ATOM     13  C   UNL     1       4.157  16.679  19.348  0.00  0.00    +0.000 A 
ATOM     14  C   UNL     1       5.552  17.212  19.287  0.00  0.00    +0.000 A 
ATOM     15  O   UNL     1       5.859  18.202  19.958  0.00  0.00    +0.000 OA
ATOM     16  C   UNL     1       6.553  16.450  18.486  0.00  0.00    +0.000 A 
ATOM     17  C   UNL     1       7.987  16.804  18.282  0.00  0.00    +0.000 A 
ATOM     18  O   UNL     1       8.357  17.951  18.071  0.00  0.00    +0.000 OA
ATOM     19  H   UNL     1       8.114  14.317  19.492  0.00  0.00    +0.000 HD
ATOM     20  H   UNL     1       4.591  14.054  17.418  0.00  0.00    +0.000 HD
ENDROOT
BRANCH   1  22
ATOM     21  C   UNL     1      10.854  16.382  17.025  0.00  0.00    +0.000 C 
ATOM     22  C   UNL     1      10.286  15.672  18.258  0.00  0.00    +0.000 C 
BRANCH  22  23
ATOM     23  C   UNL     1      10.983  14.343  18.492  0.00  0.00    +0.000 A 
ATOM     24  C   UNL     1      11.744  14.065  19.622  0.00  0.00    +0.000 A 
ATOM     25  C   UNL     1      12.258  12.778  19.782  0.00  0.00    +0.000 A 
ATOM     26  C   UNL     1      12.046  11.821  18.795  0.00  0.00    +0.000 A 
ATOM     27  C   UNL     1      11.389  12.210  17.647  0.00  0.00    +0.000 A 
ATOM     28  N   UNL     1      10.881  13.444  17.470  0.00  0.00    +0.000 NA
ENDBRANCH  22  23
ENDBRANCH   1  22
TORSDOF 2
ENDMDL
