MODEL 1
REMARK VINA RESULT:      -6.7      0.000      0.000
REMARK  Name = 
REMARK  2 active torsions:
REMARK  status: ('A' for Active; 'I' for Inactive)
REMARK    1  A    between atoms: C_1  and  C_2
REMARK    2  A    between atoms: C_5  and  C_6
REMARK                            x       y       z     vdW  Elec       q    Type
REMARK                         _______ _______ _______ _____ _____    ______ ____
ROOT
ATOM      1  C   UNL     1       4.321   3.893  17.615  0.00  0.00    +0.000 A 
ATOM      2  C   UNL     1       2.925   4.162  17.634  0.00  0.00    +0.000 A 
ATOM      3  C   UNL     1       2.469   3.724  18.858  0.00  0.00    +0.000 A 
ATOM      4  N   UNL     1       3.562   3.227  19.487  0.00  0.00    +0.000 N 
ATOM      5  N   UNL     1       4.694   3.306  18.768  0.00  0.00    +0.000 NA
ATOM      6  C   UNL     1       3.599   2.642  20.802  0.00  0.00    +0.000 C 
ATOM      7  C   UNL     1       2.276   2.633  21.560  0.00  0.00    +0.000 C 
ATOM      8  C   UNL     1       1.026   3.191  20.878  0.00  0.00    +0.000 C 
ATOM      9  C   UNL     1       1.119   3.734  19.456  0.00  0.00    +0.000 C 
ENDROOT
BRANCH   1  14
ATOM     10  C   UNL     1       7.798   5.161  13.256  0.00  0.00    +0.000 C 
ATOM     11  C   UNL     1       6.940   4.820  14.433  0.00  0.00    +0.000 A 
ATOM     12  C   UNL     1       7.403   4.944  15.741  0.00  0.00    +0.000 A 
ATOM     13  C   UNL     1       6.557   4.632  16.803  0.00  0.00    +0.000 A 
ATOM     14  C   UNL     1       5.262   4.199  16.530  0.00  0.00    +0.000 A 
ATOM     15  N   UNL     1       4.794   4.055  15.263  0.00  0.00    +0.000 NA
ATOM     16  C   UNL     1       5.638   4.367  14.255  0.00  0.00    +0.000 A 
ENDBRANCH   1  14
TORSDOF 1
ENDMDL
MODEL 2
REMARK VINA RESULT:      -6.6      0.674      1.199
REMARK  Name = 
REMARK  2 active torsions:
REMARK  status: ('A' for Active; 'I' for Inactive)
REMARK    1  A    between atoms: C_1  and  C_2
REMARK    2  A    between atoms: C_5  and  C_6
REMARK                            x       y       z     vdW  Elec       q    Type
REMARK                         _______ _______ _______ _____ _____    ______ ____
ROOT
ATOM      1  C   UNL     1       4.242   3.961  17.561  0.00  0.00    +0.000 A 
ATOM      2  C   UNL     1       2.850   4.238  17.651  0.00  0.00    +0.000 A 
ATOM      3  C   UNL     1       2.450   3.774  18.884  0.00  0.00    +0.000 A 
ATOM      4  N   UNL     1       3.568   3.256  19.451  0.00  0.00    +0.000 N 
ATOM      5  N   UNL     1       4.665   3.346  18.682  0.00  0.00    +0.000 NA
ATOM      6  C   UNL     1       3.662   2.642  20.749  0.00  0.00    +0.000 C 
ATOM      7  C   UNL     1       2.375   2.622  21.567  0.00  0.00    +0.000 C 
ATOM      8  C   UNL     1       1.098   3.203  20.958  0.00  0.00    +0.000 C 
ATOM      9  C   UNL     1       1.129   3.777  19.545  0.00  0.00    +0.000 C 
ENDROOT
BRANCH   1  14
ATOM     10  C   UNL     1       7.902   5.194  13.344  0.00  0.00    +0.000 C 
ATOM     11  C   UNL     1       6.898   4.871  14.403  0.00  0.00    +0.000 A 
ATOM     12  C   UNL     1       5.677   4.271  14.102  0.00  0.00    +0.000 A 
ATOM     13  C   UNL     1       4.784   3.974  15.129  0.00  0.00    +0.000 A 
ATOM     14  C   UNL     1       5.133   4.287  16.440  0.00  0.00    +0.000 A 
ATOM     15  N   UNL     1       6.311   4.887  16.757  0.00  0.00    +0.000 NA
ATOM     16  C   UNL     1       7.156   5.161  15.739  0.00  0.00    +0.000 A 
ENDBRANCH   1  14
TORSDOF 1
ENDMDL
MODEL 3
REMARK VINA RESULT:      -6.5      4.150      4.658
REMARK  Name = 
REMARK  2 active torsions:
REMARK  status: ('A' for Active; 'I' for Inactive)
REMARK    1  A    between atoms: C_1  and  C_2
REMARK    2  A    between atoms: C_5  and  C_6
REMARK                            x       y       z     vdW  Elec       q    Type
REMARK                         _______ _______ _______ _____ _____    ______ ____
ROOT
ATOM      1  C   UNL     1       2.828   7.297  18.289  0.00  0.00    +0.000 A 
ATOM      2  C   UNL     1       2.243   8.512  17.837  0.00  0.00    +0.000 A 
ATOM      3  C   UNL     1       1.528   9.008  18.904  0.00  0.00    +0.000 A 
ATOM      4  N   UNL     1       1.701   8.105  19.901  0.00  0.00    +0.000 N 
ATOM      5  N   UNL     1       2.474   7.059  19.566  0.00  0.00    +0.000 NA
ATOM      6  C   UNL     1       1.142   8.176  21.225  0.00  0.00    +0.000 C 
ATOM      7  C   UNL     1       0.313   9.420  21.528  0.00  0.00    +0.000 C 
ATOM      8  C   UNL     1       0.102  10.459  20.426  0.00  0.00    +0.000 C 
ATOM      9  C   UNL     1       0.711  10.230  19.046  0.00  0.00    +0.000 C 
ENDROOT
BRANCH   1  14
ATOM     10  C   UNL     1       6.059   3.661  15.282  0.00  0.00    +0.000 C 
ATOM     11  C   UNL     1       5.261   4.656  16.062  0.00  0.00    +0.000 A 
ATOM     12  C   UNL     1       5.473   6.027  15.941  0.00  0.00    +0.000 A 
ATOM     13  C   UNL     1       4.688   6.914  16.676  0.00  0.00    +0.000 A 
ATOM     14  C   UNL     1       3.705   6.403  17.521  0.00  0.00    +0.000 A 
ATOM     15  N   UNL     1       3.491   5.070  17.667  0.00  0.00    +0.000 NA
ATOM     16  C   UNL     1       4.267   4.237  16.940  0.00  0.00    +0.000 A 
ENDBRANCH   1  14
TORSDOF 1
ENDMDL
MODEL 4
REMARK VINA RESULT:      -6.4      0.863      1.529
REMARK  Name = 
REMARK  2 active torsions:
REMARK  status: ('A' for Active; 'I' for Inactive)
REMARK    1  A    between atoms: C_1  and  C_2
REMARK    2  A    between atoms: C_5  and  C_6
REMARK                            x       y       z     vdW  Elec       q    Type
REMARK                         _______ _______ _______ _____ _____    ______ ____
ROOT
ATOM      1  C   UNL     1       4.361   3.885  17.610  0.00  0.00    +0.000 A 
ATOM      2  C   UNL     1       4.696   3.402  18.905  0.00  0.00    +0.000 A 
ATOM      3  C   UNL     1       3.501   3.247  19.573  0.00  0.00    +0.000 A 
ATOM      4  N   UNL     1       2.546   3.634  18.691  0.00  0.00    +0.000 N 
ATOM      5  N   UNL     1       3.027   4.029  17.500  0.00  0.00    +0.000 NA
ATOM      6  C   UNL     1       1.126   3.657  18.924  0.00  0.00    +0.000 C 
ATOM      7  C   UNL     1       0.671   3.152  20.288  0.00  0.00    +0.000 C 
ATOM      8  C   UNL     1       1.723   2.704  21.304  0.00  0.00    +0.000 C 
ATOM      9  C   UNL     1       3.203   2.782  20.942  0.00  0.00    +0.000 C 
ENDROOT
BRANCH   1  14
ATOM     10  C   UNL     1       7.799   5.128  13.214  0.00  0.00    +0.000 C 
ATOM     11  C   UNL     1       6.953   4.795  14.399  0.00  0.00    +0.000 A 
ATOM     12  C   UNL     1       7.424   4.936  15.703  0.00  0.00    +0.000 A 
ATOM     13  C   UNL     1       6.587   4.629  16.775  0.00  0.00    +0.000 A 
ATOM     14  C   UNL     1       5.293   4.185  16.515  0.00  0.00    +0.000 A 
ATOM     15  N   UNL     1       4.817   4.025  15.253  0.00  0.00    +0.000 NA
ATOM     16  C   UNL     1       5.652   4.332  14.235  0.00  0.00    +0.000 A 
ENDBRANCH   1  14
TORSDOF 1
ENDMDL
MODEL 5
REMARK VINA RESULT:      -6.4      4.247      4.863
REMARK  Name = 
REMARK  2 active torsions:
REMARK  status: ('A' for Active; 'I' for Inactive)
REMARK    1  A    between atoms: C_1  and  C_2
REMARK    2  A    between atoms: C_5  and  C_6
REMARK                            x       y       z     vdW  Elec       q    Type
REMARK                         _______ _______ _______ _____ _____    ______ ____
ROOT
ATOM      1  C   UNL     1       2.645   7.325  18.431  0.00  0.00    +0.000 A 
ATOM      2  C   UNL     1       2.042   8.516  17.940  0.00  0.00    +0.000 A 
ATOM      3  C   UNL     1       1.394   9.084  19.014  0.00  0.00    +0.000 A 
ATOM      4  N   UNL     1       1.620   8.244  20.053  0.00  0.00    +0.000 N 
ATOM      5  N   UNL     1       2.365   7.170  19.740  0.00  0.00    +0.000 NA
ATOM      6  C   UNL     1       1.141   8.402  21.401  0.00  0.00    +0.000 C 
ATOM      7  C   UNL     1       0.339   9.671  21.673  0.00  0.00    +0.000 C 
ATOM      8  C   UNL     1       0.071  10.641  20.523  0.00  0.00    +0.000 C 
ATOM      9  C   UNL     1       0.596  10.321  19.126  0.00  0.00    +0.000 C 
ENDROOT
BRANCH   1  14
ATOM     10  C   UNL     1       6.045   3.780  15.504  0.00  0.00    +0.000 C 
ATOM     11  C   UNL     1       5.111   4.662  16.268  0.00  0.00    +0.000 A 
ATOM     12  C   UNL     1       4.049   4.144  17.006  0.00  0.00    +0.000 A 
ATOM     13  C   UNL     1       3.218   5.008  17.717  0.00  0.00    +0.000 A 
ATOM     14  C   UNL     1       3.469   6.377  17.671  0.00  0.00    +0.000 A 
ATOM     15  N   UNL     1       4.489   6.906  16.945  0.00  0.00    +0.000 NA
ATOM     16  C   UNL     1       5.277   6.043  16.268  0.00  0.00    +0.000 A 
ENDBRANCH   1  14
TORSDOF 1
ENDMDL
MODEL 6
REMARK VINA RESULT:      -6.4      1.038      1.095
REMARK  Name = 
REMARK  2 active torsions:
REMARK  status: ('A' for Active; 'I' for Inactive)
REMARK    1  A    between atoms: C_1  and  C_2
REMARK    2  A    between atoms: C_5  and  C_6
REMARK                            x       y       z     vdW  Elec       q    Type
REMARK                         _______ _______ _______ _____ _____    ______ ____
ROOT
ATOM      1  C   UNL     1       4.404   4.153  17.434  0.00  0.00    +0.000 A 
ATOM      2  C   UNL     1       4.064   5.089  18.450  0.00  0.00    +0.000 A 
ATOM      3  C   UNL     1       3.186   4.439  19.287  0.00  0.00    +0.000 A 
ATOM      4  N   UNL     1       3.038   3.200  18.757  0.00  0.00    +0.000 N 
ATOM      5  N   UNL     1       3.752   2.993  17.638  0.00  0.00    +0.000 NA
ATOM      6  C   UNL     1       2.209   2.143  19.273  0.00  0.00    +0.000 C 
ATOM      7  C   UNL     1       1.469   2.455  20.569  0.00  0.00    +0.000 C 
ATOM      8  C   UNL     1       1.618   3.842  21.195  0.00  0.00    +0.000 C 
ATOM      9  C   UNL     1       2.491   4.889  20.510  0.00  0.00    +0.000 C 
ENDROOT
BRANCH   1  14
ATOM     10  C   UNL     1       7.824   5.042  12.939  0.00  0.00    +0.000 C 
ATOM     11  C   UNL     1       6.982   4.805  14.151  0.00  0.00    +0.000 A 
ATOM     12  C   UNL     1       7.456   5.056  15.437  0.00  0.00    +0.000 A 
ATOM     13  C   UNL     1       6.624   4.836  16.533  0.00  0.00    +0.000 A 
ATOM     14  C   UNL     1       5.331   4.366  16.315  0.00  0.00    +0.000 A 
ATOM     15  N   UNL     1       4.853   4.098  15.072  0.00  0.00    +0.000 NA
ATOM     16  C   UNL     1       5.683   4.323  14.030  0.00  0.00    +0.000 A 
ENDBRANCH   1  14
TORSDOF 1
ENDMDL
MODEL 7
REMARK VINA RESULT:      -6.4      1.051      1.109
REMARK  Name = 
REMARK  2 active torsions:
REMARK  status: ('A' for Active; 'I' for Inactive)
REMARK    1  A    between atoms: C_1  and  C_2
REMARK    2  A    between atoms: C_5  and  C_6
REMARK                            x       y       z     vdW  Elec       q    Type
REMARK                         _______ _______ _______ _____ _____    ______ ____
ROOT
ATOM      1  C   UNL     1       4.435   3.953  17.355  0.00  0.00    +0.000 A 
ATOM      2  C   UNL     1       3.643   2.781  17.505  0.00  0.00    +0.000 A 
ATOM      3  C   UNL     1       2.907   2.965  18.654  0.00  0.00    +0.000 A 
ATOM      4  N   UNL     1       3.279   4.181  19.126  0.00  0.00    +0.000 N 
ATOM      5  N   UNL     1       4.200   4.803  18.372  0.00  0.00    +0.000 NA
ATOM      6  C   UNL     1       2.789   4.822  20.317  0.00  0.00    +0.000 C 
ATOM      7  C   UNL     1       1.714   4.059  21.085  0.00  0.00    +0.000 C 
ATOM      8  C   UNL     1       1.270   2.687  20.577  0.00  0.00    +0.000 C 
ATOM      9  C   UNL     1       1.914   2.101  19.324  0.00  0.00    +0.000 C 
ENDROOT
BRANCH   1  14
ATOM     10  C   UNL     1       7.903   5.157  12.971  0.00  0.00    +0.000 C 
ATOM     11  C   UNL     1       7.048   4.838  14.154  0.00  0.00    +0.000 A 
ATOM     12  C   UNL     1       7.488   5.049  15.459  0.00  0.00    +0.000 A 
ATOM     13  C   UNL     1       6.645   4.752  16.528  0.00  0.00    +0.000 A 
ATOM     14  C   UNL     1       5.374   4.247  16.265  0.00  0.00    +0.000 A 
ATOM     15  N   UNL     1       4.928   4.018  15.002  0.00  0.00    +0.000 NA
ATOM     16  C   UNL     1       5.769   4.317  13.987  0.00  0.00    +0.000 A 
ENDBRANCH   1  14
TORSDOF 1
ENDMDL
MODEL 8
REMARK VINA RESULT:      -6.4      1.045      1.937
REMARK  Name = 
REMARK  2 active torsions:
REMARK  status: ('A' for Active; 'I' for Inactive)
REMARK    1  A    between atoms: C_1  and  C_2
REMARK    2  A    between atoms: C_5  and  C_6
REMARK                            x       y       z     vdW  Elec       q    Type
REMARK                         _______ _______ _______ _____ _____    ______ ____
ROOT
ATOM      1  C   UNL     1       4.351   3.938  17.647  0.00  0.00    +0.000 A 
ATOM      2  C   UNL     1       4.766   3.376  18.886  0.00  0.00    +0.000 A 
ATOM      3  C   UNL     1       3.623   3.235  19.641  0.00  0.00    +0.000 A 
ATOM      4  N   UNL     1       2.619   3.703  18.859  0.00  0.00    +0.000 N 
ATOM      5  N   UNL     1       3.020   4.140  17.653  0.00  0.00    +0.000 NA
ATOM      6  C   UNL     1       1.224   3.771  19.208  0.00  0.00    +0.000 C 
ATOM      7  C   UNL     1       0.857   3.215  20.579  0.00  0.00    +0.000 C 
ATOM      8  C   UNL     1       1.966   2.675  21.483  0.00  0.00    +0.000 C 
ATOM      9  C   UNL     1       3.414   2.712  21.006  0.00  0.00    +0.000 C 
ENDROOT
BRANCH   1  14
ATOM     10  C   UNL     1       7.869   5.119  13.297  0.00  0.00    +0.000 C 
ATOM     11  C   UNL     1       6.900   4.817  14.394  0.00  0.00    +0.000 A 
ATOM     12  C   UNL     1       5.619   4.336  14.132  0.00  0.00    +0.000 A 
ATOM     13  C   UNL     1       4.760   4.052  15.192  0.00  0.00    +0.000 A 
ATOM     14  C   UNL     1       5.205   4.257  16.496  0.00  0.00    +0.000 A 
ATOM     15  N   UNL     1       6.444   4.739  16.775  0.00  0.00    +0.000 NA
ATOM     16  C   UNL     1       7.253   5.005  15.726  0.00  0.00    +0.000 A 
ENDBRANCH   1  14
TORSDOF 1
ENDMDL
MODEL 9
REMARK VINA RESULT:      -6.4      4.246      4.945
REMARK  Name = 
REMARK  2 active torsions:
REMARK  status: ('A' for Active; 'I' for Inactive)
REMARK    1  A    between atoms: C_1  and  C_2
REMARK    2  A    between atoms: C_5  and  C_6
REMARK                            x       y       z     vdW  Elec       q    Type
REMARK                         _______ _______ _______ _____ _____    ______ ____
ROOT
ATOM      1  C   UNL     1       2.724   7.210  18.493  0.00  0.00    +0.000 A 
ATOM      2  C   UNL     1       2.329   7.008  19.844  0.00  0.00    +0.000 A 
ATOM      3  C   UNL     1       1.559   8.098  20.182  0.00  0.00    +0.000 A 
ATOM      4  N   UNL     1       1.533   8.875  19.070  0.00  0.00    +0.000 N 
ATOM      5  N   UNL     1       2.227   8.375  18.035  0.00  0.00    +0.000 NA
ATOM      6  C   UNL     1       0.855  10.136  18.925  0.00  0.00    +0.000 C 
ATOM      7  C   UNL     1       0.058  10.604  20.138  0.00  0.00    +0.000 C 
ATOM      8  C   UNL     1       0.064   9.748  21.405  0.00  0.00    +0.000 C 
ATOM      9  C   UNL     1       0.872   8.454  21.440  0.00  0.00    +0.000 C 
ENDROOT
BRANCH   1  14
ATOM     10  C   UNL     1       6.090   3.849  15.320  0.00  0.00    +0.000 C 
ATOM     11  C   UNL     1       5.166   4.681  16.149  0.00  0.00    +0.000 A 
ATOM     12  C   UNL     1       4.154   4.112  16.919  0.00  0.00    +0.000 A 
ATOM     13  C   UNL     1       3.331   4.931  17.690  0.00  0.00    +0.000 A 
ATOM     14  C   UNL     1       3.540   6.308  17.670  0.00  0.00    +0.000 A 
ATOM     15  N   UNL     1       4.510   6.887  16.916  0.00  0.00    +0.000 NA
ATOM     16  C   UNL     1       5.292   6.066  16.181  0.00  0.00    +0.000 A 
ENDBRANCH   1  14
TORSDOF 1
ENDMDL
