MODEL 1
REMARK VINA RESULT:      -8.2      0.000      0.000
REMARK  Name = 
REMARK  10 active torsions:
REMARK  status: ('A' for Active; 'I' for Inactive)
REMARK    1  A    between atoms: C_1  and  C_2
REMARK    2  A    between atoms: C_6  and  N_7
REMARK    3  A    between atoms: C_11  and  C_12
REMARK    4  A    between atoms: C_15  and  C_16
REMARK    5  A    between atoms: C_16  and  N_17
REMARK    6  A    between atoms: N_17  and  C_18
REMARK    7  A    between atoms: N_17  and  S_22
REMARK    8  A    between atoms: C_18  and  C_19
REMARK    9  A    between atoms: C_19  and  C_20
REMARK   10  A    between atoms: S_22  and  C_23
REMARK                            x       y       z     vdW  Elec       q    Type
REMARK                         _______ _______ _______ _____ _____    ______ ____
ROOT
ATOM      1  N   UNL     1      -0.044  11.246  20.312  0.00  0.00    +0.000 N 
ATOM      2  C   UNL     1       0.743  10.187  20.796  0.00  0.00    +0.000 C 
ATOM      3  O   UNL     1       0.957   9.975  21.992  0.00  0.00    +0.000 OA
ATOM      4  C   UNL     1       1.286   9.245  19.774  0.00  0.00    +0.000 C 
ATOM      5  C   UNL     1       1.910   8.146  20.245  0.00  0.00    +0.000 C 
ATOM      6  C   UNL     1       1.087   9.519  18.342  0.00  0.00    +0.000 C 
ATOM      7  O   UNL     1       1.650   8.926  17.431  0.00  0.00    +0.000 OA
ATOM      8  N   UNL     1       0.222  10.540  18.078  0.00  0.00    +0.000 N 
ATOM      9  C   UNL     1      -0.333  11.439  18.954  0.00  0.00    +0.000 C 
ATOM     10  S   UNL     1      -1.211  12.678  18.231  0.00  0.00    +0.000 S 
ATOM     11  H   UNL     1       0.092  10.736  17.091  0.00  0.00    +0.000 HD
ENDROOT
BRANCH   1  17
ATOM     12  C   UNL     1      -3.682  12.733  23.385  0.00  0.00    +0.000 C 
ATOM     13  C   UNL     1      -2.310  12.922  22.807  0.00  0.00    +0.000 A 
ATOM     14  C   UNL     1      -1.522  14.020  23.166  0.00  0.00    +0.000 A 
ATOM     15  C   UNL     1      -0.248  14.180  22.624  0.00  0.00    +0.000 A 
ATOM     16  C   UNL     1       0.245  13.252  21.705  0.00  0.00    +0.000 A 
ATOM     17  C   UNL     1      -0.542  12.164  21.304  0.00  0.00    +0.000 A 
ATOM     18  C   UNL     1      -1.810  11.995  21.880  0.00  0.00    +0.000 A 
ENDBRANCH   1  17
BRANCH   5  19
ATOM     19  C   UNL     1       2.392   7.075  19.450  0.00  0.00    +0.000 A 
ATOM     20  C   UNL     1       1.994   5.744  19.473  0.00  0.00    +0.000 A 
ATOM     21  C   UNL     1       2.869   5.015  18.640  0.00  0.00    +0.000 A 
ATOM     22  C   UNL     1       3.677   5.949  18.035  0.00  0.00    +0.000 A 
ATOM     23  O   UNL     1       3.424   7.188  18.544  0.00  0.00    +0.000 OA
BRANCH  22  24
ATOM     24  C   UNL     1       4.655   5.847  16.919  0.00  0.00    +0.000 C 
BRANCH  24  25
ATOM     25  N   UNL     1       5.553   4.678  17.173  0.00  0.00    +0.000 NA
BRANCH  25  26
ATOM     26  S   UNL     1       7.026   5.042  17.934  0.00  0.00    +0.000 S 
ATOM     27  C   UNL     1       7.300   6.744  17.483  0.00  0.00    +0.000 C 
ATOM     28  O   UNL     1       6.808   4.995  19.361  0.00  0.00    +0.000 OA
ATOM     29  O   UNL     1       8.043   4.219  17.307  0.00  0.00    +0.000 OA
ENDBRANCH  25  26
BRANCH  25  30
ATOM     30  C   UNL     1       5.665   3.723  16.009  0.00  0.00    +0.000 C 
BRANCH  30  31
ATOM     31  C   UNL     1       5.523   4.407  14.659  0.00  0.00    +0.000 C 
BRANCH  31  32
ATOM     32  C   UNL     1       6.865   4.928  14.173  0.00  0.00    +0.000 C 
ATOM     33  N   UNL     1       7.980   5.360  13.770  0.00  0.00    +0.000 NA
ENDBRANCH  31  32
ENDBRANCH  30  31
ENDBRANCH  25  30
ENDBRANCH  24  25
ENDBRANCH  22  24
ENDBRANCH   5  19
TORSDOF 8
ENDMDL
MODEL 2
REMARK VINA RESULT:      -7.6      2.314      3.184
REMARK  Name = 
REMARK  10 active torsions:
REMARK  status: ('A' for Active; 'I' for Inactive)
REMARK    1  A    between atoms: C_1  and  C_2
REMARK    2  A    between atoms: C_6  and  N_7
REMARK    3  A    between atoms: C_11  and  C_12
REMARK    4  A    between atoms: C_15  and  C_16
REMARK    5  A    between atoms: C_16  and  N_17
REMARK    6  A    between atoms: N_17  and  C_18
REMARK    7  A    between atoms: N_17  and  S_22
REMARK    8  A    between atoms: C_18  and  C_19
REMARK    9  A    between atoms: C_19  and  C_20
REMARK   10  A    between atoms: S_22  and  C_23
REMARK                            x       y       z     vdW  Elec       q    Type
REMARK                         _______ _______ _______ _____ _____    ______ ____
ROOT
ATOM      1  N   UNL     1       0.852   9.780  20.484  0.00  0.00    +0.000 N 
ATOM      2  C   UNL     1       1.188   9.184  19.256  0.00  0.00    +0.000 C 
ATOM      3  O   UNL     1       1.200   9.781  18.178  0.00  0.00    +0.000 OA
ATOM      4  C   UNL     1       1.611   7.753  19.308  0.00  0.00    +0.000 C 
ATOM      5  C   UNL     1       2.078   7.225  18.160  0.00  0.00    +0.000 C 
ATOM      6  C   UNL     1       1.546   7.013  20.578  0.00  0.00    +0.000 C 
ATOM      7  O   UNL     1       1.679   5.802  20.691  0.00  0.00    +0.000 OA
ATOM      8  N   UNL     1       1.284   7.788  21.671  0.00  0.00    +0.000 N 
ATOM      9  C   UNL     1       0.905   9.107  21.712  0.00  0.00    +0.000 C 
ATOM     10  S   UNL     1       0.489   9.672  23.241  0.00  0.00    +0.000 S 
ATOM     11  H   UNL     1       1.229   7.277  22.545  0.00  0.00    +0.000 HD
ENDROOT
BRANCH   1  17
ATOM     12  C   UNL     1      -2.817  13.152  20.259  0.00  0.00    +0.000 C 
ATOM     13  C   UNL     1      -1.353  12.824  20.296  0.00  0.00    +0.000 A 
ATOM     14  C   UNL     1      -0.387  13.831  20.201  0.00  0.00    +0.000 A 
ATOM     15  C   UNL     1       0.970  13.511  20.240  0.00  0.00    +0.000 A 
ATOM     16  C   UNL     1       1.373  12.181  20.359  0.00  0.00    +0.000 A 
ATOM     17  C   UNL     1       0.421  11.153  20.420  0.00  0.00    +0.000 A 
ATOM     18  C   UNL     1      -0.940  11.488  20.411  0.00  0.00    +0.000 A 
ENDBRANCH   1  17
BRANCH   5  19
ATOM     19  C   UNL     1       2.636   5.929  18.022  0.00  0.00    +0.000 A 
ATOM     20  C   UNL     1       1.971   4.730  17.796  0.00  0.00    +0.000 A 
ATOM     21  C   UNL     1       2.911   3.683  17.910  0.00  0.00    +0.000 A 
ATOM     22  C   UNL     1       4.135   4.294  18.063  0.00  0.00    +0.000 A 
ATOM     23  O   UNL     1       3.975   5.644  18.170  0.00  0.00    +0.000 OA
BRANCH  22  24
ATOM     24  C   UNL     1       5.524   3.762  18.038  0.00  0.00    +0.000 C 
BRANCH  24  25
ATOM     25  N   UNL     1       6.417   4.784  17.410  0.00  0.00    +0.000 NA
BRANCH  25  26
ATOM     26  S   UNL     1       6.485   4.748  15.713  0.00  0.00    +0.000 S 
ATOM     27  C   UNL     1       5.360   6.045  15.240  0.00  0.00    +0.000 C 
ATOM     28  O   UNL     1       7.815   5.152  15.317  0.00  0.00    +0.000 OA
ATOM     29  O   UNL     1       5.937   3.472  15.295  0.00  0.00    +0.000 OA
ENDBRANCH  25  26
BRANCH  25  30
ATOM     30  C   UNL     1       7.756   4.934  18.091  0.00  0.00    +0.000 C 
BRANCH  30  31
ATOM     31  C   UNL     1       7.867   6.207  18.915  0.00  0.00    +0.000 C 
BRANCH  31  32
ATOM     32  C   UNL     1       7.803   7.436  18.023  0.00  0.00    +0.000 C 
ATOM     33  N   UNL     1       7.749   8.456  17.284  0.00  0.00    +0.000 NA
ENDBRANCH  31  32
ENDBRANCH  30  31
ENDBRANCH  25  30
ENDBRANCH  24  25
ENDBRANCH  22  24
ENDBRANCH   5  19
TORSDOF 8
ENDMDL
MODEL 3
REMARK VINA RESULT:      -7.5      1.711      2.291
REMARK  Name = 
REMARK  10 active torsions:
REMARK  status: ('A' for Active; 'I' for Inactive)
REMARK    1  A    between atoms: C_1  and  C_2
REMARK    2  A    between atoms: C_6  and  N_7
REMARK    3  A    between atoms: C_11  and  C_12
REMARK    4  A    between atoms: C_15  and  C_16
REMARK    5  A    between atoms: C_16  and  N_17
REMARK    6  A    between atoms: N_17  and  C_18
REMARK    7  A    between atoms: N_17  and  S_22
REMARK    8  A    between atoms: C_18  and  C_19
REMARK    9  A    between atoms: C_19  and  C_20
REMARK   10  A    between atoms: S_22  and  C_23
REMARK                            x       y       z     vdW  Elec       q    Type
REMARK                         _______ _______ _______ _____ _____    ______ ____
ROOT
ATOM      1  N   UNL     1      -0.945  11.382  21.394  0.00  0.00    +0.000 N 
ATOM      2  C   UNL     1      -0.016  10.419  21.826  0.00  0.00    +0.000 C 
ATOM      3  O   UNL     1       0.304  10.248  23.004  0.00  0.00    +0.000 OA
ATOM      4  C   UNL     1       0.549   9.526  20.772  0.00  0.00    +0.000 C 
ATOM      5  C   UNL     1       1.319   8.506  21.203  0.00  0.00    +0.000 C 
ATOM      6  C   UNL     1       0.219   9.757  19.357  0.00  0.00    +0.000 C 
ATOM      7  O   UNL     1       0.775   9.214  18.411  0.00  0.00    +0.000 OA
ATOM      8  N   UNL     1      -0.767  10.677  19.150  0.00  0.00    +0.000 N 
ATOM      9  C   UNL     1      -1.349  11.524  20.059  0.00  0.00    +0.000 C 
ATOM     10  S   UNL     1      -2.404  12.654  19.394  0.00  0.00    +0.000 S 
ATOM     11  H   UNL     1      -0.988  10.844  18.174  0.00  0.00    +0.000 HD
ENDROOT
BRANCH   1  17
ATOM     12  C   UNL     1      -4.472  12.500  24.740  0.00  0.00    +0.000 C 
ATOM     13  C   UNL     1      -3.182  12.835  24.048  0.00  0.00    +0.000 A 
ATOM     14  C   UNL     1      -2.501  14.024  24.330  0.00  0.00    +0.000 A 
ATOM     15  C   UNL     1      -1.303  14.319  23.683  0.00  0.00    +0.000 A 
ATOM     16  C   UNL     1      -0.781  13.436  22.737  0.00  0.00    +0.000 A 
ATOM     17  C   UNL     1      -1.465  12.256  22.413  0.00  0.00    +0.000 A 
ATOM     18  C   UNL     1      -2.654  11.954  23.094  0.00  0.00    +0.000 A 
ENDBRANCH   1  17
BRANCH   5  19
ATOM     19  C   UNL     1       1.854   7.481  20.382  0.00  0.00    +0.000 A 
ATOM     20  C   UNL     1       1.655   6.109  20.485  0.00  0.00    +0.000 A 
ATOM     21  C   UNL     1       2.523   5.475  19.570  0.00  0.00    +0.000 A 
ATOM     22  C   UNL     1       3.114   6.487  18.850  0.00  0.00    +0.000 A 
ATOM     23  O   UNL     1       2.747   7.699  19.356  0.00  0.00    +0.000 OA
BRANCH  22  24
ATOM     24  C   UNL     1       3.961   6.478  17.627  0.00  0.00    +0.000 C 
BRANCH  24  25
ATOM     25  N   UNL     1       5.221   5.727  17.923  0.00  0.00    +0.000 NA
BRANCH  25  26
ATOM     26  S   UNL     1       6.538   6.088  16.913  0.00  0.00    +0.000 S 
ATOM     27  C   UNL     1       7.167   7.605  17.603  0.00  0.00    +0.000 C 
ATOM     28  O   UNL     1       7.539   5.066  17.112  0.00  0.00    +0.000 OA
ATOM     29  O   UNL     1       5.998   6.358  15.594  0.00  0.00    +0.000 OA
ENDBRANCH  25  26
BRANCH  25  30
ATOM     30  C   UNL     1       5.014   4.255  18.186  0.00  0.00    +0.000 C 
BRANCH  30  31
ATOM     31  C   UNL     1       4.392   3.520  17.010  0.00  0.00    +0.000 C 
BRANCH  31  32
ATOM     32  C   UNL     1       3.093   2.845  17.420  0.00  0.00    +0.000 C 
ATOM     33  N   UNL     1       2.016   2.286  17.761  0.00  0.00    +0.000 NA
ENDBRANCH  31  32
ENDBRANCH  30  31
ENDBRANCH  25  30
ENDBRANCH  24  25
ENDBRANCH  22  24
ENDBRANCH   5  19
TORSDOF 8
ENDMDL
MODEL 4
REMARK VINA RESULT:      -7.5      1.624      2.343
REMARK  Name = 
REMARK  10 active torsions:
REMARK  status: ('A' for Active; 'I' for Inactive)
REMARK    1  A    between atoms: C_1  and  C_2
REMARK    2  A    between atoms: C_6  and  N_7
REMARK    3  A    between atoms: C_11  and  C_12
REMARK    4  A    between atoms: C_15  and  C_16
REMARK    5  A    between atoms: C_16  and  N_17
REMARK    6  A    between atoms: N_17  and  C_18
REMARK    7  A    between atoms: N_17  and  S_22
REMARK    8  A    between atoms: C_18  and  C_19
REMARK    9  A    between atoms: C_19  and  C_20
REMARK   10  A    between atoms: S_22  and  C_23
REMARK                            x       y       z     vdW  Elec       q    Type
REMARK                         _______ _______ _______ _____ _____    ______ ____
ROOT
ATOM      1  N   UNL     1       0.221  10.949  20.334  0.00  0.00    +0.000 N 
ATOM      2  C   UNL     1       0.930   9.862  20.873  0.00  0.00    +0.000 C 
ATOM      3  O   UNL     1       1.050   9.645  22.081  0.00  0.00    +0.000 OA
ATOM      4  C   UNL     1       1.508   8.896  19.893  0.00  0.00    +0.000 C 
ATOM      5  C   UNL     1       2.053   7.776  20.407  0.00  0.00    +0.000 C 
ATOM      6  C   UNL     1       1.421   9.172  18.450  0.00  0.00    +0.000 C 
ATOM      7  O   UNL     1       2.024   8.555  17.581  0.00  0.00    +0.000 OA
ATOM      8  N   UNL     1       0.617  10.226  18.124  0.00  0.00    +0.000 N 
ATOM      9  C   UNL     1       0.037  11.148  18.959  0.00  0.00    +0.000 C 
ATOM     10  S   UNL     1      -0.738  12.418  18.174  0.00  0.00    +0.000 S 
ATOM     11  H   UNL     1       0.565  10.423  17.131  0.00  0.00    +0.000 HD
ENDROOT
BRANCH   1  17
ATOM     12  C   UNL     1      -3.312  12.259  23.603  0.00  0.00    +0.000 C 
ATOM     13  C   UNL     1      -2.030  12.562  22.882  0.00  0.00    +0.000 A 
ATOM     14  C   UNL     1      -1.369  13.779  23.070  0.00  0.00    +0.000 A 
ATOM     15  C   UNL     1      -0.177  14.044  22.397  0.00  0.00    +0.000 A 
ATOM     16  C   UNL     1       0.356  13.101  21.518  0.00  0.00    +0.000 A 
ATOM     17  C   UNL     1      -0.310  11.889  21.287  0.00  0.00    +0.000 A 
ATOM     18  C   UNL     1      -1.491  11.619  21.994  0.00  0.00    +0.000 A 
ENDBRANCH   1  17
BRANCH   5  19
ATOM     19  C   UNL     1       2.548   6.684  19.649  0.00  0.00    +0.000 A 
ATOM     20  C   UNL     1       1.823   5.689  19.006  0.00  0.00    +0.000 A 
ATOM     21  C   UNL     1       2.736   4.722  18.533  0.00  0.00    +0.000 A 
ATOM     22  C   UNL     1       3.988   5.234  18.785  0.00  0.00    +0.000 A 
ATOM     23  O   UNL     1       3.886   6.396  19.490  0.00  0.00    +0.000 OA
BRANCH  22  24
ATOM     24  C   UNL     1       5.346   4.802  18.359  0.00  0.00    +0.000 C 
BRANCH  24  25
ATOM     25  N   UNL     1       5.929   5.856  17.473  0.00  0.00    +0.000 NA
BRANCH  25  26
ATOM     26  S   UNL     1       6.084   5.428  15.836  0.00  0.00    +0.000 S 
ATOM     27  C   UNL     1       5.145   3.918  15.727  0.00  0.00    +0.000 C 
ATOM     28  O   UNL     1       5.398   6.430  15.053  0.00  0.00    +0.000 OA
ATOM     29  O   UNL     1       7.485   5.131  15.607  0.00  0.00    +0.000 OA
ENDBRANCH  25  26
BRANCH  25  30
ATOM     30  C   UNL     1       7.131   6.557  18.057  0.00  0.00    +0.000 C 
BRANCH  30  31
ATOM     31  C   UNL     1       7.479   7.848  17.334  0.00  0.00    +0.000 C 
BRANCH  31  32
ATOM     32  C   UNL     1       8.306   8.761  18.225  0.00  0.00    +0.000 C 
ATOM     33  N   UNL     1       8.990   9.519  18.965  0.00  0.00    +0.000 NA
ENDBRANCH  31  32
ENDBRANCH  30  31
ENDBRANCH  25  30
ENDBRANCH  24  25
ENDBRANCH  22  24
ENDBRANCH   5  19
TORSDOF 8
ENDMDL
MODEL 5
REMARK VINA RESULT:      -7.4      1.757      2.703
REMARK  Name = 
REMARK  10 active torsions:
REMARK  status: ('A' for Active; 'I' for Inactive)
REMARK    1  A    between atoms: C_1  and  C_2
REMARK    2  A    between atoms: C_6  and  N_7
REMARK    3  A    between atoms: C_11  and  C_12
REMARK    4  A    between atoms: C_15  and  C_16
REMARK    5  A    between atoms: C_16  and  N_17
REMARK    6  A    between atoms: N_17  and  C_18
REMARK    7  A    between atoms: N_17  and  S_22
REMARK    8  A    between atoms: C_18  and  C_19
REMARK    9  A    between atoms: C_19  and  C_20
REMARK   10  A    between atoms: S_22  and  C_23
REMARK                            x       y       z     vdW  Elec       q    Type
REMARK                         _______ _______ _______ _____ _____    ______ ____
ROOT
ATOM      1  N   UNL     1      -0.981  11.538  21.431  0.00  0.00    +0.000 N 
ATOM      2  C   UNL     1      -0.139  10.533  21.937  0.00  0.00    +0.000 C 
ATOM      3  O   UNL     1       0.075  10.348  23.137  0.00  0.00    +0.000 OA
ATOM      4  C   UNL     1       0.468   9.610  20.932  0.00  0.00    +0.000 C 
ATOM      5  C   UNL     1       1.149   8.556  21.423  0.00  0.00    +0.000 C 
ATOM      6  C   UNL     1       0.268   9.854  19.495  0.00  0.00    +0.000 C 
ATOM      7  O   UNL     1       0.873   9.283  18.597  0.00  0.00    +0.000 OA
ATOM      8  N   UNL     1      -0.653  10.820  19.209  0.00  0.00    +0.000 N 
ATOM      9  C   UNL     1      -1.267  11.696  20.068  0.00  0.00    +0.000 C 
ATOM     10  S   UNL     1      -2.208  12.873  19.320  0.00  0.00    +0.000 S 
ATOM     11  H   UNL     1      -0.784  10.996  18.218  0.00  0.00    +0.000 HD
ENDROOT
BRANCH   1  17
ATOM     12  C   UNL     1      -0.664  15.711  24.147  0.00  0.00    +0.000 C 
ATOM     13  C   UNL     1      -1.407  14.466  23.757  0.00  0.00    +0.000 A 
ATOM     14  C   UNL     1      -2.614  14.125  24.375  0.00  0.00    +0.000 A 
ATOM     15  C   UNL     1      -3.295  12.968  23.999  0.00  0.00    +0.000 A 
ATOM     16  C   UNL     1      -2.768  12.134  23.013  0.00  0.00    +0.000 A 
ATOM     17  C   UNL     1      -1.542  12.438  22.406  0.00  0.00    +0.000 A 
ATOM     18  C   UNL     1      -0.881  13.621  22.769  0.00  0.00    +0.000 A 
ENDBRANCH   1  17
BRANCH   5  19
ATOM     19  C   UNL     1       1.700   7.505  20.647  0.00  0.00    +0.000 A 
ATOM     20  C   UNL     1       1.509   6.137  20.799  0.00  0.00    +0.000 A 
ATOM     21  C   UNL     1       2.391   5.475  19.919  0.00  0.00    +0.000 A 
ATOM     22  C   UNL     1       2.986   6.463  19.169  0.00  0.00    +0.000 A 
ATOM     23  O   UNL     1       2.606   7.690  19.626  0.00  0.00    +0.000 OA
BRANCH  22  24
ATOM     24  C   UNL     1       3.849   6.413  17.959  0.00  0.00    +0.000 C 
BRANCH  24  25
ATOM     25  N   UNL     1       4.778   5.247  18.079  0.00  0.00    +0.000 NA
BRANCH  25  26
ATOM     26  S   UNL     1       6.410   5.639  18.335  0.00  0.00    +0.000 S 
ATOM     27  C   UNL     1       7.270   4.451  17.324  0.00  0.00    +0.000 C 
ATOM     28  O   UNL     1       6.642   6.948  17.769  0.00  0.00    +0.000 OA
ATOM     29  O   UNL     1       6.698   5.367  19.730  0.00  0.00    +0.000 OA
ENDBRANCH  25  26
BRANCH  25  30
ATOM     30  C   UNL     1       4.543   4.164  17.055  0.00  0.00    +0.000 C 
BRANCH  30  31
ATOM     31  C   UNL     1       3.999   2.878  17.658  0.00  0.00    +0.000 C 
BRANCH  31  32
ATOM     32  C   UNL     1       2.481   2.912  17.726  0.00  0.00    +0.000 C 
ATOM     33  N   UNL     1       1.222   2.941  17.783  0.00  0.00    +0.000 NA
ENDBRANCH  31  32
ENDBRANCH  30  31
ENDBRANCH  25  30
ENDBRANCH  24  25
ENDBRANCH  22  24
ENDBRANCH   5  19
TORSDOF 8
ENDMDL
MODEL 6
REMARK VINA RESULT:      -7.4      0.950      1.572
REMARK  Name = 
REMARK  10 active torsions:
REMARK  status: ('A' for Active; 'I' for Inactive)
REMARK    1  A    between atoms: C_1  and  C_2
REMARK    2  A    between atoms: C_6  and  N_7
REMARK    3  A    between atoms: C_11  and  C_12
REMARK    4  A    between atoms: C_15  and  C_16
REMARK    5  A    between atoms: C_16  and  N_17
REMARK    6  A    between atoms: N_17  and  C_18
REMARK    7  A    between atoms: N_17  and  S_22
REMARK    8  A    between atoms: C_18  and  C_19
REMARK    9  A    between atoms: C_19  and  C_20
REMARK   10  A    between atoms: S_22  and  C_23
REMARK                            x       y       z     vdW  Elec       q    Type
REMARK                         _______ _______ _______ _____ _____    ______ ____
ROOT
ATOM      1  N   UNL     1      -0.570  11.259  20.781  0.00  0.00    +0.000 N 
ATOM      2  C   UNL     1       0.358  10.312  21.246  0.00  0.00    +0.000 C 
ATOM      3  O   UNL     1       0.729  10.225  22.419  0.00  0.00    +0.000 OA
ATOM      4  C   UNL     1       0.858   9.327  20.243  0.00  0.00    +0.000 C 
ATOM      5  C   UNL     1       1.627   8.326  20.718  0.00  0.00    +0.000 C 
ATOM      6  C   UNL     1       0.469   9.455  18.830  0.00  0.00    +0.000 C 
ATOM      7  O   UNL     1       0.971   8.828  17.906  0.00  0.00    +0.000 OA
ATOM      8  N   UNL     1      -0.507  10.378  18.594  0.00  0.00    +0.000 N 
ATOM      9  C   UNL     1      -1.032  11.307  19.459  0.00  0.00    +0.000 C 
ATOM     10  S   UNL     1      -2.093  12.405  18.753  0.00  0.00    +0.000 S 
ATOM     11  H   UNL     1      -0.769  10.474  17.619  0.00  0.00    +0.000 HD
ENDROOT
BRANCH   1  17
ATOM     12  C   UNL     1      -0.016  15.626  23.129  0.00  0.00    +0.000 C 
ATOM     13  C   UNL     1      -0.773  14.346  22.925  0.00  0.00    +0.000 A 
ATOM     14  C   UNL     1      -1.887  14.035  23.712  0.00  0.00    +0.000 A 
ATOM     15  C   UNL     1      -2.582  12.844  23.508  0.00  0.00    +0.000 A 
ATOM     16  C   UNL     1      -2.162  11.946  22.526  0.00  0.00    +0.000 A 
ATOM     17  C   UNL     1      -1.026  12.221  21.751  0.00  0.00    +0.000 A 
ATOM     18  C   UNL     1      -0.353  13.437  21.943  0.00  0.00    +0.000 A 
ENDBRANCH   1  17
BRANCH   5  19
ATOM     19  C   UNL     1       2.104   7.228  19.957  0.00  0.00    +0.000 A 
ATOM     20  C   UNL     1       1.776   5.885  20.093  0.00  0.00    +0.000 A 
ATOM     21  C   UNL     1       2.624   5.143  19.244  0.00  0.00    +0.000 A 
ATOM     22  C   UNL     1       3.340   6.072  18.523  0.00  0.00    +0.000 A 
ATOM     23  O   UNL     1       3.062   7.329  18.972  0.00  0.00    +0.000 OA
BRANCH  22  24
ATOM     24  C   UNL     1       4.240   5.942  17.346  0.00  0.00    +0.000 C 
BRANCH  24  25
ATOM     25  N   UNL     1       5.286   4.918  17.653  0.00  0.00    +0.000 NA
BRANCH  25  26
ATOM     26  S   UNL     1       6.695   5.514  18.391  0.00  0.00    +0.000 S 
ATOM     27  C   UNL     1       7.962   4.424  17.773  0.00  0.00    +0.000 C 
ATOM     28  O   UNL     1       6.948   6.832  17.856  0.00  0.00    +0.000 OA
ATOM     29  O   UNL     1       6.547   5.303  19.819  0.00  0.00    +0.000 OA
ENDBRANCH  25  26
BRANCH  25  30
ATOM     30  C   UNL     1       5.529   3.931  16.537  0.00  0.00    +0.000 C 
BRANCH  30  31
ATOM     31  C   UNL     1       5.298   4.524  15.156  0.00  0.00    +0.000 C 
BRANCH  31  32
ATOM     32  C   UNL     1       6.601   5.035  14.562  0.00  0.00    +0.000 C 
ATOM     33  N   UNL     1       7.682   5.459  14.070  0.00  0.00    +0.000 NA
ENDBRANCH  31  32
ENDBRANCH  30  31
ENDBRANCH  25  30
ENDBRANCH  24  25
ENDBRANCH  22  24
ENDBRANCH   5  19
TORSDOF 8
ENDMDL
MODEL 7
REMARK VINA RESULT:      -7.4      1.678      2.527
REMARK  Name = 
REMARK  10 active torsions:
REMARK  status: ('A' for Active; 'I' for Inactive)
REMARK    1  A    between atoms: C_1  and  C_2
REMARK    2  A    between atoms: C_6  and  N_7
REMARK    3  A    between atoms: C_11  and  C_12
REMARK    4  A    between atoms: C_15  and  C_16
REMARK    5  A    between atoms: C_16  and  N_17
REMARK    6  A    between atoms: N_17  and  C_18
REMARK    7  A    between atoms: N_17  and  S_22
REMARK    8  A    between atoms: C_18  and  C_19
REMARK    9  A    between atoms: C_19  and  C_20
REMARK   10  A    between atoms: S_22  and  C_23
REMARK                            x       y       z     vdW  Elec       q    Type
REMARK                         _______ _______ _______ _____ _____    ______ ____
ROOT
ATOM      1  N   UNL     1      -1.040  11.414  21.549  0.00  0.00    +0.000 N 
ATOM      2  C   UNL     1      -0.167  10.415  22.013  0.00  0.00    +0.000 C 
ATOM      3  O   UNL     1       0.102  10.229  23.202  0.00  0.00    +0.000 OA
ATOM      4  C   UNL     1       0.404   9.501  20.979  0.00  0.00    +0.000 C 
ATOM      5  C   UNL     1       1.116   8.452  21.436  0.00  0.00    +0.000 C 
ATOM      6  C   UNL     1       0.138   9.748  19.553  0.00  0.00    +0.000 C 
ATOM      7  O   UNL     1       0.709   9.186  18.627  0.00  0.00    +0.000 OA
ATOM      8  N   UNL     1      -0.803  10.706  19.311  0.00  0.00    +0.000 N 
ATOM      9  C   UNL     1      -1.387  11.574  20.200  0.00  0.00    +0.000 C 
ATOM     10  S   UNL     1      -2.371  12.744  19.499  0.00  0.00    +0.000 S 
ATOM     11  H   UNL     1      -0.980  10.884  18.329  0.00  0.00    +0.000 HD
ENDROOT
BRANCH   1  17
ATOM     12  C   UNL     1      -4.674  12.696  24.716  0.00  0.00    +0.000 C 
ATOM     13  C   UNL     1      -3.332  12.964  24.099  0.00  0.00    +0.000 A 
ATOM     14  C   UNL     1      -2.603  14.110  24.432  0.00  0.00    +0.000 A 
ATOM     15  C   UNL     1      -1.356  14.343  23.854  0.00  0.00    +0.000 A 
ATOM     16  C   UNL     1      -0.834  13.441  22.926  0.00  0.00    +0.000 A 
ATOM     17  C   UNL     1      -1.565  12.305  22.551  0.00  0.00    +0.000 A 
ATOM     18  C   UNL     1      -2.803  12.064  23.162  0.00  0.00    +0.000 A 
ENDBRANCH   1  17
BRANCH   5  19
ATOM     19  C   UNL     1       1.642   7.408  20.632  0.00  0.00    +0.000 A 
ATOM     20  C   UNL     1       1.450   6.039  20.773  0.00  0.00    +0.000 A 
ATOM     21  C   UNL     1       2.306   5.385  19.861  0.00  0.00    +0.000 A 
ATOM     22  C   UNL     1       2.883   6.381  19.107  0.00  0.00    +0.000 A 
ATOM     23  O   UNL     1       2.519   7.604  19.589  0.00  0.00    +0.000 OA
BRANCH  22  24
ATOM     24  C   UNL     1       3.712   6.343  17.873  0.00  0.00    +0.000 C 
BRANCH  24  25
ATOM     25  N   UNL     1       4.488   5.064  17.855  0.00  0.00    +0.000 NA
BRANCH  25  26
ATOM     26  S   UNL     1       6.177   5.237  17.891  0.00  0.00    +0.000 S 
ATOM     27  C   UNL     1       6.677   4.613  16.299  0.00  0.00    +0.000 C 
ATOM     28  O   UNL     1       6.474   6.650  17.923  0.00  0.00    +0.000 OA
ATOM     29  O   UNL     1       6.672   4.346  18.923  0.00  0.00    +0.000 OA
ENDBRANCH  25  26
BRANCH  25  30
ATOM     30  C   UNL     1       3.979   4.048  16.861  0.00  0.00    +0.000 C 
BRANCH  30  31
ATOM     31  C   UNL     1       4.119   2.615  17.348  0.00  0.00    +0.000 C 
BRANCH  31  32
ATOM     32  C   UNL     1       2.981   2.249  18.286  0.00  0.00    +0.000 C 
ATOM     33  N   UNL     1       2.036   1.946  19.065  0.00  0.00    +0.000 NA
ENDBRANCH  31  32
ENDBRANCH  30  31
ENDBRANCH  25  30
ENDBRANCH  24  25
ENDBRANCH  22  24
ENDBRANCH   5  19
TORSDOF 8
ENDMDL
MODEL 8
REMARK VINA RESULT:      -7.4      2.038      2.758
REMARK  Name = 
REMARK  10 active torsions:
REMARK  status: ('A' for Active; 'I' for Inactive)
REMARK    1  A    between atoms: C_1  and  C_2
REMARK    2  A    between atoms: C_6  and  N_7
REMARK    3  A    between atoms: C_11  and  C_12
REMARK    4  A    between atoms: C_15  and  C_16
REMARK    5  A    between atoms: C_16  and  N_17
REMARK    6  A    between atoms: N_17  and  C_18
REMARK    7  A    between atoms: N_17  and  S_22
REMARK    8  A    between atoms: C_18  and  C_19
REMARK    9  A    between atoms: C_19  and  C_20
REMARK   10  A    between atoms: S_22  and  C_23
REMARK                            x       y       z     vdW  Elec       q    Type
REMARK                         _______ _______ _______ _____ _____    ______ ____
ROOT
ATOM      1  N   UNL     1       0.753  10.167  20.423  0.00  0.00    +0.000 N 
ATOM      2  C   UNL     1       1.252   9.561  19.257  0.00  0.00    +0.000 C 
ATOM      3  O   UNL     1       1.513  10.171  18.219  0.00  0.00    +0.000 OA
ATOM      4  C   UNL     1       1.528   8.096  19.338  0.00  0.00    +0.000 C 
ATOM      5  C   UNL     1       2.148   7.545  18.275  0.00  0.00    +0.000 C 
ATOM      6  C   UNL     1       1.166   7.346  20.550  0.00  0.00    +0.000 C 
ATOM      7  O   UNL     1       1.168   6.125  20.645  0.00  0.00    +0.000 OA
ATOM      8  N   UNL     1       0.780   8.124  21.603  0.00  0.00    +0.000 N 
ATOM      9  C   UNL     1       0.520   9.472  21.618  0.00  0.00    +0.000 C 
ATOM     10  S   UNL     1      -0.115  10.050  23.065  0.00  0.00    +0.000 S 
ATOM     11  H   UNL     1       0.521   7.607  22.436  0.00  0.00    +0.000 HD
ENDROOT
BRANCH   1  17
ATOM     12  C   UNL     1       2.146  14.914  21.059  0.00  0.00    +0.000 C 
ATOM     13  C   UNL     1       1.115  13.906  20.640  0.00  0.00    +0.000 A 
ATOM     14  C   UNL     1      -0.155  14.309  20.216  0.00  0.00    +0.000 A 
ATOM     15  C   UNL     1      -1.101  13.361  19.827  0.00  0.00    +0.000 A 
ATOM     16  C   UNL     1      -0.789  12.002  19.871  0.00  0.00    +0.000 A 
ATOM     17  C   UNL     1       0.466  11.575  20.327  0.00  0.00    +0.000 A 
ATOM     18  C   UNL     1       1.420  12.538  20.686  0.00  0.00    +0.000 A 
ENDBRANCH   1  17
BRANCH   5  19
ATOM     19  C   UNL     1       2.602   6.204  18.198  0.00  0.00    +0.000 A 
ATOM     20  C   UNL     1       1.921   5.095  17.712  0.00  0.00    +0.000 A 
ATOM     21  C   UNL     1       2.695   3.950  17.998  0.00  0.00    +0.000 A 
ATOM     22  C   UNL     1       3.877   4.417  18.523  0.00  0.00    +0.000 A 
ATOM     23  O   UNL     1       3.816   5.770  18.683  0.00  0.00    +0.000 OA
BRANCH  22  24
ATOM     24  C   UNL     1       5.165   3.742  18.837  0.00  0.00    +0.000 C 
BRANCH  24  25
ATOM     25  N   UNL     1       6.197   4.196  17.854  0.00  0.00    +0.000 NA
BRANCH  25  26
ATOM     26  S   UNL     1       7.506   5.052  18.516  0.00  0.00    +0.000 S 
ATOM     27  C   UNL     1       7.420   6.623  17.681  0.00  0.00    +0.000 C 
ATOM     28  O   UNL     1       7.221   5.280  19.914  0.00  0.00    +0.000 OA
ATOM     29  O   UNL     1       8.714   4.364  18.102  0.00  0.00    +0.000 OA
ENDBRANCH  25  26
BRANCH  25  30
ATOM     30  C   UNL     1       5.625   4.797  16.593  0.00  0.00    +0.000 C 
BRANCH  30  31
ATOM     31  C   UNL     1       5.958   3.995  15.345  0.00  0.00    +0.000 C 
BRANCH  31  32
ATOM     32  C   UNL     1       6.946   4.747  14.467  0.00  0.00    +0.000 C 
ATOM     33  N   UNL     1       7.764   5.371  13.739  0.00  0.00    +0.000 NA
ENDBRANCH  31  32
ENDBRANCH  30  31
ENDBRANCH  25  30
ENDBRANCH  24  25
ENDBRANCH  22  24
ENDBRANCH   5  19
TORSDOF 8
ENDMDL
MODEL 9
REMARK VINA RESULT:      -7.3      3.197      9.777
REMARK  Name = 
REMARK  10 active torsions:
REMARK  status: ('A' for Active; 'I' for Inactive)
REMARK    1  A    between atoms: C_1  and  C_2
REMARK    2  A    between atoms: C_6  and  N_7
REMARK    3  A    between atoms: C_11  and  C_12
REMARK    4  A    between atoms: C_15  and  C_16
REMARK    5  A    between atoms: C_16  and  N_17
REMARK    6  A    between atoms: N_17  and  C_18
REMARK    7  A    between atoms: N_17  and  S_22
REMARK    8  A    between atoms: C_18  and  C_19
REMARK    9  A    between atoms: C_19  and  C_20
REMARK   10  A    between atoms: S_22  and  C_23
REMARK                            x       y       z     vdW  Elec       q    Type
REMARK                         _______ _______ _______ _____ _____    ______ ____
ROOT
ATOM      1  N   UNL     1       2.836   6.340  18.977  0.00  0.00    +0.000 N 
ATOM      2  C   UNL     1       2.644   7.591  18.367  0.00  0.00    +0.000 C 
ATOM      3  O   UNL     1       3.089   7.896  17.259  0.00  0.00    +0.000 OA
ATOM      4  C   UNL     1       1.791   8.566  19.110  0.00  0.00    +0.000 C 
ATOM      5  C   UNL     1       1.480   9.705  18.460  0.00  0.00    +0.000 C 
ATOM      6  C   UNL     1       1.302   8.237  20.458  0.00  0.00    +0.000 C 
ATOM      7  O   UNL     1       0.768   9.030  21.222  0.00  0.00    +0.000 OA
ATOM      8  N   UNL     1       1.516   6.943  20.836  0.00  0.00    +0.000 N 
ATOM      9  C   UNL     1       2.270   5.983  20.209  0.00  0.00    +0.000 C 
ATOM     10  S   UNL     1       2.451   4.553  21.076  0.00  0.00    +0.000 S 
ATOM     11  H   UNL     1       1.188   6.718  21.770  0.00  0.00    +0.000 HD
ENDROOT
BRANCH   1  17
ATOM     12  C   UNL     1       7.388   4.738  17.715  0.00  0.00    +0.000 C 
ATOM     13  C   UNL     1       5.895   4.619  17.620  0.00  0.00    +0.000 A 
ATOM     14  C   UNL     1       5.301   3.660  16.793  0.00  0.00    +0.000 A 
ATOM     15  C   UNL     1       3.912   3.559  16.718  0.00  0.00    +0.000 A 
ATOM     16  C   UNL     1       3.105   4.424  17.458  0.00  0.00    +0.000 A 
ATOM     17  C   UNL     1       3.680   5.416  18.265  0.00  0.00    +0.000 A 
ATOM     18  C   UNL     1       5.078   5.488  18.357  0.00  0.00    +0.000 A 
ENDBRANCH   1  17
BRANCH   5  19
ATOM     19  C   UNL     1       0.594  10.704  18.938  0.00  0.00    +0.000 A 
ATOM     20  C   UNL     1      -0.788  10.759  18.801  0.00  0.00    +0.000 A 
ATOM     21  C   UNL     1      -1.222  12.015  19.275  0.00  0.00    +0.000 A 
ATOM     22  C   UNL     1      -0.107  12.621  19.807  0.00  0.00    +0.000 A 
ATOM     23  O   UNL     1       0.998  11.856  19.575  0.00  0.00    +0.000 OA
BRANCH  22  24
ATOM     24  C   UNL     1       0.064  13.851  20.625  0.00  0.00    +0.000 C 
BRANCH  24  25
ATOM     25  N   UNL     1       1.340  14.521  20.223  0.00  0.00    +0.000 NA
BRANCH  25  26
ATOM     26  S   UNL     1       2.452  14.783  21.480  0.00  0.00    +0.000 S 
ATOM     27  C   UNL     1       3.460  16.111  20.852  0.00  0.00    +0.000 C 
ATOM     28  O   UNL     1       1.719  15.288  22.618  0.00  0.00    +0.000 OA
ATOM     29  O   UNL     1       3.263  13.585  21.585  0.00  0.00    +0.000 OA
ENDBRANCH  25  26
BRANCH  25  30
ATOM     30  C   UNL     1       1.154  15.694  19.292  0.00  0.00    +0.000 C 
BRANCH  30  31
ATOM     31  C   UNL     1      -0.266  16.237  19.293  0.00  0.00    +0.000 C 
BRANCH  31  32
ATOM     32  C   UNL     1      -0.464  17.234  18.163  0.00  0.00    +0.000 C 
ATOM     33  N   UNL     1      -0.629  18.060  17.224  0.00  0.00    +0.000 NA
ENDBRANCH  31  32
ENDBRANCH  30  31
ENDBRANCH  25  30
ENDBRANCH  24  25
ENDBRANCH  22  24
ENDBRANCH   5  19
TORSDOF 8
ENDMDL
