MODEL 1
REMARK VINA RESULT:      -8.0      0.000      0.000
REMARK  Name = 
REMARK  5 active torsions:
REMARK  status: ('A' for Active; 'I' for Inactive)
REMARK    1  A    between atoms: C_1  and  C_2
REMARK    2  A    between atoms: C_2  and  C_3
REMARK    3  A    between atoms: C_13  and  C_14
REMARK    4  A    between atoms: N_21  and  C_22
REMARK    5  A    between atoms: C_22  and  C_23
REMARK                            x       y       z     vdW  Elec       q    Type
REMARK                         _______ _______ _______ _____ _____    ______ ____
ROOT
ATOM      1  C   UNL     1       3.543   4.354  18.434  0.00  0.00    +0.000 C 
ATOM      2  C   UNL     1       4.640   5.182  17.736  0.00  0.00    +0.000 C 
ATOM      3  O   UNL     1       4.122   6.399  17.174  0.00  0.00    +0.000 OA
ATOM      4  C   UNL     1       3.275   7.066  18.035  0.00  0.00    +0.000 A 
ATOM      5  C   UNL     1       2.893   8.346  17.637  0.00  0.00    +0.000 A 
ATOM      6  C   UNL     1       2.014   9.077  18.434  0.00  0.00    +0.000 A 
ATOM      7  N   UNL     1       1.614  10.349  18.004  0.00  0.00    +0.000 N 
ATOM      8  C   UNL     1       0.745  11.137  18.696  0.00  0.00    +0.000 A 
ATOM      9  O   UNL     1       0.401  12.248  18.301  0.00  0.00    +0.000 OA
ATOM     10  C   UNL     1       0.224  10.590  19.963  0.00  0.00    +0.000 A 
ATOM     11  C   UNL     1       0.562   9.376  20.441  0.00  0.00    +0.000 A 
ATOM     12  C   UNL     1       1.507   8.558  19.643  0.00  0.00    +0.000 A 
ATOM     13  C   UNL     1       1.915   7.270  20.010  0.00  0.00    +0.000 A 
ATOM     14  C   UNL     1       2.770   6.492  19.221  0.00  0.00    +0.000 A 
ATOM     15  N   UNL     1       3.060   5.173  19.553  0.00  0.00    +0.000 N 
ATOM     16  H   UNL     1       1.955  10.726  17.131  0.00  0.00    +0.000 HD
ENDROOT
BRANCH  11  17
ATOM     17  C   UNL     1      -0.051   8.931  21.741  0.00  0.00    +0.000 C 
ATOM     18  F   UNL     1      -0.796   7.802  21.702  0.00  0.00    +0.000 F 
ATOM     19  F   UNL     1       0.912   8.704  22.674  0.00  0.00    +0.000 F 
ATOM     20  F   UNL     1      -0.861   9.897  22.255  0.00  0.00    +0.000 F 
ENDBRANCH  11  17
BRANCH   1  22
ATOM     21  C   UNL     1       2.045   2.506  17.447  0.00  0.00    +0.000 C 
ATOM     22  C   UNL     1       2.354   3.993  17.509  0.00  0.00    +0.000 C 
ENDBRANCH   1  22
BRANCH  15  23
ATOM     23  C   UNL     1       2.925   4.618  20.914  0.00  0.00    +0.000 C 
BRANCH  23  24
ATOM     24  C   UNL     1       1.869   3.519  21.121  0.00  0.00    +0.000 C 
ATOM     25  F   UNL     1       2.207   2.334  20.568  0.00  0.00    +0.000 F 
ATOM     26  F   UNL     1       1.662   3.302  22.442  0.00  0.00    +0.000 F 
ATOM     27  F   UNL     1       0.679   3.887  20.588  0.00  0.00    +0.000 F 
ENDBRANCH  23  24
ENDBRANCH  15  23
TORSDOF 4
ENDMDL
MODEL 2
REMARK VINA RESULT:      -7.9      0.104      1.040
REMARK  Name = 
REMARK  5 active torsions:
REMARK  status: ('A' for Active; 'I' for Inactive)
REMARK    1  A    between atoms: C_1  and  C_2
REMARK    2  A    between atoms: C_2  and  C_3
REMARK    3  A    between atoms: C_13  and  C_14
REMARK    4  A    between atoms: N_21  and  C_22
REMARK    5  A    between atoms: C_22  and  C_23
REMARK                            x       y       z     vdW  Elec       q    Type
REMARK                         _______ _______ _______ _____ _____    ______ ____
ROOT
ATOM      1  C   UNL     1       3.524   4.430  18.439  0.00  0.00    +0.000 C 
ATOM      2  C   UNL     1       4.597   5.273  17.724  0.00  0.00    +0.000 C 
ATOM      3  O   UNL     1       4.053   6.484  17.172  0.00  0.00    +0.000 OA
ATOM      4  C   UNL     1       3.211   7.138  18.047  0.00  0.00    +0.000 A 
ATOM      5  C   UNL     1       2.805   8.413  17.656  0.00  0.00    +0.000 A 
ATOM      6  C   UNL     1       1.929   9.131  18.469  0.00  0.00    +0.000 A 
ATOM      7  N   UNL     1       1.503  10.398  18.047  0.00  0.00    +0.000 N 
ATOM      8  C   UNL     1       0.635  11.173  18.754  0.00  0.00    +0.000 A 
ATOM      9  O   UNL     1       0.269  12.279  18.365  0.00  0.00    +0.000 OA
ATOM     10  C   UNL     1       0.143  10.618  20.029  0.00  0.00    +0.000 A 
ATOM     11  C   UNL     1       0.507   9.408  20.501  0.00  0.00    +0.000 A 
ATOM     12  C   UNL     1       1.450   8.604  19.686  0.00  0.00    +0.000 A 
ATOM     13  C   UNL     1       1.882   7.322  20.045  0.00  0.00    +0.000 A 
ATOM     14  C   UNL     1       2.735   6.557  19.241  0.00  0.00    +0.000 A 
ATOM     15  N   UNL     1       3.048   5.242  19.567  0.00  0.00    +0.000 N 
ATOM     16  H   UNL     1       1.825  10.780  17.168  0.00  0.00    +0.000 HD
ENDROOT
BRANCH  11  17
ATOM     17  C   UNL     1      -0.078   8.955  21.811  0.00  0.00    +0.000 C 
ATOM     18  F   UNL     1       0.803   8.677  22.801  0.00  0.00    +0.000 F 
ATOM     19  F   UNL     1      -0.914   9.901  22.316  0.00  0.00    +0.000 F 
ATOM     20  F   UNL     1      -0.826   7.830  21.649  0.00  0.00    +0.000 F 
ENDBRANCH  11  17
BRANCH   1  22
ATOM     21  C   UNL     1       2.025   2.563  17.490  0.00  0.00    +0.000 C 
ATOM     22  C   UNL     1       2.325   4.052  17.535  0.00  0.00    +0.000 C 
ENDBRANCH   1  22
BRANCH  15  23
ATOM     23  C   UNL     1       2.944   4.684  20.930  0.00  0.00    +0.000 C 
BRANCH  23  24
ATOM     24  C   UNL     1       1.925   3.553  21.148  0.00  0.00    +0.000 C 
ATOM     25  F   UNL     1       0.723   3.792  20.579  0.00  0.00    +0.000 F 
ATOM     26  F   UNL     1       2.390   2.390  20.633  0.00  0.00    +0.000 F 
ATOM     27  F   UNL     1       1.711   3.344  22.469  0.00  0.00    +0.000 F 
ENDBRANCH  23  24
ENDBRANCH  15  23
TORSDOF 4
ENDMDL
MODEL 3
REMARK VINA RESULT:      -7.9      0.192      1.067
REMARK  Name = 
REMARK  5 active torsions:
REMARK  status: ('A' for Active; 'I' for Inactive)
REMARK    1  A    between atoms: C_1  and  C_2
REMARK    2  A    between atoms: C_2  and  C_3
REMARK    3  A    between atoms: C_13  and  C_14
REMARK    4  A    between atoms: N_21  and  C_22
REMARK    5  A    between atoms: C_22  and  C_23
REMARK                            x       y       z     vdW  Elec       q    Type
REMARK                         _______ _______ _______ _____ _____    ______ ____
ROOT
ATOM      1  C   UNL     1       3.475   4.519  18.436  0.00  0.00    +0.000 C 
ATOM      2  C   UNL     1       4.538   5.375  17.720  0.00  0.00    +0.000 C 
ATOM      3  O   UNL     1       3.982   6.584  17.178  0.00  0.00    +0.000 OA
ATOM      4  C   UNL     1       3.140   7.227  18.062  0.00  0.00    +0.000 A 
ATOM      5  C   UNL     1       2.722   8.501  17.681  0.00  0.00    +0.000 A 
ATOM      6  C   UNL     1       1.845   9.208  18.503  0.00  0.00    +0.000 A 
ATOM      7  N   UNL     1       1.407  10.473  18.090  0.00  0.00    +0.000 N 
ATOM      8  C   UNL     1       0.537  11.238  18.806  0.00  0.00    +0.000 A 
ATOM      9  O   UNL     1       0.161  12.344  18.427  0.00  0.00    +0.000 OA
ATOM     10  C   UNL     1       0.057  10.672  20.081  0.00  0.00    +0.000 A 
ATOM     11  C   UNL     1       0.432   9.462  20.544  0.00  0.00    +0.000 A 
ATOM     12  C   UNL     1       1.377   8.669  19.719  0.00  0.00    +0.000 A 
ATOM     13  C   UNL     1       1.820   7.389  20.068  0.00  0.00    +0.000 A 
ATOM     14  C   UNL     1       2.674   6.635  19.255  0.00  0.00    +0.000 A 
ATOM     15  N   UNL     1       3.000   5.320  19.571  0.00  0.00    +0.000 N 
ATOM     16  H   UNL     1       1.721  10.863  17.212  0.00  0.00    +0.000 HD
ENDROOT
BRANCH  11  17
ATOM     17  C   UNL     1      -0.142   8.996  21.854  0.00  0.00    +0.000 C 
ATOM     18  F   UNL     1      -0.981   9.852  22.483  0.00  0.00    +0.000 F 
ATOM     19  F   UNL     1      -0.848   7.846  21.687  0.00  0.00    +0.000 F 
ATOM     20  F   UNL     1       0.844   8.714  22.748  0.00  0.00    +0.000 F 
ENDBRANCH  11  17
BRANCH   1  22
ATOM     21  C   UNL     1       2.012   2.643  17.450  0.00  0.00    +0.000 C 
ATOM     22  C   UNL     1       2.274   4.137  17.537  0.00  0.00    +0.000 C 
ENDBRANCH   1  22
BRANCH  15  23
ATOM     23  C   UNL     1       2.908   4.754  20.932  0.00  0.00    +0.000 C 
BRANCH  23  24
ATOM     24  C   UNL     1       1.939   3.577  21.136  0.00  0.00    +0.000 C 
ATOM     25  F   UNL     1       1.684   3.306  22.435  0.00  0.00    +0.000 F 
ATOM     26  F   UNL     1       0.749   3.832  20.539  0.00  0.00    +0.000 F 
ATOM     27  F   UNL     1       2.429   2.446  20.576  0.00  0.00    +0.000 F 
ENDBRANCH  23  24
ENDBRANCH  15  23
TORSDOF 4
ENDMDL
MODEL 4
REMARK VINA RESULT:      -6.9      3.557      4.667
REMARK  Name = 
REMARK  5 active torsions:
REMARK  status: ('A' for Active; 'I' for Inactive)
REMARK    1  A    between atoms: C_1  and  C_2
REMARK    2  A    between atoms: C_2  and  C_3
REMARK    3  A    between atoms: C_13  and  C_14
REMARK    4  A    between atoms: N_21  and  C_22
REMARK    5  A    between atoms: C_22  and  C_23
REMARK                            x       y       z     vdW  Elec       q    Type
REMARK                         _______ _______ _______ _____ _____    ______ ____
ROOT
ATOM      1  C   UNL     1       5.498   4.682  18.357  0.00  0.00    +0.000 C 
ATOM      2  C   UNL     1       4.591   3.568  18.918  0.00  0.00    +0.000 C 
ATOM      3  O   UNL     1       3.793   4.028  20.021  0.00  0.00    +0.000 OA
ATOM      4  C   UNL     1       3.216   5.258  19.786  0.00  0.00    +0.000 A 
ATOM      5  C   UNL     1       2.274   5.674  20.727  0.00  0.00    +0.000 A 
ATOM      6  C   UNL     1       1.665   6.919  20.581  0.00  0.00    +0.000 A 
ATOM      7  N   UNL     1       0.745   7.337  21.552  0.00  0.00    +0.000 N 
ATOM      8  C   UNL     1       0.110   8.541  21.517  0.00  0.00    +0.000 A 
ATOM      9  O   UNL     1      -0.690   8.892  22.380  0.00  0.00    +0.000 OA
ATOM     10  C   UNL     1       0.429   9.421  20.377  0.00  0.00    +0.000 A 
ATOM     11  C   UNL     1       1.302   9.089  19.405  0.00  0.00    +0.000 A 
ATOM     12  C   UNL     1       1.970   7.768  19.498  0.00  0.00    +0.000 A 
ATOM     13  C   UNL     1       2.919   7.316  18.574  0.00  0.00    +0.000 A 
ATOM     14  C   UNL     1       3.576   6.087  18.703  0.00  0.00    +0.000 A 
ATOM     15  N   UNL     1       4.599   5.719  17.836  0.00  0.00    +0.000 N 
ATOM     16  H   UNL     1       0.531   6.746  22.343  0.00  0.00    +0.000 HD
ENDROOT
BRANCH  11  17
ATOM     17  C   UNL     1       1.547  10.085  18.303  0.00  0.00    +0.000 C 
ATOM     18  F   UNL     1       2.840  10.326  17.984  0.00  0.00    +0.000 F 
ATOM     19  F   UNL     1       0.952   9.680  17.149  0.00  0.00    +0.000 F 
ATOM     20  F   UNL     1       1.005  11.295  18.609  0.00  0.00    +0.000 F 
ENDBRANCH  11  17
BRANCH   1  22
ATOM     21  C   UNL     1       7.703   5.927  18.830  0.00  0.00    +0.000 C 
ATOM     22  C   UNL     1       6.445   5.303  19.413  0.00  0.00    +0.000 C 
ENDBRANCH   1  22
BRANCH  15  23
ATOM     23  C   UNL     1       4.780   6.291  16.487  0.00  0.00    +0.000 C 
BRANCH  23  24
ATOM     24  C   UNL     1       5.466   5.403  15.436  0.00  0.00    +0.000 C 
ATOM     25  F   UNL     1       5.029   4.124  15.441  0.00  0.00    +0.000 F 
ATOM     26  F   UNL     1       5.258   5.893  14.190  0.00  0.00    +0.000 F 
ATOM     27  F   UNL     1       6.806   5.371  15.630  0.00  0.00    +0.000 F 
ENDBRANCH  23  24
ENDBRANCH  15  23
TORSDOF 4
ENDMDL
MODEL 5
REMARK VINA RESULT:      -6.7      3.654      4.669
REMARK  Name = 
REMARK  5 active torsions:
REMARK  status: ('A' for Active; 'I' for Inactive)
REMARK    1  A    between atoms: C_1  and  C_2
REMARK    2  A    between atoms: C_2  and  C_3
REMARK    3  A    between atoms: C_13  and  C_14
REMARK    4  A    between atoms: N_21  and  C_22
REMARK    5  A    between atoms: C_22  and  C_23
REMARK                            x       y       z     vdW  Elec       q    Type
REMARK                         _______ _______ _______ _____ _____    ______ ____
ROOT
ATOM      1  C   UNL     1       5.179   3.973  18.298  0.00  0.00    +0.000 C 
ATOM      2  C   UNL     1       4.297   3.034  19.144  0.00  0.00    +0.000 C 
ATOM      3  O   UNL     1       3.702   3.715  20.262  0.00  0.00    +0.000 OA
ATOM      4  C   UNL     1       3.175   4.943  19.920  0.00  0.00    +0.000 A 
ATOM      5  C   UNL     1       2.412   5.569  20.904  0.00  0.00    +0.000 A 
ATOM      6  C   UNL     1       1.868   6.828  20.652  0.00  0.00    +0.000 A 
ATOM      7  N   UNL     1       1.131   7.459  21.662  0.00  0.00    +0.000 N 
ATOM      8  C   UNL     1       0.575   8.694  21.528  0.00  0.00    +0.000 A 
ATOM      9  O   UNL     1      -0.064   9.234  22.427  0.00  0.00    +0.000 OA
ATOM     10  C   UNL     1       0.776   9.370  20.232  0.00  0.00    +0.000 A 
ATOM     11  C   UNL     1       1.473   8.827  19.213  0.00  0.00    +0.000 A 
ATOM     12  C   UNL     1       2.062   7.482  19.418  0.00  0.00    +0.000 A 
ATOM     13  C   UNL     1       2.833   6.821  18.454  0.00  0.00    +0.000 A 
ATOM     14  C   UNL     1       3.422   5.572  18.681  0.00  0.00    +0.000 A 
ATOM     15  N   UNL     1       4.280   4.997  17.750  0.00  0.00    +0.000 N 
ATOM     16  H   UNL     1       1.000   7.008  22.558  0.00  0.00    +0.000 HD
ENDROOT
BRANCH  11  17
ATOM     17  C   UNL     1       1.614   9.628  17.947  0.00  0.00    +0.000 C 
ATOM     18  F   UNL     1       2.227  10.830  18.058  0.00  0.00    +0.000 F 
ATOM     19  F   UNL     1       2.327   8.937  17.018  0.00  0.00    +0.000 F 
ATOM     20  F   UNL     1       0.398   9.879  17.388  0.00  0.00    +0.000 F 
ENDBRANCH  11  17
BRANCH   1  22
ATOM     21  C   UNL     1       7.593   4.872  18.317  0.00  0.00    +0.000 C 
ATOM     22  C   UNL     1       6.309   4.659  19.104  0.00  0.00    +0.000 C 
ENDBRANCH   1  22
BRANCH  15  23
ATOM     23  C   UNL     1       4.294   5.350  16.316  0.00  0.00    +0.000 C 
BRANCH  23  24
ATOM     24  C   UNL     1       5.325   6.398  15.863  0.00  0.00    +0.000 C 
ATOM     25  F   UNL     1       5.771   7.187  16.866  0.00  0.00    +0.000 F 
ATOM     26  F   UNL     1       6.408   5.793  15.317  0.00  0.00    +0.000 F 
ATOM     27  F   UNL     1       4.804   7.210  14.913  0.00  0.00    +0.000 F 
ENDBRANCH  23  24
ENDBRANCH  15  23
TORSDOF 4
ENDMDL
MODEL 6
REMARK VINA RESULT:      -6.7      3.637      4.649
REMARK  Name = 
REMARK  5 active torsions:
REMARK  status: ('A' for Active; 'I' for Inactive)
REMARK    1  A    between atoms: C_1  and  C_2
REMARK    2  A    between atoms: C_2  and  C_3
REMARK    3  A    between atoms: C_13  and  C_14
REMARK    4  A    between atoms: N_21  and  C_22
REMARK    5  A    between atoms: C_22  and  C_23
REMARK                            x       y       z     vdW  Elec       q    Type
REMARK                         _______ _______ _______ _____ _____    ______ ____
ROOT
ATOM      1  C   UNL     1       5.170   3.992  18.350  0.00  0.00    +0.000 C 
ATOM      2  C   UNL     1       4.295   3.053  19.204  0.00  0.00    +0.000 C 
ATOM      3  O   UNL     1       3.695   3.738  20.317  0.00  0.00    +0.000 OA
ATOM      4  C   UNL     1       3.159   4.959  19.965  0.00  0.00    +0.000 A 
ATOM      5  C   UNL     1       2.391   5.587  20.945  0.00  0.00    +0.000 A 
ATOM      6  C   UNL     1       1.839   6.840  20.683  0.00  0.00    +0.000 A 
ATOM      7  N   UNL     1       1.097   7.473  21.689  0.00  0.00    +0.000 N 
ATOM      8  C   UNL     1       0.531   8.703  21.544  0.00  0.00    +0.000 A 
ATOM      9  O   UNL     1      -0.111   9.245  22.440  0.00  0.00    +0.000 OA
ATOM     10  C   UNL     1       0.728   9.371  20.243  0.00  0.00    +0.000 A 
ATOM     11  C   UNL     1       1.428   8.825  19.228  0.00  0.00    +0.000 A 
ATOM     12  C   UNL     1       2.028   7.485  19.444  0.00  0.00    +0.000 A 
ATOM     13  C   UNL     1       2.803   6.823  18.485  0.00  0.00    +0.000 A 
ATOM     14  C   UNL     1       3.401   5.580  18.722  0.00  0.00    +0.000 A 
ATOM     15  N   UNL     1       4.263   5.005  17.795  0.00  0.00    +0.000 N 
ATOM     16  H   UNL     1       0.969   7.029  22.588  0.00  0.00    +0.000 HD
ENDROOT
BRANCH  11  17
ATOM     17  C   UNL     1       1.563   9.617  17.956  0.00  0.00    +0.000 C 
ATOM     18  F   UNL     1       2.330   9.071  16.984  0.00  0.00    +0.000 F 
ATOM     19  F   UNL     1       0.344   9.827  17.389  0.00  0.00    +0.000 F 
ATOM     20  F   UNL     1       2.088  10.848  18.200  0.00  0.00    +0.000 F 
ENDBRANCH  11  17
BRANCH   1  22
ATOM     21  C   UNL     1       7.574   4.915  18.360  0.00  0.00    +0.000 C 
ATOM     22  C   UNL     1       6.295   4.691  19.151  0.00  0.00    +0.000 C 
ENDBRANCH   1  22
BRANCH  15  23
ATOM     23  C   UNL     1       4.275   5.347  16.358  0.00  0.00    +0.000 C 
BRANCH  23  24
ATOM     24  C   UNL     1       5.293   6.403  15.898  0.00  0.00    +0.000 C 
ATOM     25  F   UNL     1       4.822   7.226  14.937  0.00  0.00    +0.000 F 
ATOM     26  F   UNL     1       5.675   7.181  16.941  0.00  0.00    +0.000 F 
ATOM     27  F   UNL     1       6.413   5.815  15.413  0.00  0.00    +0.000 F 
ENDBRANCH  23  24
ENDBRANCH  15  23
TORSDOF 4
ENDMDL
MODEL 7
REMARK VINA RESULT:      -6.7      3.553      4.648
REMARK  Name = 
REMARK  5 active torsions:
REMARK  status: ('A' for Active; 'I' for Inactive)
REMARK    1  A    between atoms: C_1  and  C_2
REMARK    2  A    between atoms: C_2  and  C_3
REMARK    3  A    between atoms: C_13  and  C_14
REMARK    4  A    between atoms: N_21  and  C_22
REMARK    5  A    between atoms: C_22  and  C_23
REMARK                            x       y       z     vdW  Elec       q    Type
REMARK                         _______ _______ _______ _____ _____    ______ ____
ROOT
ATOM      1  C   UNL     1       5.513   4.655  18.360  0.00  0.00    +0.000 C 
ATOM      2  C   UNL     1       4.606   3.546  18.927  0.00  0.00    +0.000 C 
ATOM      3  O   UNL     1       3.808   4.011  20.028  0.00  0.00    +0.000 OA
ATOM      4  C   UNL     1       3.232   5.241  19.787  0.00  0.00    +0.000 A 
ATOM      5  C   UNL     1       2.290   5.662  20.725  0.00  0.00    +0.000 A 
ATOM      6  C   UNL     1       1.682   6.908  20.573  0.00  0.00    +0.000 A 
ATOM      7  N   UNL     1       0.763   7.331  21.542  0.00  0.00    +0.000 N 
ATOM      8  C   UNL     1       0.128   8.535  21.500  0.00  0.00    +0.000 A 
ATOM      9  O   UNL     1      -0.672   8.892  22.361  0.00  0.00    +0.000 OA
ATOM     10  C   UNL     1       0.447   9.409  20.355  0.00  0.00    +0.000 A 
ATOM     11  C   UNL     1       1.320   9.071  19.385  0.00  0.00    +0.000 A 
ATOM     12  C   UNL     1       1.987   7.750  19.485  0.00  0.00    +0.000 A 
ATOM     13  C   UNL     1       2.936   7.292  18.564  0.00  0.00    +0.000 A 
ATOM     14  C   UNL     1       3.592   6.063  18.699  0.00  0.00    +0.000 A 
ATOM     15  N   UNL     1       4.615   5.691  17.833  0.00  0.00    +0.000 N 
ATOM     16  H   UNL     1       0.548   6.744  22.336  0.00  0.00    +0.000 HD
ENDROOT
BRANCH  11  17
ATOM     17  C   UNL     1       1.565  10.061  18.278  0.00  0.00    +0.000 C 
ATOM     18  F   UNL     1       1.074  11.309  18.465  0.00  0.00    +0.000 F 
ATOM     19  F   UNL     1       2.899  10.219  18.063  0.00  0.00    +0.000 F 
ATOM     20  F   UNL     1       1.037   9.622  17.104  0.00  0.00    +0.000 F 
ENDBRANCH  11  17
BRANCH   1  22
ATOM     21  C   UNL     1       7.678   5.972  18.819  0.00  0.00    +0.000 C 
ATOM     22  C   UNL     1       6.460   5.282  19.412  0.00  0.00    +0.000 C 
ENDBRANCH   1  22
BRANCH  15  23
ATOM     23  C   UNL     1       4.795   6.256  16.481  0.00  0.00    +0.000 C 
BRANCH  23  24
ATOM     24  C   UNL     1       5.481   5.361  15.435  0.00  0.00    +0.000 C 
ATOM     25  F   UNL     1       5.278   5.764  14.162  0.00  0.00    +0.000 F 
ATOM     26  F   UNL     1       6.821   5.334  15.638  0.00  0.00    +0.000 F 
ATOM     27  F   UNL     1       5.041   4.083  15.529  0.00  0.00    +0.000 F 
ENDBRANCH  23  24
ENDBRANCH  15  23
TORSDOF 4
ENDMDL
MODEL 8
REMARK VINA RESULT:      -6.6      3.322      7.168
REMARK  Name = 
REMARK  5 active torsions:
REMARK  status: ('A' for Active; 'I' for Inactive)
REMARK    1  A    between atoms: C_1  and  C_2
REMARK    2  A    between atoms: C_2  and  C_3
REMARK    3  A    between atoms: C_13  and  C_14
REMARK    4  A    between atoms: N_21  and  C_22
REMARK    5  A    between atoms: C_22  and  C_23
REMARK                            x       y       z     vdW  Elec       q    Type
REMARK                         _______ _______ _______ _____ _____    ______ ____
ROOT
ATOM      1  C   UNL     1      -0.236  10.987  19.651  0.00  0.00    +0.000 C 
ATOM      2  C   UNL     1      -0.203  10.794  21.179  0.00  0.00    +0.000 C 
ATOM      3  O   UNL     1      -0.166   9.405  21.547  0.00  0.00    +0.000 OA
ATOM      4  C   UNL     1       0.734   8.678  20.796  0.00  0.00    +0.000 A 
ATOM      5  C   UNL     1       0.967   7.372  21.228  0.00  0.00    +0.000 A 
ATOM      6  C   UNL     1       1.839   6.559  20.507  0.00  0.00    +0.000 A 
ATOM      7  N   UNL     1       2.037   5.239  20.934  0.00  0.00    +0.000 N 
ATOM      8  C   UNL     1       2.851   4.356  20.292  0.00  0.00    +0.000 A 
ATOM      9  O   UNL     1       3.009   3.200  20.678  0.00  0.00    +0.000 OA
ATOM     10  C   UNL     1       3.549   4.854  19.092  0.00  0.00    +0.000 A 
ATOM     11  C   UNL     1       3.410   6.110  18.621  0.00  0.00    +0.000 A 
ATOM     12  C   UNL     1       2.504   7.027  19.356  0.00  0.00    +0.000 A 
ATOM     13  C   UNL     1       2.247   8.343  18.955  0.00  0.00    +0.000 A 
ATOM     14  C   UNL     1       1.353   9.180  19.632  0.00  0.00    +0.000 A 
ATOM     15  N   UNL     1       1.028  10.440  19.141  0.00  0.00    +0.000 N 
ATOM     16  H   UNL     1       1.553   4.885  21.747  0.00  0.00    +0.000 HD
ENDROOT
BRANCH  11  17
ATOM     17  C   UNL     1       4.169   6.487  17.378  0.00  0.00    +0.000 C 
ATOM     18  F   UNL     1       3.638   7.478  16.624  0.00  0.00    +0.000 F 
ATOM     19  F   UNL     1       5.428   6.898  17.691  0.00  0.00    +0.000 F 
ATOM     20  F   UNL     1       4.311   5.419  16.548  0.00  0.00    +0.000 F 
ENDBRANCH  11  17
BRANCH   1  22
ATOM     21  C   UNL     1      -1.646  10.693  17.515  0.00  0.00    +0.000 C 
ATOM     22  C   UNL     1      -1.422  10.272  18.959  0.00  0.00    +0.000 C 
ENDBRANCH   1  22
BRANCH  15  23
ATOM     23  C   UNL     1       1.875  11.200  18.200  0.00  0.00    +0.000 C 
BRANCH  23  24
ATOM     24  C   UNL     1       2.189  12.661  18.564  0.00  0.00    +0.000 C 
ATOM     25  F   UNL     1       1.199  13.522  18.243  0.00  0.00    +0.000 F 
ATOM     26  F   UNL     1       2.409  12.782  19.896  0.00  0.00    +0.000 F 
ATOM     27  F   UNL     1       3.312  13.085  17.937  0.00  0.00    +0.000 F 
ENDBRANCH  23  24
ENDBRANCH  15  23
TORSDOF 4
ENDMDL
MODEL 9
REMARK VINA RESULT:      -6.5      6.199      8.081
REMARK  Name = 
REMARK  5 active torsions:
REMARK  status: ('A' for Active; 'I' for Inactive)
REMARK    1  A    between atoms: C_1  and  C_2
REMARK    2  A    between atoms: C_2  and  C_3
REMARK    3  A    between atoms: C_13  and  C_14
REMARK    4  A    between atoms: N_21  and  C_22
REMARK    5  A    between atoms: C_22  and  C_23
REMARK                            x       y       z     vdW  Elec       q    Type
REMARK                         _______ _______ _______ _____ _____    ______ ____
ROOT
ATOM      1  C   UNL     1      -0.568  11.844  22.298  0.00  0.00    +0.000 C 
ATOM      2  C   UNL     1       0.665  12.048  21.397  0.00  0.00    +0.000 C 
ATOM      3  O   UNL     1       0.548  11.339  20.152  0.00  0.00    +0.000 OA
ATOM      4  C   UNL     1      -0.695  11.484  19.570  0.00  0.00    +0.000 A 
ATOM      5  C   UNL     1      -0.816  10.990  18.272  0.00  0.00    +0.000 A 
ATOM      6  C   UNL     1      -2.047  11.069  17.623  0.00  0.00    +0.000 A 
ATOM      7  N   UNL     1      -2.162  10.538  16.331  0.00  0.00    +0.000 N 
ATOM      8  C   UNL     1      -3.321  10.545  15.616  0.00  0.00    +0.000 A 
ATOM      9  O   UNL     1      -3.405  10.070  14.487  0.00  0.00    +0.000 OA
ATOM     10  C   UNL     1      -4.494  11.158  16.268  0.00  0.00    +0.000 A 
ATOM     11  C   UNL     1      -4.461  11.689  17.507  0.00  0.00    +0.000 A 
ATOM     12  C   UNL     1      -3.173  11.648  18.242  0.00  0.00    +0.000 A 
ATOM     13  C   UNL     1      -3.011  12.134  19.544  0.00  0.00    +0.000 A 
ATOM     14  C   UNL     1      -1.801  12.044  20.242  0.00  0.00    +0.000 A 
ATOM     15  N   UNL     1      -1.706  12.427  21.575  0.00  0.00    +0.000 N 
ATOM     16  H   UNL     1      -1.367  10.104  15.882  0.00  0.00    +0.000 HD
ENDROOT
BRANCH  11  17
ATOM     17  C   UNL     1      -5.732  12.273  18.060  0.00  0.00    +0.000 C 
ATOM     18  F   UNL     1      -6.168  11.763  19.236  0.00  0.00    +0.000 F 
ATOM     19  F   UNL     1      -5.597  13.610  18.267  0.00  0.00    +0.000 F 
ATOM     20  F   UNL     1      -6.762  12.124  17.183  0.00  0.00    +0.000 F 
ENDBRANCH  11  17
BRANCH   1  22
ATOM     21  C   UNL     1       0.343   9.566  23.084  0.00  0.00    +0.000 C 
ATOM     22  C   UNL     1      -0.867  10.358  22.615  0.00  0.00    +0.000 C 
ENDBRANCH   1  22
BRANCH  15  23
ATOM     23  C   UNL     1      -2.642  13.360  22.233  0.00  0.00    +0.000 C 
BRANCH  23  24
ATOM     24  C   UNL     1      -3.798  12.741  23.037  0.00  0.00    +0.000 C 
ATOM     25  F   UNL     1      -4.441  13.626  23.829  0.00  0.00    +0.000 F 
ATOM     26  F   UNL     1      -4.721  12.203  22.203  0.00  0.00    +0.000 F 
ATOM     27  F   UNL     1      -3.351  11.739  23.832  0.00  0.00    +0.000 F 
ENDBRANCH  23  24
ENDBRANCH  15  23
TORSDOF 4
ENDMDL
