MODEL 1
REMARK VINA RESULT:      -8.1      0.000      0.000
REMARK  Name = 
REMARK  5 active torsions:
REMARK  status: ('A' for Active; 'I' for Inactive)
REMARK    1  A    between atoms: C_1  and  C_2
REMARK    2  A    between atoms: C_2  and  C_3
REMARK    3  A    between atoms: C_13  and  C_14
REMARK    4  A    between atoms: C_21  and  C_22
REMARK    5  A    between atoms: C_22  and  C_23
REMARK                            x       y       z     vdW  Elec       q    Type
REMARK                         _______ _______ _______ _____ _____    ______ ____
ROOT
ATOM      1  C   UNL     1       3.521   4.572  18.949  0.00  0.00    +0.000 C 
ATOM      2  C   UNL     1       4.367   5.472  18.043  0.00  0.00    +0.000 C 
ATOM      3  N   UNL     1       3.493   6.457  17.428  0.00  0.00    +0.000 N 
ATOM      4  C   UNL     1       2.790   7.258  18.332  0.00  0.00    +0.000 A 
ATOM      5  C   UNL     1       2.246   8.463  17.888  0.00  0.00    +0.000 A 
ATOM      6  C   UNL     1       1.454   9.236  18.744  0.00  0.00    +0.000 A 
ATOM      7  O   UNL     1       0.945  10.426  18.194  0.00  0.00    +0.000 OA
ATOM      8  C   UNL     1       0.133  11.258  18.935  0.00  0.00    +0.000 A 
ATOM      9  O   UNL     1      -0.313  12.310  18.495  0.00  0.00    +0.000 OA
ATOM     10  C   UNL     1      -0.201  10.815  20.293  0.00  0.00    +0.000 A 
ATOM     11  C   UNL     1       0.272   9.690  20.857  0.00  0.00    +0.000 A 
ATOM     12  C   UNL     1       1.177   8.852  20.059  0.00  0.00    +0.000 A 
ATOM     13  C   UNL     1       1.758   7.659  20.495  0.00  0.00    +0.000 A 
ATOM     14  C   UNL     1       2.492   6.814  19.632  0.00  0.00    +0.000 A 
ATOM     15  C   UNL     1       2.959   5.439  20.120  0.00  0.00    +0.000 C 
ATOM     16  H   UNL     1       3.910   6.965  16.653  0.00  0.00    +0.000 HD
ENDROOT
BRANCH  11  17
ATOM     17  C   UNL     1      -0.207   9.338  22.237  0.00  0.00    +0.000 C 
ATOM     18  F   UNL     1       0.752   9.177  23.179  0.00  0.00    +0.000 F 
ATOM     19  F   UNL     1      -1.054  10.289  22.714  0.00  0.00    +0.000 F 
ATOM     20  F   UNL     1      -0.912   8.174  22.223  0.00  0.00    +0.000 F 
ENDBRANCH  11  17
BRANCH   1  22
ATOM     21  C   UNL     1       3.759   2.027  18.918  0.00  0.00    +0.000 C 
ATOM     22  C   UNL     1       4.320   3.347  19.438  0.00  0.00    +0.000 C 
ENDBRANCH   1  22
BRANCH  15  23
ATOM     23  C   UNL     1       1.865   4.687  20.932  0.00  0.00    +0.000 C 
ATOM     24  C   UNL     1       0.834   3.935  20.096  0.00  0.00    +0.000 C 
ENDBRANCH  15  23
TORSDOF 3
ENDMDL
MODEL 2
REMARK VINA RESULT:      -7.7      0.825      1.175
REMARK  Name = 
REMARK  5 active torsions:
REMARK  status: ('A' for Active; 'I' for Inactive)
REMARK    1  A    between atoms: C_1  and  C_2
REMARK    2  A    between atoms: C_2  and  C_3
REMARK    3  A    between atoms: C_13  and  C_14
REMARK    4  A    between atoms: C_21  and  C_22
REMARK    5  A    between atoms: C_22  and  C_23
REMARK                            x       y       z     vdW  Elec       q    Type
REMARK                         _______ _______ _______ _____ _____    ______ ____
ROOT
ATOM      1  C   UNL     1       3.307   5.303  18.291  0.00  0.00    +0.000 C 
ATOM      2  C   UNL     1       4.135   6.361  17.554  0.00  0.00    +0.000 C 
ATOM      3  N   UNL     1       3.248   7.438  17.147  0.00  0.00    +0.000 N 
ATOM      4  C   UNL     1       2.557   8.053  18.194  0.00  0.00    +0.000 A 
ATOM      5  C   UNL     1       2.002   9.316  17.991  0.00  0.00    +0.000 A 
ATOM      6  C   UNL     1       1.222   9.911  18.987  0.00  0.00    +0.000 A 
ATOM      7  O   UNL     1       0.700  11.180  18.676  0.00  0.00    +0.000 OA
ATOM      8  C   UNL     1      -0.103  11.854  19.571  0.00  0.00    +0.000 A 
ATOM      9  O   UNL     1      -0.560  12.967  19.341  0.00  0.00    +0.000 OA
ATOM     10  C   UNL     1      -0.412  11.165  20.829  0.00  0.00    +0.000 A 
ATOM     11  C   UNL     1       0.073   9.958  21.166  0.00  0.00    +0.000 A 
ATOM     12  C   UNL     1       0.967   9.288  20.213  0.00  0.00    +0.000 A 
ATOM     13  C   UNL     1       1.560   8.039  20.410  0.00  0.00    +0.000 A 
ATOM     14  C   UNL     1       2.282   7.374  19.393  0.00  0.00    +0.000 A 
ATOM     15  C   UNL     1       2.762   5.934  19.611  0.00  0.00    +0.000 C 
ATOM     16  H   UNL     1       3.650   8.084  16.473  0.00  0.00    +0.000 HD
ENDROOT
BRANCH  11  17
ATOM     17  C   UNL     1      -0.381   9.353  22.465  0.00  0.00    +0.000 C 
ATOM     18  F   UNL     1      -1.246  10.092  23.197  0.00  0.00    +0.000 F 
ATOM     19  F   UNL     1      -0.987   8.154  22.254  0.00  0.00    +0.000 F 
ATOM     20  F   UNL     1       0.679   9.105  23.281  0.00  0.00    +0.000 F 
ENDBRANCH  11  17
BRANCH   1  22
ATOM     21  C   UNL     1       3.496   2.790  17.868  0.00  0.00    +0.000 C 
ATOM     22  C   UNL     1       4.118   4.015  18.531  0.00  0.00    +0.000 C 
ENDBRANCH   1  22
BRANCH  15  23
ATOM     23  C   UNL     1       1.684   5.038  20.286  0.00  0.00    +0.000 C 
ATOM     24  C   UNL     1       2.186   4.168  21.434  0.00  0.00    +0.000 C 
ENDBRANCH  15  23
TORSDOF 3
ENDMDL
MODEL 3
REMARK VINA RESULT:      -7.7      0.977      1.316
REMARK  Name = 
REMARK  5 active torsions:
REMARK  status: ('A' for Active; 'I' for Inactive)
REMARK    1  A    between atoms: C_1  and  C_2
REMARK    2  A    between atoms: C_2  and  C_3
REMARK    3  A    between atoms: C_13  and  C_14
REMARK    4  A    between atoms: C_21  and  C_22
REMARK    5  A    between atoms: C_22  and  C_23
REMARK                            x       y       z     vdW  Elec       q    Type
REMARK                         _______ _______ _______ _____ _____    ______ ____
ROOT
ATOM      1  C   UNL     1       3.055   3.649  18.624  0.00  0.00    +0.000 C 
ATOM      2  C   UNL     1       4.228   4.367  17.948  0.00  0.00    +0.000 C 
ATOM      3  N   UNL     1       3.723   5.571  17.310  0.00  0.00    +0.000 N 
ATOM      4  C   UNL     1       3.083   6.465  18.173  0.00  0.00    +0.000 A 
ATOM      5  C   UNL     1       2.917   7.790  17.774  0.00  0.00    +0.000 A 
ATOM      6  C   UNL     1       2.192   8.681  18.573  0.00  0.00    +0.000 A 
ATOM      7  O   UNL     1       2.074   9.990  18.074  0.00  0.00    +0.000 OA
ATOM      8  C   UNL     1       1.363  10.950  18.763  0.00  0.00    +0.000 A 
ATOM      9  O   UNL     1       1.254  12.103  18.368  0.00  0.00    +0.000 OA
ATOM     10  C   UNL     1       0.711  10.521  20.006  0.00  0.00    +0.000 A 
ATOM     11  C   UNL     1       0.808   9.283  20.520  0.00  0.00    +0.000 A 
ATOM     12  C   UNL     1       1.615   8.298  19.788  0.00  0.00    +0.000 A 
ATOM     13  C   UNL     1       1.821   6.976  20.186  0.00  0.00    +0.000 A 
ATOM     14  C   UNL     1       2.474   6.030  19.363  0.00  0.00    +0.000 A 
ATOM     15  C   UNL     1       2.520   4.555  19.777  0.00  0.00    +0.000 C 
ATOM     16  H   UNL     1       4.372   6.007  16.660  0.00  0.00    +0.000 HD
ENDROOT
BRANCH  11  17
ATOM     17  C   UNL     1       0.034   8.977  21.772  0.00  0.00    +0.000 C 
ATOM     18  F   UNL     1      -0.802   9.948  22.209  0.00  0.00    +0.000 F 
ATOM     19  F   UNL     1      -0.727   7.862  21.609  0.00  0.00    +0.000 F 
ATOM     20  F   UNL     1       0.875   8.716  22.809  0.00  0.00    +0.000 F 
ENDBRANCH  11  17
BRANCH   1  22
ATOM     21  C   UNL     1       4.572   2.260  20.142  0.00  0.00    +0.000 C 
ATOM     22  C   UNL     1       3.454   2.239  19.104  0.00  0.00    +0.000 C 
ENDBRANCH   1  22
BRANCH  15  23
ATOM     23  C   UNL     1       1.161   4.047  20.338  0.00  0.00    +0.000 C 
ATOM     24  C   UNL     1       1.261   3.072  21.507  0.00  0.00    +0.000 C 
ENDBRANCH  15  23
TORSDOF 3
ENDMDL
MODEL 4
REMARK VINA RESULT:      -7.7      0.827      1.226
REMARK  Name = 
REMARK  5 active torsions:
REMARK  status: ('A' for Active; 'I' for Inactive)
REMARK    1  A    between atoms: C_1  and  C_2
REMARK    2  A    between atoms: C_2  and  C_3
REMARK    3  A    between atoms: C_13  and  C_14
REMARK    4  A    between atoms: C_21  and  C_22
REMARK    5  A    between atoms: C_22  and  C_23
REMARK                            x       y       z     vdW  Elec       q    Type
REMARK                         _______ _______ _______ _____ _____    ______ ____
ROOT
ATOM      1  C   UNL     1       3.324   5.285  18.715  0.00  0.00    +0.000 C 
ATOM      2  C   UNL     1       4.044   6.302  17.823  0.00  0.00    +0.000 C 
ATOM      3  N   UNL     1       3.070   7.273  17.354  0.00  0.00    +0.000 N 
ATOM      4  C   UNL     1       2.395   7.959  18.367  0.00  0.00    +0.000 A 
ATOM      5  C   UNL     1       1.750   9.157  18.061  0.00  0.00    +0.000 A 
ATOM      6  C   UNL     1       0.984   9.812  19.031  0.00  0.00    +0.000 A 
ATOM      7  O   UNL     1       0.367  11.005  18.616  0.00  0.00    +0.000 OA
ATOM      8  C   UNL     1      -0.432  11.727  19.478  0.00  0.00    +0.000 A 
ATOM      9  O   UNL     1      -0.970  12.778  19.156  0.00  0.00    +0.000 OA
ATOM     10  C   UNL     1      -0.633  11.163  20.818  0.00  0.00    +0.000 A 
ATOM     11  C   UNL     1      -0.055  10.031  21.254  0.00  0.00    +0.000 A 
ATOM     12  C   UNL     1       0.832   9.314  20.329  0.00  0.00    +0.000 A 
ATOM     13  C   UNL     1       1.513   8.131  20.625  0.00  0.00    +0.000 A 
ATOM     14  C   UNL     1       2.224   7.401  19.646  0.00  0.00    +0.000 A 
ATOM     15  C   UNL     1       2.806   6.024  19.988  0.00  0.00    +0.000 C 
ATOM     16  H   UNL     1       3.396   7.863  16.593  0.00  0.00    +0.000 HD
ENDROOT
BRANCH  11  17
ATOM     17  C   UNL     1      -0.404   9.547  22.634  0.00  0.00    +0.000 C 
ATOM     18  F   UNL     1      -0.980   8.325  22.709  0.00  0.00    +0.000 F 
ATOM     19  F   UNL     1       0.701   9.499  23.424  0.00  0.00    +0.000 F 
ATOM     20  F   UNL     1      -1.270  10.403  23.242  0.00  0.00    +0.000 F 
ENDBRANCH  11  17
BRANCH   1  22
ATOM     21  C   UNL     1       5.713   4.403  18.928  0.00  0.00    +0.000 C 
ATOM     22  C   UNL     1       4.227   4.080  19.045  0.00  0.00    +0.000 C 
ENDBRANCH   1  22
BRANCH  15  23
ATOM     23  C   UNL     1       1.823   5.147  20.816  0.00  0.00    +0.000 C 
ATOM     24  C   UNL     1       0.987   4.161  20.004  0.00  0.00    +0.000 C 
ENDBRANCH  15  23
TORSDOF 3
ENDMDL
MODEL 5
REMARK VINA RESULT:      -7.4      4.905      6.993
REMARK  Name = 
REMARK  5 active torsions:
REMARK  status: ('A' for Active; 'I' for Inactive)
REMARK    1  A    between atoms: C_1  and  C_2
REMARK    2  A    between atoms: C_2  and  C_3
REMARK    3  A    between atoms: C_13  and  C_14
REMARK    4  A    between atoms: C_21  and  C_22
REMARK    5  A    between atoms: C_22  and  C_23
REMARK                            x       y       z     vdW  Elec       q    Type
REMARK                         _______ _______ _______ _____ _____    ______ ____
ROOT
ATOM      1  C   UNL     1       1.718   3.565  19.589  0.00  0.00    +0.000 C 
ATOM      2  C   UNL     1       1.981   2.214  18.917  0.00  0.00    +0.000 C 
ATOM      3  N   UNL     1       2.373   2.454  17.539  0.00  0.00    +0.000 N 
ATOM      4  C   UNL     1       3.503   3.261  17.386  0.00  0.00    +0.000 A 
ATOM      5  C   UNL     1       4.194   3.238  16.175  0.00  0.00    +0.000 A 
ATOM      6  C   UNL     1       5.267   4.109  15.959  0.00  0.00    +0.000 A 
ATOM      7  O   UNL     1       5.886   4.012  14.700  0.00  0.00    +0.000 OA
ATOM      8  C   UNL     1       6.940   4.835  14.364  0.00  0.00    +0.000 A 
ATOM      9  O   UNL     1       7.515   4.767  13.285  0.00  0.00    +0.000 OA
ATOM     10  C   UNL     1       7.343   5.832  15.364  0.00  0.00    +0.000 A 
ATOM     11  C   UNL     1       6.782   5.950  16.579  0.00  0.00    +0.000 A 
ATOM     12  C   UNL     1       5.696   5.024  16.925  0.00  0.00    +0.000 A 
ATOM     13  C   UNL     1       5.013   5.008  18.143  0.00  0.00    +0.000 A 
ATOM     14  C   UNL     1       3.873   4.202  18.362  0.00  0.00    +0.000 A 
ATOM     15  C   UNL     1       3.064   4.353  19.656  0.00  0.00    +0.000 C 
ATOM     16  H   UNL     1       2.366   1.626  16.948  0.00  0.00    +0.000 HD
ENDROOT
BRANCH  11  17
ATOM     17  C   UNL     1       7.262   7.059  17.473  0.00  0.00    +0.000 C 
ATOM     18  F   UNL     1       8.241   7.848  16.971  0.00  0.00    +0.000 F 
ATOM     19  F   UNL     1       6.238   7.888  17.808  0.00  0.00    +0.000 F 
ATOM     20  F   UNL     1       7.748   6.562  18.643  0.00  0.00    +0.000 F 
ENDBRANCH  11  17
BRANCH   1  22
ATOM     21  C   UNL     1       1.926   2.623  21.955  0.00  0.00    +0.000 C 
ATOM     22  C   UNL     1       1.053   3.393  20.969  0.00  0.00    +0.000 C 
ENDBRANCH   1  22
BRANCH  15  23
ATOM     23  C   UNL     1       2.852   5.840  20.060  0.00  0.00    +0.000 C 
ATOM     24  C   UNL     1       2.261   6.734  18.974  0.00  0.00    +0.000 C 
ENDBRANCH  15  23
TORSDOF 3
ENDMDL
MODEL 6
REMARK VINA RESULT:      -7.3      3.053      6.119
REMARK  Name = 
REMARK  5 active torsions:
REMARK  status: ('A' for Active; 'I' for Inactive)
REMARK    1  A    between atoms: C_1  and  C_2
REMARK    2  A    between atoms: C_2  and  C_3
REMARK    3  A    between atoms: C_13  and  C_14
REMARK    4  A    between atoms: C_21  and  C_22
REMARK    5  A    between atoms: C_22  and  C_23
REMARK                            x       y       z     vdW  Elec       q    Type
REMARK                         _______ _______ _______ _____ _____    ______ ____
ROOT
ATOM      1  C   UNL     1       1.006  10.878  20.093  0.00  0.00    +0.000 C 
ATOM      2  C   UNL     1       0.945  10.964  18.565  0.00  0.00    +0.000 C 
ATOM      3  N   UNL     1       2.067  10.221  18.017  0.00  0.00    +0.000 N 
ATOM      4  C   UNL     1       2.114   8.876  18.391  0.00  0.00    +0.000 A 
ATOM      5  C   UNL     1       2.884   7.990  17.638  0.00  0.00    +0.000 A 
ATOM      6  C   UNL     1       3.030   6.660  18.047  0.00  0.00    +0.000 A 
ATOM      7  O   UNL     1       3.836   5.854  17.224  0.00  0.00    +0.000 OA
ATOM      8  C   UNL     1       4.071   4.532  17.538  0.00  0.00    +0.000 A 
ATOM      9  O   UNL     1       4.752   3.797  16.836  0.00  0.00    +0.000 OA
ATOM     10  C   UNL     1       3.477   4.035  18.785  0.00  0.00    +0.000 A 
ATOM     11  C   UNL     1       2.695   4.771  19.593  0.00  0.00    +0.000 A 
ATOM     12  C   UNL     1       2.422   6.160  19.203  0.00  0.00    +0.000 A 
ATOM     13  C   UNL     1       1.628   7.055  19.925  0.00  0.00    +0.000 A 
ATOM     14  C   UNL     1       1.529   8.423  19.586  0.00  0.00    +0.000 A 
ATOM     15  C   UNL     1       0.783   9.390  20.512  0.00  0.00    +0.000 C 
ATOM     16  H   UNL     1       2.241  10.388  17.029  0.00  0.00    +0.000 HD
ENDROOT
BRANCH  11  17
ATOM     17  C   UNL     1       2.208   4.141  20.868  0.00  0.00    +0.000 C 
ATOM     18  F   UNL     1       2.516   4.795  22.012  0.00  0.00    +0.000 F 
ATOM     19  F   UNL     1       0.855   4.008  20.856  0.00  0.00    +0.000 F 
ATOM     20  F   UNL     1       2.712   2.885  21.011  0.00  0.00    +0.000 F 
ENDBRANCH  11  17
BRANCH   1  22
ATOM     21  C   UNL     1      -1.416  11.682  20.231  0.00  0.00    +0.000 C 
ATOM     22  C   UNL     1       0.007  11.845  20.757  0.00  0.00    +0.000 C 
ENDBRANCH   1  22
BRANCH  15  23
ATOM     23  C   UNL     1       1.106   9.151  22.015  0.00  0.00    +0.000 C 
ATOM     24  C   UNL     1      -0.095   9.191  22.955  0.00  0.00    +0.000 C 
ENDBRANCH  15  23
TORSDOF 3
ENDMDL
MODEL 7
REMARK VINA RESULT:      -7.0      6.297      8.333
REMARK  Name = 
REMARK  5 active torsions:
REMARK  status: ('A' for Active; 'I' for Inactive)
REMARK    1  A    between atoms: C_1  and  C_2
REMARK    2  A    between atoms: C_2  and  C_3
REMARK    3  A    between atoms: C_13  and  C_14
REMARK    4  A    between atoms: C_21  and  C_22
REMARK    5  A    between atoms: C_22  and  C_23
REMARK                            x       y       z     vdW  Elec       q    Type
REMARK                         _______ _______ _______ _____ _____    ______ ____
ROOT
ATOM      1  C   UNL     1       3.401   4.078  19.248  0.00  0.00    +0.000 C 
ATOM      2  C   UNL     1       4.013   5.455  19.528  0.00  0.00    +0.000 C 
ATOM      3  N   UNL     1       5.347   5.491  18.955  0.00  0.00    +0.000 N 
ATOM      4  C   UNL     1       5.398   5.245  17.580  0.00  0.00    +0.000 A 
ATOM      5  C   UNL     1       6.530   5.634  16.864  0.00  0.00    +0.000 A 
ATOM      6  C   UNL     1       6.651   5.312  15.508  0.00  0.00    +0.000 A 
ATOM      7  O   UNL     1       7.836   5.741  14.883  0.00  0.00    +0.000 OA
ATOM      8  C   UNL     1       8.077   5.461  13.555  0.00  0.00    +0.000 A 
ATOM      9  O   UNL     1       9.088   5.834  12.974  0.00  0.00    +0.000 OA
ATOM     10  C   UNL     1       7.063   4.665  12.854  0.00  0.00    +0.000 A 
ATOM     11  C   UNL     1       5.915   4.245  13.413  0.00  0.00    +0.000 A 
ATOM     12  C   UNL     1       5.665   4.603  14.815  0.00  0.00    +0.000 A 
ATOM     13  C   UNL     1       4.525   4.252  15.542  0.00  0.00    +0.000 A 
ATOM     14  C   UNL     1       4.409   4.488  16.930  0.00  0.00    +0.000 A 
ATOM     15  C   UNL     1       3.211   3.928  17.706  0.00  0.00    +0.000 C 
ATOM     16  H   UNL     1       5.917   6.274  19.263  0.00  0.00    +0.000 HD
ENDROOT
BRANCH  11  17
ATOM     17  C   UNL     1       5.000   3.386  12.585  0.00  0.00    +0.000 C 
ATOM     18  F   UNL     1       3.826   3.038  13.161  0.00  0.00    +0.000 F 
ATOM     19  F   UNL     1       4.684   4.003  11.415  0.00  0.00    +0.000 F 
ATOM     20  F   UNL     1       5.609   2.217  12.247  0.00  0.00    +0.000 F 
ENDBRANCH  11  17
BRANCH   1  22
ATOM     21  C   UNL     1       2.281   2.980  21.266  0.00  0.00    +0.000 C 
ATOM     22  C   UNL     1       2.095   3.866  20.038  0.00  0.00    +0.000 C 
ENDBRANCH   1  22
BRANCH  15  23
ATOM     23  C   UNL     1       2.863   2.467  17.299  0.00  0.00    +0.000 C 
ATOM     24  C   UNL     1       3.596   1.380  18.080  0.00  0.00    +0.000 C 
ENDBRANCH  15  23
TORSDOF 3
ENDMDL
MODEL 8
REMARK VINA RESULT:      -6.9      3.776      5.902
REMARK  Name = 
REMARK  5 active torsions:
REMARK  status: ('A' for Active; 'I' for Inactive)
REMARK    1  A    between atoms: C_1  and  C_2
REMARK    2  A    between atoms: C_2  and  C_3
REMARK    3  A    between atoms: C_13  and  C_14
REMARK    4  A    between atoms: C_21  and  C_22
REMARK    5  A    between atoms: C_22  and  C_23
REMARK                            x       y       z     vdW  Elec       q    Type
REMARK                         _______ _______ _______ _____ _____    ______ ____
ROOT
ATOM      1  C   UNL     1       6.694   4.907  15.225  0.00  0.00    +0.000 C 
ATOM      2  C   UNL     1       6.054   3.583  14.798  0.00  0.00    +0.000 C 
ATOM      3  N   UNL     1       5.629   2.871  15.992  0.00  0.00    +0.000 N 
ATOM      4  C   UNL     1       4.726   3.570  16.797  0.00  0.00    +0.000 A 
ATOM      5  C   UNL     1       3.960   2.866  17.725  0.00  0.00    +0.000 A 
ATOM      6  C   UNL     1       3.122   3.551  18.612  0.00  0.00    +0.000 A 
ATOM      7  O   UNL     1       2.403   2.747  19.514  0.00  0.00    +0.000 OA
ATOM      8  C   UNL     1       1.563   3.311  20.451  0.00  0.00    +0.000 A 
ATOM      9  O   UNL     1       0.908   2.642  21.240  0.00  0.00    +0.000 OA
ATOM     10  C   UNL     1       1.497   4.777  20.480  0.00  0.00    +0.000 A 
ATOM     11  C   UNL     1       2.161   5.578  19.630  0.00  0.00    +0.000 A 
ATOM     12  C   UNL     1       3.008   4.944  18.610  0.00  0.00    +0.000 A 
ATOM     13  C   UNL     1       3.757   5.628  17.651  0.00  0.00    +0.000 A 
ATOM     14  C   UNL     1       4.676   4.975  16.799  0.00  0.00    +0.000 A 
ATOM     15  C   UNL     1       5.594   5.796  15.886  0.00  0.00    +0.000 C 
ATOM     16  H   UNL     1       5.386   1.896  15.837  0.00  0.00    +0.000 HD
ENDROOT
BRANCH  11  17
ATOM     17  C   UNL     1       2.041   7.064  19.821  0.00  0.00    +0.000 C 
ATOM     18  F   UNL     1       1.544   7.762  18.773  0.00  0.00    +0.000 F 
ATOM     19  F   UNL     1       1.245   7.352  20.885  0.00  0.00    +0.000 F 
ATOM     20  F   UNL     1       3.254   7.617  20.093  0.00  0.00    +0.000 F 
ENDBRANCH  11  17
BRANCH   1  22
ATOM     21  C   UNL     1       7.377   4.771  12.766  0.00  0.00    +0.000 C 
ATOM     22  C   UNL     1       7.399   5.604  14.044  0.00  0.00    +0.000 C 
ENDBRANCH   1  22
BRANCH  15  23
ATOM     23  C   UNL     1       6.198   7.038  16.604  0.00  0.00    +0.000 C 
ATOM     24  C   UNL     1       7.335   6.740  17.576  0.00  0.00    +0.000 C 
ENDBRANCH  15  23
TORSDOF 3
ENDMDL
MODEL 9
REMARK VINA RESULT:      -6.8      2.877      4.080
REMARK  Name = 
REMARK  5 active torsions:
REMARK  status: ('A' for Active; 'I' for Inactive)
REMARK    1  A    between atoms: C_1  and  C_2
REMARK    2  A    between atoms: C_2  and  C_3
REMARK    3  A    between atoms: C_13  and  C_14
REMARK    4  A    between atoms: C_21  and  C_22
REMARK    5  A    between atoms: C_22  and  C_23
REMARK                            x       y       z     vdW  Elec       q    Type
REMARK                         _______ _______ _______ _____ _____    ______ ____
ROOT
ATOM      1  C   UNL     1       5.353   4.566  17.345  0.00  0.00    +0.000 C 
ATOM      2  C   UNL     1       4.439   3.526  18.002  0.00  0.00    +0.000 C 
ATOM      3  N   UNL     1       3.986   4.053  19.278  0.00  0.00    +0.000 N 
ATOM      4  C   UNL     1       3.301   5.269  19.198  0.00  0.00    +0.000 A 
ATOM      5  C   UNL     1       2.495   5.665  20.264  0.00  0.00    +0.000 A 
ATOM      6  C   UNL     1       1.879   6.921  20.253  0.00  0.00    +0.000 A 
ATOM      7  O   UNL     1       1.096   7.225  21.381  0.00  0.00    +0.000 OA
ATOM      8  C   UNL     1       0.459   8.442  21.494  0.00  0.00    +0.000 A 
ATOM      9  O   UNL     1      -0.244   8.735  22.452  0.00  0.00    +0.000 OA
ATOM     10  C   UNL     1       0.677   9.404  20.406  0.00  0.00    +0.000 A 
ATOM     11  C   UNL     1       1.410   9.147  19.309  0.00  0.00    +0.000 A 
ATOM     12  C   UNL     1       2.033   7.822  19.195  0.00  0.00    +0.000 A 
ATOM     13  C   UNL     1       2.818   7.394  18.122  0.00  0.00    +0.000 A 
ATOM     14  C   UNL     1       3.521   6.168  18.140  0.00  0.00    +0.000 A 
ATOM     15  C   UNL     1       4.501   5.831  17.010  0.00  0.00    +0.000 C 
ATOM     16  H   UNL     1       3.549   3.366  19.887  0.00  0.00    +0.000 HD
ENDROOT
BRANCH  11  17
ATOM     17  C   UNL     1       1.591  10.253  18.308  0.00  0.00    +0.000 C 
ATOM     18  F   UNL     1       2.775  10.277  17.653  0.00  0.00    +0.000 F 
ATOM     19  F   UNL     1       0.626  10.204  17.351  0.00  0.00    +0.000 F 
ATOM     20  F   UNL     1       1.473  11.471  18.904  0.00  0.00    +0.000 F 
ENDBRANCH  11  17
BRANCH   1  22
ATOM     21  C   UNL     1       5.322   4.230  14.812  0.00  0.00    +0.000 C 
ATOM     22  C   UNL     1       6.078   3.987  16.115  0.00  0.00    +0.000 C 
ENDBRANCH   1  22
BRANCH  15  23
ATOM     23  C   UNL     1       5.387   7.042  16.603  0.00  0.00    +0.000 C 
ATOM     24  C   UNL     1       6.668   7.215  17.413  0.00  0.00    +0.000 C 
ENDBRANCH  15  23
TORSDOF 3
ENDMDL
