MODEL 1
REMARK VINA RESULT:      -6.8      0.000      0.000
REMARK  Name = 
REMARK  5 active torsions:
REMARK  status: ('A' for Active; 'I' for Inactive)
REMARK    1  A    between atoms: C_1  and  C_2
REMARK    2  A    between atoms: C_5  and  C_6
REMARK    3  A    between atoms: C_6  and  N_7
REMARK    4  A    between atoms: N_10  and  C_11
REMARK    5  A    between atoms: N_18  and  C_19
REMARK                            x       y       z     vdW  Elec       q    Type
REMARK                         _______ _______ _______ _____ _____    ______ ____
ROOT
ATOM      1  N   UNL     1       6.770   7.899  17.095  0.00  0.00    +0.000 N 
ATOM      2  C   UNL     1       7.839   8.311  17.870  0.00  0.00    +0.000 C 
ATOM      3  O   UNL     1       8.452   7.539  18.596  0.00  0.00    +0.000 OA
ATOM      4  N   UNL     1       8.068   9.666  17.747  0.00  0.00    +0.000 N 
ATOM      5  H   UNL     1       6.704   8.341  16.190  0.00  0.00    +0.000 HD
ATOM      6  H   UNL     1       7.286  10.199  17.396  0.00  0.00    +0.000 HD
ENDROOT
BRANCH   4   7
ATOM      7  C   UNL     1       9.108  10.383  18.383  0.00  0.00    +0.000 A 
ATOM      8  C   UNL     1      10.166  10.975  17.686  0.00  0.00    +0.000 A 
ATOM      9  C   UNL     1      11.194  11.631  18.371  0.00  0.00    +0.000 A 
ATOM     10  C   UNL     1      11.156  11.706  19.755  0.00  0.00    +0.000 A 
ATOM     11  F   UNL     1      12.151  12.312  20.413  0.00  0.00    +0.000 F 
ATOM     12  C   UNL     1      10.097  11.156  20.467  0.00  0.00    +0.000 A 
ATOM     13  C   UNL     1       9.065  10.506  19.781  0.00  0.00    +0.000 A 
ENDBRANCH   4   7
BRANCH   1  14
ATOM     14  C   UNL     1       6.449   6.491  17.127  0.00  0.00    +0.000 C 
BRANCH  14  19
ATOM     15  C   UNL     1       2.025   4.223  18.029  0.00  0.00    +0.000 C 
ATOM     16  C   UNL     1       3.020   5.318  17.852  0.00  0.00    +0.000 A 
ATOM     17  C   UNL     1       2.818   6.682  17.884  0.00  0.00    +0.000 A 
ATOM     18  C   UNL     1       4.062   7.303  17.655  0.00  0.00    +0.000 A 
ATOM     19  C   UNL     1       5.011   6.312  17.475  0.00  0.00    +0.000 A 
ATOM     20  N   UNL     1       4.362   5.098  17.599  0.00  0.00    +0.000 N 
ATOM     21  C   UNL     1       4.944   3.778  17.466  0.00  0.00    +0.000 C 
ENDBRANCH  14  19
ENDBRANCH   1  14
TORSDOF 3
ENDMDL
MODEL 2
REMARK VINA RESULT:      -6.7      7.128      9.294
REMARK  Name = 
REMARK  5 active torsions:
REMARK  status: ('A' for Active; 'I' for Inactive)
REMARK    1  A    between atoms: C_1  and  C_2
REMARK    2  A    between atoms: C_5  and  C_6
REMARK    3  A    between atoms: C_6  and  N_7
REMARK    4  A    between atoms: N_10  and  C_11
REMARK    5  A    between atoms: N_18  and  C_19
REMARK                            x       y       z     vdW  Elec       q    Type
REMARK                         _______ _______ _______ _____ _____    ______ ____
ROOT
ATOM      1  N   UNL     1       1.521   7.711  21.160  0.00  0.00    +0.000 N 
ATOM      2  C   UNL     1       1.975   6.772  20.253  0.00  0.00    +0.000 C 
ATOM      3  O   UNL     1       2.186   7.050  19.079  0.00  0.00    +0.000 OA
ATOM      4  N   UNL     1       2.102   5.525  20.827  0.00  0.00    +0.000 N 
ATOM      5  H   UNL     1       1.899   7.622  22.092  0.00  0.00    +0.000 HD
ATOM      6  H   UNL     1       1.574   5.392  21.677  0.00  0.00    +0.000 HD
ENDROOT
BRANCH   4   7
ATOM      7  C   UNL     1       2.575   4.364  20.172  0.00  0.00    +0.000 A 
ATOM      8  C   UNL     1       3.880   4.239  19.686  0.00  0.00    +0.000 A 
ATOM      9  C   UNL     1       4.280   3.086  19.002  0.00  0.00    +0.000 A 
ATOM     10  C   UNL     1       3.377   2.052  18.817  0.00  0.00    +0.000 A 
ATOM     11  F   UNL     1       3.751   0.958  18.141  0.00  0.00    +0.000 F 
ATOM     12  C   UNL     1       2.085   2.138  19.321  0.00  0.00    +0.000 A 
ATOM     13  C   UNL     1       1.687   3.289  20.011  0.00  0.00    +0.000 A 
ENDBRANCH   4   7
BRANCH   1  14
ATOM     14  C   UNL     1       1.370   9.064  20.674  0.00  0.00    +0.000 C 
BRANCH  14  19
ATOM     15  C   UNL     1      -1.121  12.923  22.779  0.00  0.00    +0.000 C 
ATOM     16  C   UNL     1      -0.675  11.525  22.524  0.00  0.00    +0.000 A 
ATOM     17  C   UNL     1      -1.012  10.373  23.205  0.00  0.00    +0.000 A 
ATOM     18  C   UNL     1      -0.332   9.302  22.594  0.00  0.00    +0.000 A 
ATOM     19  C   UNL     1       0.425   9.810  21.552  0.00  0.00    +0.000 A 
ATOM     20  N   UNL     1       0.206  11.174  21.517  0.00  0.00    +0.000 N 
ATOM     21  C   UNL     1       0.801  12.131  20.607  0.00  0.00    +0.000 C 
ENDBRANCH  14  19
ENDBRANCH   1  14
TORSDOF 3
ENDMDL
MODEL 3
REMARK VINA RESULT:      -6.7      5.793      6.803
REMARK  Name = 
REMARK  5 active torsions:
REMARK  status: ('A' for Active; 'I' for Inactive)
REMARK    1  A    between atoms: C_1  and  C_2
REMARK    2  A    between atoms: C_5  and  C_6
REMARK    3  A    between atoms: C_6  and  N_7
REMARK    4  A    between atoms: N_10  and  C_11
REMARK    5  A    between atoms: N_18  and  C_19
REMARK                            x       y       z     vdW  Elec       q    Type
REMARK                         _______ _______ _______ _____ _____    ______ ____
ROOT
ATOM      1  N   UNL     1       5.855   4.016  18.199  0.00  0.00    +0.000 N 
ATOM      2  C   UNL     1       6.008   4.638  16.974  0.00  0.00    +0.000 C 
ATOM      3  O   UNL     1       5.858   5.845  16.833  0.00  0.00    +0.000 OA
ATOM      4  N   UNL     1       6.292   3.733  15.972  0.00  0.00    +0.000 N 
ATOM      5  H   UNL     1       6.495   3.256  18.375  0.00  0.00    +0.000 HD
ATOM      6  H   UNL     1       6.044   2.777  16.180  0.00  0.00    +0.000 HD
ENDROOT
BRANCH   4   7
ATOM      7  C   UNL     1       6.537   4.058  14.618  0.00  0.00    +0.000 A 
ATOM      8  C   UNL     1       5.847   3.468  13.553  0.00  0.00    +0.000 A 
ATOM      9  C   UNL     1       6.165   3.792  12.230  0.00  0.00    +0.000 A 
ATOM     10  C   UNL     1       7.165   4.717  11.973  0.00  0.00    +0.000 A 
ATOM     11  F   UNL     1       7.486   5.010  10.707  0.00  0.00    +0.000 F 
ATOM     12  C   UNL     1       7.840   5.342  13.014  0.00  0.00    +0.000 A 
ATOM     13  C   UNL     1       7.517   5.022  14.338  0.00  0.00    +0.000 A 
ENDBRANCH   4   7
BRANCH   1  14
ATOM     14  C   UNL     1       5.575   4.870  19.331  0.00  0.00    +0.000 C 
BRANCH  14  19
ATOM     15  C   UNL     1       0.944   3.205  20.475  0.00  0.00    +0.000 C 
ATOM     16  C   UNL     1       2.029   4.147  20.083  0.00  0.00    +0.000 A 
ATOM     17  C   UNL     1       1.932   5.476  19.725  0.00  0.00    +0.000 A 
ATOM     18  C   UNL     1       3.231   5.935  19.431  0.00  0.00    +0.000 A 
ATOM     19  C   UNL     1       4.110   4.879  19.602  0.00  0.00    +0.000 A 
ATOM     20  N   UNL     1       3.363   3.788  20.003  0.00  0.00    +0.000 N 
ATOM     21  C   UNL     1       3.848   2.451  20.282  0.00  0.00    +0.000 C 
ENDBRANCH  14  19
ENDBRANCH   1  14
TORSDOF 3
ENDMDL
MODEL 4
REMARK VINA RESULT:      -6.7      3.333      8.197
REMARK  Name = 
REMARK  5 active torsions:
REMARK  status: ('A' for Active; 'I' for Inactive)
REMARK    1  A    between atoms: C_1  and  C_2
REMARK    2  A    between atoms: C_5  and  C_6
REMARK    3  A    between atoms: C_6  and  N_7
REMARK    4  A    between atoms: N_10  and  C_11
REMARK    5  A    between atoms: N_18  and  C_19
REMARK                            x       y       z     vdW  Elec       q    Type
REMARK                         _______ _______ _______ _____ _____    ______ ____
ROOT
ATOM      1  N   UNL     1       8.262   9.497  17.809  0.00  0.00    +0.000 N 
ATOM      2  C   UNL     1       7.905   8.170  17.958  0.00  0.00    +0.000 C 
ATOM      3  O   UNL     1       8.436   7.443  18.788  0.00  0.00    +0.000 OA
ATOM      4  N   UNL     1       6.944   7.792  17.044  0.00  0.00    +0.000 N 
ATOM      5  H   UNL     1       7.499  10.122  17.593  0.00  0.00    +0.000 HD
ATOM      6  H   UNL     1       6.870   8.389  16.234  0.00  0.00    +0.000 HD
ENDROOT
BRANCH   4   7
ATOM      7  C   UNL     1       6.348   6.512  16.961  0.00  0.00    +0.000 A 
ATOM      8  C   UNL     1       6.923   5.446  16.262  0.00  0.00    +0.000 A 
ATOM      9  C   UNL     1       6.265   4.214  16.172  0.00  0.00    +0.000 A 
ATOM     10  C   UNL     1       5.039   4.046  16.795  0.00  0.00    +0.000 A 
ATOM     11  F   UNL     1       4.398   2.876  16.690  0.00  0.00    +0.000 F 
ATOM     12  C   UNL     1       4.465   5.080  17.525  0.00  0.00    +0.000 A 
ATOM     13  C   UNL     1       5.126   6.310  17.620  0.00  0.00    +0.000 A 
ENDBRANCH   4   7
BRANCH   1  14
ATOM     14  C   UNL     1       9.250  10.012  18.730  0.00  0.00    +0.000 C 
BRANCH  14  19
ATOM     15  C   UNL     1      11.558  14.507  18.698  0.00  0.00    +0.000 C 
ATOM     16  C   UNL     1      10.529  13.466  18.420  0.00  0.00    +0.000 A 
ATOM     17  C   UNL     1       9.321  13.598  17.767  0.00  0.00    +0.000 A 
ATOM     18  C   UNL     1       8.698  12.335  17.761  0.00  0.00    +0.000 A 
ATOM     19  C   UNL     1       9.527  11.443  18.420  0.00  0.00    +0.000 A 
ATOM     20  N   UNL     1      10.648  12.147  18.818  0.00  0.00    +0.000 N 
ATOM     21  C   UNL     1      11.782  11.635  19.562  0.00  0.00    +0.000 C 
ENDBRANCH  14  19
ENDBRANCH   1  14
TORSDOF 3
ENDMDL
MODEL 5
REMARK VINA RESULT:      -6.7      6.519      7.737
REMARK  Name = 
REMARK  5 active torsions:
REMARK  status: ('A' for Active; 'I' for Inactive)
REMARK    1  A    between atoms: C_1  and  C_2
REMARK    2  A    between atoms: C_5  and  C_6
REMARK    3  A    between atoms: C_6  and  N_7
REMARK    4  A    between atoms: N_10  and  C_11
REMARK    5  A    between atoms: N_18  and  C_19
REMARK                            x       y       z     vdW  Elec       q    Type
REMARK                         _______ _______ _______ _____ _____    ______ ____
ROOT
ATOM      1  N   UNL     1       2.620   6.859  19.970  0.00  0.00    +0.000 N 
ATOM      2  C   UNL     1       1.885   8.029  20.033  0.00  0.00    +0.000 C 
ATOM      3  O   UNL     1       1.665   8.713  19.042  0.00  0.00    +0.000 OA
ATOM      4  N   UNL     1       1.499   8.322  21.324  0.00  0.00    +0.000 N 
ATOM      5  H   UNL     1       2.300   6.121  20.580  0.00  0.00    +0.000 HD
ATOM      6  H   UNL     1       2.038   7.863  22.044  0.00  0.00    +0.000 HD
ENDROOT
BRANCH   4   7
ATOM      7  C   UNL     1       0.710   9.429  21.713  0.00  0.00    +0.000 A 
ATOM      8  C   UNL     1       0.794  10.682  21.096  0.00  0.00    +0.000 A 
ATOM      9  C   UNL     1       0.024  11.756  21.553  0.00  0.00    +0.000 A 
ATOM     10  C   UNL     1      -0.840  11.574  22.621  0.00  0.00    +0.000 A 
ATOM     11  F   UNL     1      -1.559  12.607  23.076  0.00  0.00    +0.000 F 
ATOM     12  C   UNL     1      -0.966  10.330  23.228  0.00  0.00    +0.000 A 
ATOM     13  C   UNL     1      -0.201   9.253  22.766  0.00  0.00    +0.000 A 
ENDBRANCH   4   7
BRANCH   1  14
ATOM     14  C   UNL     1       3.062   6.439  18.660  0.00  0.00    +0.000 C 
BRANCH  14  19
ATOM     15  C   UNL     1       3.676   1.430  18.415  0.00  0.00    +0.000 C 
ATOM     16  C   UNL     1       3.011   2.759  18.319  0.00  0.00    +0.000 A 
ATOM     17  C   UNL     1       1.744   3.060  17.863  0.00  0.00    +0.000 A 
ATOM     18  C   UNL     1       1.576   4.455  17.958  0.00  0.00    +0.000 A 
ATOM     19  C   UNL     1       2.746   4.997  18.462  0.00  0.00    +0.000 A 
ATOM     20  N   UNL     1       3.619   3.948  18.681  0.00  0.00    +0.000 N 
ATOM     21  C   UNL     1       4.976   4.030  19.183  0.00  0.00    +0.000 C 
ENDBRANCH  14  19
ENDBRANCH   1  14
TORSDOF 3
ENDMDL
MODEL 6
REMARK VINA RESULT:      -6.7      5.874      7.088
REMARK  Name = 
REMARK  5 active torsions:
REMARK  status: ('A' for Active; 'I' for Inactive)
REMARK    1  A    between atoms: C_1  and  C_2
REMARK    2  A    between atoms: C_5  and  C_6
REMARK    3  A    between atoms: C_6  and  N_7
REMARK    4  A    between atoms: N_10  and  C_11
REMARK    5  A    between atoms: N_18  and  C_19
REMARK                            x       y       z     vdW  Elec       q    Type
REMARK                         _______ _______ _______ _____ _____    ______ ____
ROOT
ATOM      1  N   UNL     1       4.761   5.710  17.686  0.00  0.00    +0.000 N 
ATOM      2  C   UNL     1       5.510   4.988  16.775  0.00  0.00    +0.000 C 
ATOM      3  O   UNL     1       6.366   4.186  17.126  0.00  0.00    +0.000 OA
ATOM      4  N   UNL     1       5.199   5.326  15.475  0.00  0.00    +0.000 N 
ATOM      5  H   UNL     1       3.799   5.862  17.422  0.00  0.00    +0.000 HD
ATOM      6  H   UNL     1       4.742   6.220  15.365  0.00  0.00    +0.000 HD
ENDROOT
BRANCH   4   7
ATOM      7  C   UNL     1       5.765   4.743  14.317  0.00  0.00    +0.000 A 
ATOM      8  C   UNL     1       5.092   3.804  13.528  0.00  0.00    +0.000 A 
ATOM      9  C   UNL     1       5.719   3.222  12.421  0.00  0.00    +0.000 A 
ATOM     10  C   UNL     1       7.015   3.591  12.096  0.00  0.00    +0.000 A 
ATOM     11  F   UNL     1       7.625   3.017  11.051  0.00  0.00    +0.000 F 
ATOM     12  C   UNL     1       7.690   4.547  12.844  0.00  0.00    +0.000 A 
ATOM     13  C   UNL     1       7.061   5.134  13.948  0.00  0.00    +0.000 A 
ENDBRANCH   4   7
BRANCH   1  14
ATOM     14  C   UNL     1       4.987   5.424  19.085  0.00  0.00    +0.000 C 
BRANCH  14  19
ATOM     15  C   UNL     1       1.259   2.707  21.146  0.00  0.00    +0.000 C 
ATOM     16  C   UNL     1       2.005   3.894  20.642  0.00  0.00    +0.000 A 
ATOM     17  C   UNL     1       1.588   5.207  20.565  0.00  0.00    +0.000 A 
ATOM     18  C   UNL     1       2.644   5.958  20.012  0.00  0.00    +0.000 A 
ATOM     19  C   UNL     1       3.693   5.095  19.746  0.00  0.00    +0.000 A 
ATOM     20  N   UNL     1       3.291   3.832  20.138  0.00  0.00    +0.000 N 
ATOM     21  C   UNL     1       4.050   2.602  20.032  0.00  0.00    +0.000 C 
ENDBRANCH  14  19
ENDBRANCH   1  14
TORSDOF 3
ENDMDL
MODEL 7
REMARK VINA RESULT:      -6.7      7.127      9.379
REMARK  Name = 
REMARK  5 active torsions:
REMARK  status: ('A' for Active; 'I' for Inactive)
REMARK    1  A    between atoms: C_1  and  C_2
REMARK    2  A    between atoms: C_5  and  C_6
REMARK    3  A    between atoms: C_6  and  N_7
REMARK    4  A    between atoms: N_10  and  C_11
REMARK    5  A    between atoms: N_18  and  C_19
REMARK                            x       y       z     vdW  Elec       q    Type
REMARK                         _______ _______ _______ _____ _____    ______ ____
ROOT
ATOM      1  N   UNL     1       1.573   7.767  21.249  0.00  0.00    +0.000 N 
ATOM      2  C   UNL     1       1.925   6.827  20.299  0.00  0.00    +0.000 C 
ATOM      3  O   UNL     1       2.079   7.119  19.119  0.00  0.00    +0.000 OA
ATOM      4  N   UNL     1       2.025   5.563  20.841  0.00  0.00    +0.000 N 
ATOM      5  H   UNL     1       2.001   7.641  22.154  0.00  0.00    +0.000 HD
ATOM      6  H   UNL     1       1.543   5.438  21.719  0.00  0.00    +0.000 HD
ENDROOT
BRANCH   4   7
ATOM      7  C   UNL     1       2.401   4.395  20.138  0.00  0.00    +0.000 A 
ATOM      8  C   UNL     1       1.488   3.404  19.759  0.00  0.00    +0.000 A 
ATOM      9  C   UNL     1       1.923   2.246  19.107  0.00  0.00    +0.000 A 
ATOM     10  C   UNL     1       3.270   2.085  18.821  0.00  0.00    +0.000 A 
ATOM     11  F   UNL     1       3.690   0.966  18.219  0.00  0.00    +0.000 F 
ATOM     12  C   UNL     1       4.190   3.071  19.156  0.00  0.00    +0.000 A 
ATOM     13  C   UNL     1       3.754   4.233  19.803  0.00  0.00    +0.000 A 
ENDBRANCH   4   7
BRANCH   1  14
ATOM     14  C   UNL     1       1.459   9.136  20.798  0.00  0.00    +0.000 C 
BRANCH  14  19
ATOM     15  C   UNL     1      -1.210  12.933  22.794  0.00  0.00    +0.000 C 
ATOM     16  C   UNL     1      -0.722  11.546  22.558  0.00  0.00    +0.000 A 
ATOM     17  C   UNL     1      -1.062  10.385  23.221  0.00  0.00    +0.000 A 
ATOM     18  C   UNL     1      -0.331   9.331  22.641  0.00  0.00    +0.000 A 
ATOM     19  C   UNL     1       0.460   9.858  21.634  0.00  0.00    +0.000 A 
ATOM     20  N   UNL     1       0.211  11.217  21.590  0.00  0.00    +0.000 N 
ATOM     21  C   UNL     1       0.824  12.189  20.708  0.00  0.00    +0.000 C 
ENDBRANCH  14  19
ENDBRANCH   1  14
TORSDOF 3
ENDMDL
MODEL 8
REMARK VINA RESULT:      -6.7      5.578      8.061
REMARK  Name = 
REMARK  5 active torsions:
REMARK  status: ('A' for Active; 'I' for Inactive)
REMARK    1  A    between atoms: C_1  and  C_2
REMARK    2  A    between atoms: C_5  and  C_6
REMARK    3  A    between atoms: C_6  and  N_7
REMARK    4  A    between atoms: N_10  and  C_11
REMARK    5  A    between atoms: N_18  and  C_19
REMARK                            x       y       z     vdW  Elec       q    Type
REMARK                         _______ _______ _______ _____ _____    ______ ____
ROOT
ATOM      1  N   UNL     1       1.769   8.287  19.769  0.00  0.00    +0.000 N 
ATOM      2  C   UNL     1       2.346   7.841  18.595  0.00  0.00    +0.000 C 
ATOM      3  O   UNL     1       2.145   8.393  17.520  0.00  0.00    +0.000 OA
ATOM      4  N   UNL     1       3.105   6.707  18.796  0.00  0.00    +0.000 N 
ATOM      5  H   UNL     1       2.355   8.212  20.588  0.00  0.00    +0.000 HD
ATOM      6  H   UNL     1       2.892   6.197  19.640  0.00  0.00    +0.000 HD
ENDROOT
BRANCH   4   7
ATOM      7  C   UNL     1       3.849   6.031  17.801  0.00  0.00    +0.000 A 
ATOM      8  C   UNL     1       4.766   6.674  16.962  0.00  0.00    +0.000 A 
ATOM      9  C   UNL     1       5.438   5.964  15.962  0.00  0.00    +0.000 A 
ATOM     10  C   UNL     1       5.203   4.606  15.810  0.00  0.00    +0.000 A 
ATOM     11  F   UNL     1       5.827   3.931  14.837  0.00  0.00    +0.000 F 
ATOM     12  C   UNL     1       4.323   3.939  16.653  0.00  0.00    +0.000 A 
ATOM     13  C   UNL     1       3.655   4.648  17.658  0.00  0.00    +0.000 A 
ENDBRANCH   4   7
BRANCH   1  14
ATOM     14  C   UNL     1       0.965   9.485  19.684  0.00  0.00    +0.000 C 
BRANCH  14  19
ATOM     15  C   UNL     1      -1.879  11.708  23.219  0.00  0.00    +0.000 C 
ATOM     16  C   UNL     1      -0.929  10.744  22.598  0.00  0.00    +0.000 A 
ATOM     17  C   UNL     1      -0.219   9.723  23.196  0.00  0.00    +0.000 A 
ATOM     18  C   UNL     1       0.551   9.096  22.197  0.00  0.00    +0.000 A 
ATOM     19  C   UNL     1       0.314   9.746  20.998  0.00  0.00    +0.000 A 
ATOM     20  N   UNL     1      -0.597  10.754  21.255  0.00  0.00    +0.000 N 
ATOM     21  C   UNL     1      -1.128  11.713  20.308  0.00  0.00    +0.000 C 
ENDBRANCH  14  19
ENDBRANCH   1  14
TORSDOF 3
ENDMDL
MODEL 9
REMARK VINA RESULT:      -6.7      5.731      6.842
REMARK  Name = 
REMARK  5 active torsions:
REMARK  status: ('A' for Active; 'I' for Inactive)
REMARK    1  A    between atoms: C_1  and  C_2
REMARK    2  A    between atoms: C_5  and  C_6
REMARK    3  A    between atoms: C_6  and  N_7
REMARK    4  A    between atoms: N_10  and  C_11
REMARK    5  A    between atoms: N_18  and  C_19
REMARK                            x       y       z     vdW  Elec       q    Type
REMARK                         _______ _______ _______ _____ _____    ______ ____
ROOT
ATOM      1  N   UNL     1       5.024   5.939  17.895  0.00  0.00    +0.000 N 
ATOM      2  C   UNL     1       5.711   5.158  16.984  0.00  0.00    +0.000 C 
ATOM      3  O   UNL     1       6.403   4.209  17.331  0.00  0.00    +0.000 OA
ATOM      4  N   UNL     1       5.547   5.615  15.692  0.00  0.00    +0.000 N 
ATOM      5  H   UNL     1       4.119   6.260  17.585  0.00  0.00    +0.000 HD
ATOM      6  H   UNL     1       5.247   6.575  15.616  0.00  0.00    +0.000 HD
ENDROOT
BRANCH   4   7
ATOM      7  C   UNL     1       6.093   5.013  14.534  0.00  0.00    +0.000 A 
ATOM      8  C   UNL     1       7.326   5.385  13.988  0.00  0.00    +0.000 A 
ATOM      9  C   UNL     1       7.795   4.790  12.813  0.00  0.00    +0.000 A 
ATOM     10  C   UNL     1       7.035   3.811  12.191  0.00  0.00    +0.000 A 
ATOM     11  F   UNL     1       7.471   3.258  11.052  0.00  0.00    +0.000 F 
ATOM     12  C   UNL     1       5.824   3.400  12.734  0.00  0.00    +0.000 A 
ATOM     13  C   UNL     1       5.358   3.992  13.913  0.00  0.00    +0.000 A 
ENDBRANCH   4   7
BRANCH   1  14
ATOM     14  C   UNL     1       5.105   5.542  19.282  0.00  0.00    +0.000 C 
BRANCH  14  19
ATOM     15  C   UNL     1       1.230   2.634  20.717  0.00  0.00    +0.000 C 
ATOM     16  C   UNL     1       2.002   3.865  20.387  0.00  0.00    +0.000 A 
ATOM     17  C   UNL     1       1.570   5.175  20.361  0.00  0.00    +0.000 A 
ATOM     18  C   UNL     1       2.664   5.978  19.984  0.00  0.00    +0.000 A 
ATOM     19  C   UNL     1       3.753   5.150  19.771  0.00  0.00    +0.000 A 
ATOM     20  N   UNL     1       3.337   3.856  20.023  0.00  0.00    +0.000 N 
ATOM     21  C   UNL     1       4.127   2.646  19.910  0.00  0.00    +0.000 C 
ENDBRANCH  14  19
ENDBRANCH   1  14
TORSDOF 3
ENDMDL
