MODEL 1
REMARK VINA RESULT:      -8.6      0.000      0.000
REMARK  Name = 
REMARK  6 active torsions:
REMARK  status: ('A' for Active; 'I' for Inactive)
REMARK    1  A    between atoms: C_2  and  C_16
REMARK    2  A    between atoms: N_3  and  C_4
REMARK    3  A    between atoms: C_4  and  C_5
REMARK    4  A    between atoms: C_5  and  C_6
REMARK    5  A    between atoms: C_19  and  C_20
REMARK    6  A    between atoms: C_20  and  N_21
REMARK                            x       y       z     vdW  Elec       q    Type
REMARK                         _______ _______ _______ _____ _____    ______ ____
ROOT
ATOM      1  O   UNL     1       0.500  10.405  19.754  0.00  0.00    +0.000 OA
ATOM      2  C   UNL     1       0.008  10.158  18.664  0.00  0.00    +0.000 C 
ATOM      3  N   UNL     1       0.687   9.525  17.637  0.00  0.00    +0.000 N 
ATOM      4  H   UNL     1       0.323   9.603  16.695  0.00  0.00    +0.000 HD
ENDROOT
BRANCH   2   5
ATOM      5  C   UNL     1      -1.395  10.544  18.358  0.00  0.00    +0.000 A 
ATOM      6  C   UNL     1      -2.139   9.836  17.410  0.00  0.00    +0.000 A 
ATOM      7  C   UNL     1      -3.475  10.183  17.178  0.00  0.00    +0.000 A 
ATOM      8  C   UNL     1      -4.081  11.237  17.885  0.00  0.00    +0.000 A 
ATOM      9  C   UNL     1      -3.311  11.949  18.818  0.00  0.00    +0.000 A 
ATOM     10  C   UNL     1      -1.977  11.611  19.046  0.00  0.00    +0.000 A 
BRANCH   8  11
ATOM     11  C   UNL     1      -5.532  11.577  17.635  0.00  0.00    +0.000 C 
BRANCH  11  12
ATOM     12  N   UNL     1      -6.406  11.191  18.739  0.00  0.00    +0.000 N 
ATOM     13  C   UNL     1      -6.892  12.005  19.728  0.00  0.00    +0.000 A 
ATOM     14  C   UNL     1      -7.482  11.180  20.654  0.00  0.00    +0.000 A 
ATOM     15  C   UNL     1      -7.331   9.884  20.123  0.00  0.00    +0.000 A 
ATOM     16  N   UNL     1      -6.671   9.885  18.954  0.00  0.00    +0.000 NA
ENDBRANCH  11  12
ENDBRANCH   8  11
ENDBRANCH   2   5
BRANCH   3  17
ATOM     17  C   UNL     1       2.080   9.162  17.817  0.00  0.00    +0.000 C 
BRANCH  17  18
ATOM     18  C   UNL     1       2.259   7.922  18.688  0.00  0.00    +0.000 C 
BRANCH  18  19
ATOM     19  C   UNL     1       3.100   6.873  18.032  0.00  0.00    +0.000 A 
ATOM     20  C   UNL     1       4.268   7.082  17.324  0.00  0.00    +0.000 A 
ATOM     21  N   UNL     1       4.711   5.874  16.855  0.00  0.00    +0.000 N 
ATOM     22  C   UNL     1       3.856   4.869  17.247  0.00  0.00    +0.000 A 
ATOM     23  C   UNL     1       3.904   3.494  16.987  0.00  0.00    +0.000 A 
ATOM     24  C   UNL     1       2.895   2.697  17.537  0.00  0.00    +0.000 A 
ATOM     25  C   UNL     1       1.889   3.262  18.317  0.00  0.00    +0.000 A 
ATOM     26 CL   UNL     1       0.670   2.249  18.994  0.00  0.00    +0.000 Cl
ATOM     27  C   UNL     1       1.847   4.637  18.559  0.00  0.00    +0.000 A 
ATOM     28  C   UNL     1       2.849   5.463  18.008  0.00  0.00    +0.000 A 
ATOM     29  H   UNL     1       5.544   5.735  16.299  0.00  0.00    +0.000 HD
ENDBRANCH  18  19
ENDBRANCH  17  18
ENDBRANCH   3  17
TORSDOF 6
ENDMDL
MODEL 2
REMARK VINA RESULT:      -8.5      1.432      2.014
REMARK  Name = 
REMARK  6 active torsions:
REMARK  status: ('A' for Active; 'I' for Inactive)
REMARK    1  A    between atoms: C_2  and  C_16
REMARK    2  A    between atoms: N_3  and  C_4
REMARK    3  A    between atoms: C_4  and  C_5
REMARK    4  A    between atoms: C_5  and  C_6
REMARK    5  A    between atoms: C_19  and  C_20
REMARK    6  A    between atoms: C_20  and  N_21
REMARK                            x       y       z     vdW  Elec       q    Type
REMARK                         _______ _______ _______ _____ _____    ______ ____
ROOT
ATOM      1  O   UNL     1       0.661  11.029  19.601  0.00  0.00    +0.000 OA
ATOM      2  C   UNL     1       0.126  10.513  18.632  0.00  0.00    +0.000 C 
ATOM      3  N   UNL     1       0.796   9.729  17.709  0.00  0.00    +0.000 N 
ATOM      4  H   UNL     1       0.367   9.571  16.805  0.00  0.00    +0.000 HD
ENDROOT
BRANCH   2   5
ATOM      5  C   UNL     1      -1.324  10.710  18.369  0.00  0.00    +0.000 A 
ATOM      6  C   UNL     1      -1.986   9.937  17.411  0.00  0.00    +0.000 A 
ATOM      7  C   UNL     1      -3.363  10.103  17.219  0.00  0.00    +0.000 A 
ATOM      8  C   UNL     1      -4.091  11.038  17.975  0.00  0.00    +0.000 A 
ATOM      9  C   UNL     1      -3.404  11.819  18.918  0.00  0.00    +0.000 A 
ATOM     10  C   UNL     1      -2.030  11.662  19.106  0.00  0.00    +0.000 A 
BRANCH   8  11
ATOM     11  C   UNL     1      -5.581  11.181  17.767  0.00  0.00    +0.000 C 
BRANCH  11  12
ATOM     12  N   UNL     1      -6.353  10.910  18.976  0.00  0.00    +0.000 N 
ATOM     13  C   UNL     1      -6.816   9.692  19.402  0.00  0.00    +0.000 A 
ATOM     14  C   UNL     1      -7.660   9.946  20.455  0.00  0.00    +0.000 A 
ATOM     15  C   UNL     1      -7.622  11.345  20.613  0.00  0.00    +0.000 A 
ATOM     16  N   UNL     1      -6.827  11.940  19.709  0.00  0.00    +0.000 NA
ENDBRANCH  11  12
ENDBRANCH   8  11
ENDBRANCH   2   5
BRANCH   3  17
ATOM     17  C   UNL     1       2.226   9.526  17.846  0.00  0.00    +0.000 C 
BRANCH  17  18
ATOM     18  C   UNL     1       2.626   8.057  17.740  0.00  0.00    +0.000 C 
BRANCH  18  19
ATOM     19  C   UNL     1       2.272   7.274  18.964  0.00  0.00    +0.000 A 
ATOM     20  C   UNL     1       1.953   7.790  20.206  0.00  0.00    +0.000 A 
ATOM     21  N   UNL     1       1.728   6.747  21.064  0.00  0.00    +0.000 N 
ATOM     22  C   UNL     1       1.890   5.548  20.407  0.00  0.00    +0.000 A 
ATOM     23  C   UNL     1       1.776   4.237  20.885  0.00  0.00    +0.000 A 
ATOM     24  C   UNL     1       1.980   3.197  19.973  0.00  0.00    +0.000 A 
ATOM     25  C   UNL     1       2.279   3.468  18.641  0.00  0.00    +0.000 A 
ATOM     26 CL   UNL     1       2.509   2.162  17.539  0.00  0.00    +0.000 Cl
ATOM     27  C   UNL     1       2.401   4.781  18.179  0.00  0.00    +0.000 A 
ATOM     28  C   UNL     1       2.207   5.848  19.082  0.00  0.00    +0.000 A 
ATOM     29  H   UNL     1       1.481   6.838  22.040  0.00  0.00    +0.000 HD
ENDBRANCH  18  19
ENDBRANCH  17  18
ENDBRANCH   3  17
TORSDOF 6
ENDMDL
MODEL 3
REMARK VINA RESULT:      -8.4      7.635     10.729
REMARK  Name = 
REMARK  6 active torsions:
REMARK  status: ('A' for Active; 'I' for Inactive)
REMARK    1  A    between atoms: C_2  and  C_16
REMARK    2  A    between atoms: N_3  and  C_4
REMARK    3  A    between atoms: C_4  and  C_5
REMARK    4  A    between atoms: C_5  and  C_6
REMARK    5  A    between atoms: C_19  and  C_20
REMARK    6  A    between atoms: C_20  and  N_21
REMARK                            x       y       z     vdW  Elec       q    Type
REMARK                         _______ _______ _______ _____ _____    ______ ____
ROOT
ATOM      1  O   UNL     1       7.496   8.223  17.006  0.00  0.00    +0.000 OA
ATOM      2  C   UNL     1       8.125   8.379  18.041  0.00  0.00    +0.000 C 
ATOM      3  N   UNL     1       8.456   7.348  18.903  0.00  0.00    +0.000 N 
ATOM      4  H   UNL     1       8.724   7.578  19.853  0.00  0.00    +0.000 HD
ENDROOT
BRANCH   2   5
ATOM      5  C   UNL     1       8.582   9.731  18.457  0.00  0.00    +0.000 A 
ATOM      6  C   UNL     1       9.307   9.906  19.638  0.00  0.00    +0.000 A 
ATOM      7  C   UNL     1       9.773  11.181  19.982  0.00  0.00    +0.000 A 
ATOM      8  C   UNL     1       9.520  12.290  19.157  0.00  0.00    +0.000 A 
ATOM      9  C   UNL     1       8.772  12.097  17.985  0.00  0.00    +0.000 A 
ATOM     10  C   UNL     1       8.299  10.830  17.643  0.00  0.00    +0.000 A 
BRANCH   8  11
ATOM     11  C   UNL     1      10.055  13.652  19.537  0.00  0.00    +0.000 C 
BRANCH  11  12
ATOM     12  N   UNL     1      10.332  14.498  18.380  0.00  0.00    +0.000 N 
ATOM     13  C   UNL     1      11.464  14.490  17.607  0.00  0.00    +0.000 A 
ATOM     14  C   UNL     1      11.375  15.584  16.781  0.00  0.00    +0.000 A 
ATOM     15  C   UNL     1      10.139  16.177  17.106  0.00  0.00    +0.000 A 
ATOM     16  N   UNL     1       9.499  15.519  18.085  0.00  0.00    +0.000 NA
ENDBRANCH  11  12
ENDBRANCH   8  11
ENDBRANCH   2   5
BRANCH   3  17
ATOM     17  C   UNL     1       8.005   6.000  18.615  0.00  0.00    +0.000 C 
BRANCH  17  18
ATOM     18  C   UNL     1       6.620   5.707  19.184  0.00  0.00    +0.000 C 
BRANCH  18  19
ATOM     19  C   UNL     1       5.790   4.860  18.272  0.00  0.00    +0.000 A 
ATOM     20  C   UNL     1       6.193   4.307  17.071  0.00  0.00    +0.000 A 
ATOM     21  N   UNL     1       5.132   3.634  16.527  0.00  0.00    +0.000 N 
ATOM     22  C   UNL     1       4.034   3.730  17.352  0.00  0.00    +0.000 A 
ATOM     23  C   UNL     1       2.741   3.217  17.193  0.00  0.00    +0.000 A 
ATOM     24  C   UNL     1       1.820   3.460  18.216  0.00  0.00    +0.000 A 
ATOM     25  C   UNL     1       2.188   4.181  19.348  0.00  0.00    +0.000 A 
ATOM     26 CL   UNL     1       1.032   4.448  20.599  0.00  0.00    +0.000 Cl
ATOM     27  C   UNL     1       3.479   4.698  19.489  0.00  0.00    +0.000 A 
ATOM     28  C   UNL     1       4.424   4.473  18.466  0.00  0.00    +0.000 A 
ATOM     29  H   UNL     1       5.147   3.139  15.646  0.00  0.00    +0.000 HD
ENDBRANCH  18  19
ENDBRANCH  17  18
ENDBRANCH   3  17
TORSDOF 6
ENDMDL
MODEL 4
REMARK VINA RESULT:      -8.3      3.396      5.571
REMARK  Name = 
REMARK  6 active torsions:
REMARK  status: ('A' for Active; 'I' for Inactive)
REMARK    1  A    between atoms: C_2  and  C_16
REMARK    2  A    between atoms: N_3  and  C_4
REMARK    3  A    between atoms: C_4  and  C_5
REMARK    4  A    between atoms: C_5  and  C_6
REMARK    5  A    between atoms: C_19  and  C_20
REMARK    6  A    between atoms: C_20  and  N_21
REMARK                            x       y       z     vdW  Elec       q    Type
REMARK                         _______ _______ _______ _____ _____    ______ ____
ROOT
ATOM      1  O   UNL     1       2.532   4.990  19.724  0.00  0.00    +0.000 OA
ATOM      2  C   UNL     1       3.024   5.920  19.103  0.00  0.00    +0.000 C 
ATOM      3  N   UNL     1       4.185   5.821  18.357  0.00  0.00    +0.000 N 
ATOM      4  H   UNL     1       4.675   6.671  18.107  0.00  0.00    +0.000 HD
ENDROOT
BRANCH   2   5
ATOM      5  C   UNL     1       2.389   7.265  19.121  0.00  0.00    +0.000 A 
ATOM      6  C   UNL     1       2.413   8.079  17.984  0.00  0.00    +0.000 A 
ATOM      7  C   UNL     1       1.762   9.318  18.007  0.00  0.00    +0.000 A 
ATOM      8  C   UNL     1       1.085   9.759  19.158  0.00  0.00    +0.000 A 
ATOM      9  C   UNL     1       1.091   8.936  20.296  0.00  0.00    +0.000 A 
ATOM     10  C   UNL     1       1.746   7.704  20.279  0.00  0.00    +0.000 A 
BRANCH   8  11
ATOM     11  C   UNL     1       0.369  11.089  19.150  0.00  0.00    +0.000 C 
BRANCH  11  12
ATOM     12  N   UNL     1      -0.886  11.056  18.405  0.00  0.00    +0.000 N 
ATOM     13  C   UNL     1      -1.892  11.986  18.444  0.00  0.00    +0.000 A 
ATOM     14  C   UNL     1      -2.950  11.439  17.759  0.00  0.00    +0.000 A 
ATOM     15  C   UNL     1      -2.480  10.189  17.315  0.00  0.00    +0.000 A 
ATOM     16  N   UNL     1      -1.220   9.947  17.710  0.00  0.00    +0.000 NA
ENDBRANCH  11  12
ENDBRANCH   8  11
ENDBRANCH   2   5
BRANCH   3  17
ATOM     17  C   UNL     1       4.910   4.565  18.325  0.00  0.00    +0.000 C 
BRANCH  17  18
ATOM     18  C   UNL     1       4.925   3.927  16.939  0.00  0.00    +0.000 C 
BRANCH  18  19
ATOM     19  C   UNL     1       5.974   4.510  16.046  0.00  0.00    +0.000 A 
ATOM     20  C   UNL     1       6.928   5.444  16.402  0.00  0.00    +0.000 A 
ATOM     21  N   UNL     1       7.673   5.745  15.294  0.00  0.00    +0.000 N 
ATOM     22  C   UNL     1       7.230   5.020  14.212  0.00  0.00    +0.000 A 
ATOM     23  C   UNL     1       7.679   5.016  12.885  0.00  0.00    +0.000 A 
ATOM     24  C   UNL     1       7.043   4.150  11.990  0.00  0.00    +0.000 A 
ATOM     25  C   UNL     1       6.006   3.325  12.415  0.00  0.00    +0.000 A 
ATOM     26 CL   UNL     1       5.253   2.258  11.290  0.00  0.00    +0.000 Cl
ATOM     27  C   UNL     1       5.559   3.347  13.740  0.00  0.00    +0.000 A 
ATOM     28  C   UNL     1       6.180   4.218  14.660  0.00  0.00    +0.000 A 
ATOM     29  H   UNL     1       8.438   6.405  15.268  0.00  0.00    +0.000 HD
ENDBRANCH  18  19
ENDBRANCH  17  18
ENDBRANCH   3  17
TORSDOF 6
ENDMDL
MODEL 5
REMARK VINA RESULT:      -8.2      0.534      1.247
REMARK  Name = 
REMARK  6 active torsions:
REMARK  status: ('A' for Active; 'I' for Inactive)
REMARK    1  A    between atoms: C_2  and  C_16
REMARK    2  A    between atoms: N_3  and  C_4
REMARK    3  A    between atoms: C_4  and  C_5
REMARK    4  A    between atoms: C_5  and  C_6
REMARK    5  A    between atoms: C_19  and  C_20
REMARK    6  A    between atoms: C_20  and  N_21
REMARK                            x       y       z     vdW  Elec       q    Type
REMARK                         _______ _______ _______ _____ _____    ______ ____
ROOT
ATOM      1  O   UNL     1       0.853  11.399  18.710  0.00  0.00    +0.000 OA
ATOM      2  C   UNL     1       0.141  10.538  18.216  0.00  0.00    +0.000 C 
ATOM      3  N   UNL     1       0.615   9.334  17.727  0.00  0.00    +0.000 N 
ATOM      4  H   UNL     1       0.029   8.803  17.094  0.00  0.00    +0.000 HD
ENDROOT
BRANCH   2   5
ATOM      5  C   UNL     1      -1.327  10.743  18.096  0.00  0.00    +0.000 A 
ATOM      6  C   UNL     1      -1.998  11.609  18.963  0.00  0.00    +0.000 A 
ATOM      7  C   UNL     1      -3.371  11.828  18.796  0.00  0.00    +0.000 A 
ATOM      8  C   UNL     1      -4.086  11.186  17.770  0.00  0.00    +0.000 A 
ATOM      9  C   UNL     1      -3.398  10.304  16.923  0.00  0.00    +0.000 A 
ATOM     10  C   UNL     1      -2.031  10.077  17.091  0.00  0.00    +0.000 A 
BRANCH   8  11
ATOM     11  C   UNL     1      -5.563  11.457  17.595  0.00  0.00    +0.000 C 
BRANCH  11  12
ATOM     12  N   UNL     1      -6.307  11.386  18.849  0.00  0.00    +0.000 N 
ATOM     13  C   UNL     1      -6.792  10.257  19.456  0.00  0.00    +0.000 A 
ATOM     14  C   UNL     1      -7.598  10.685  20.482  0.00  0.00    +0.000 A 
ATOM     15  C   UNL     1      -7.516  12.090  20.438  0.00  0.00    +0.000 A 
ATOM     16  N   UNL     1      -6.731  12.524  19.439  0.00  0.00    +0.000 NA
ENDBRANCH  11  12
ENDBRANCH   8  11
ENDBRANCH   2   5
BRANCH   3  17
ATOM     17  C   UNL     1       2.041   9.064  17.745  0.00  0.00    +0.000 C 
BRANCH  17  18
ATOM     18  C   UNL     1       2.417   7.938  18.704  0.00  0.00    +0.000 C 
BRANCH  18  19
ATOM     19  C   UNL     1       3.216   6.860  18.042  0.00  0.00    +0.000 A 
ATOM     20  C   UNL     1       4.405   7.023  17.357  0.00  0.00    +0.000 A 
ATOM     21  N   UNL     1       4.796   5.804  16.873  0.00  0.00    +0.000 N 
ATOM     22  C   UNL     1       3.885   4.836  17.232  0.00  0.00    +0.000 A 
ATOM     23  C   UNL     1       3.869   3.464  16.947  0.00  0.00    +0.000 A 
ATOM     24  C   UNL     1       2.812   2.710  17.465  0.00  0.00    +0.000 A 
ATOM     25  C   UNL     1       1.823   3.309  18.238  0.00  0.00    +0.000 A 
ATOM     26 CL   UNL     1       0.543   2.347  18.876  0.00  0.00    +0.000 Cl
ATOM     27  C   UNL     1       1.844   4.681  18.506  0.00  0.00    +0.000 A 
ATOM     28  C   UNL     1       2.896   5.465  17.987  0.00  0.00    +0.000 A 
ATOM     29  H   UNL     1       5.630   5.633  16.328  0.00  0.00    +0.000 HD
ENDBRANCH  18  19
ENDBRANCH  17  18
ENDBRANCH   3  17
TORSDOF 6
ENDMDL
MODEL 6
REMARK VINA RESULT:      -8.2      7.728      9.827
REMARK  Name = 
REMARK  6 active torsions:
REMARK  status: ('A' for Active; 'I' for Inactive)
REMARK    1  A    between atoms: C_2  and  C_16
REMARK    2  A    between atoms: N_3  and  C_4
REMARK    3  A    between atoms: C_4  and  C_5
REMARK    4  A    between atoms: C_5  and  C_6
REMARK    5  A    between atoms: C_19  and  C_20
REMARK    6  A    between atoms: C_20  and  N_21
REMARK                            x       y       z     vdW  Elec       q    Type
REMARK                         _______ _______ _______ _____ _____    ______ ____
ROOT
ATOM      1  O   UNL     1       7.385   7.921  16.941  0.00  0.00    +0.000 OA
ATOM      2  C   UNL     1       8.014   8.130  17.967  0.00  0.00    +0.000 C 
ATOM      3  N   UNL     1       8.318   7.151  18.897  0.00  0.00    +0.000 N 
ATOM      4  H   UNL     1       8.587   7.437  19.831  0.00  0.00    +0.000 HD
ENDROOT
BRANCH   2   5
ATOM      5  C   UNL     1       8.497   9.497  18.297  0.00  0.00    +0.000 A 
ATOM      6  C   UNL     1       8.221  10.574  17.450  0.00  0.00    +0.000 A 
ATOM      7  C   UNL     1       8.639  11.861  17.809  0.00  0.00    +0.000 A 
ATOM      8  C   UNL     1       9.336  12.087  19.009  0.00  0.00    +0.000 A 
ATOM      9  C   UNL     1       9.621  10.989  19.835  0.00  0.00    +0.000 A 
ATOM     10  C   UNL     1       9.213   9.704  19.478  0.00  0.00    +0.000 A 
BRANCH   8  11
ATOM     11  C   UNL     1       9.755  13.489  19.386  0.00  0.00    +0.000 C 
BRANCH  11  12
ATOM     12  N   UNL     1       8.707  14.479  19.154  0.00  0.00    +0.000 N 
ATOM     13  C   UNL     1       8.736  15.515  18.258  0.00  0.00    +0.000 A 
ATOM     14  C   UNL     1       7.643  16.298  18.537  0.00  0.00    +0.000 A 
ATOM     15  C   UNL     1       6.994  15.640  19.599  0.00  0.00    +0.000 A 
ATOM     16  N   UNL     1       7.642  14.528  19.983  0.00  0.00    +0.000 NA
ENDBRANCH  11  12
ENDBRANCH   8  11
ENDBRANCH   2   5
BRANCH   3  17
ATOM     17  C   UNL     1       7.840   5.797  18.694  0.00  0.00    +0.000 C 
BRANCH  17  18
ATOM     18  C   UNL     1       6.433   5.579  19.244  0.00  0.00    +0.000 C 
BRANCH  18  19
ATOM     19  C   UNL     1       5.529   4.902  18.264  0.00  0.00    +0.000 A 
ATOM     20  C   UNL     1       5.784   4.690  16.922  0.00  0.00    +0.000 A 
ATOM     21  N   UNL     1       4.695   4.073  16.367  0.00  0.00    +0.000 N 
ATOM     22  C   UNL     1       3.726   3.868  17.323  0.00  0.00    +0.000 A 
ATOM     23  C   UNL     1       2.455   3.291  17.207  0.00  0.00    +0.000 A 
ATOM     24  C   UNL     1       1.681   3.198  18.368  0.00  0.00    +0.000 A 
ATOM     25  C   UNL     1       2.168   3.659  19.587  0.00  0.00    +0.000 A 
ATOM     26 CL   UNL     1       1.194   3.513  21.002  0.00  0.00    +0.000 Cl
ATOM     27  C   UNL     1       3.434   4.243  19.687  0.00  0.00    +0.000 A 
ATOM     28  C   UNL     1       4.231   4.356  18.528  0.00  0.00    +0.000 A 
ATOM     29  H   UNL     1       4.609   3.805  15.396  0.00  0.00    +0.000 HD
ENDBRANCH  18  19
ENDBRANCH  17  18
ENDBRANCH   3  17
TORSDOF 6
ENDMDL
MODEL 7
REMARK VINA RESULT:      -8.2      4.709      6.457
REMARK  Name = 
REMARK  6 active torsions:
REMARK  status: ('A' for Active; 'I' for Inactive)
REMARK    1  A    between atoms: C_2  and  C_16
REMARK    2  A    between atoms: N_3  and  C_4
REMARK    3  A    between atoms: C_4  and  C_5
REMARK    4  A    between atoms: C_5  and  C_6
REMARK    5  A    between atoms: C_19  and  C_20
REMARK    6  A    between atoms: C_20  and  N_21
REMARK                            x       y       z     vdW  Elec       q    Type
REMARK                         _______ _______ _______ _____ _____    ______ ____
ROOT
ATOM      1  O   UNL     1       2.204   4.966  19.178  0.00  0.00    +0.000 OA
ATOM      2  C   UNL     1       2.878   5.935  18.861  0.00  0.00    +0.000 C 
ATOM      3  N   UNL     1       4.188   5.851  18.422  0.00  0.00    +0.000 N 
ATOM      4  H   UNL     1       4.760   6.687  18.445  0.00  0.00    +0.000 HD
ENDROOT
BRANCH   2   5
ATOM      5  C   UNL     1       2.316   7.310  18.938  0.00  0.00    +0.000 A 
ATOM      6  C   UNL     1       2.270   8.125  17.804  0.00  0.00    +0.000 A 
ATOM      7  C   UNL     1       1.688   9.395  17.888  0.00  0.00    +0.000 A 
ATOM      8  C   UNL     1       1.150   9.865  19.099  0.00  0.00    +0.000 A 
ATOM      9  C   UNL     1       1.225   9.039  20.232  0.00  0.00    +0.000 A 
ATOM     10  C   UNL     1       1.812   7.775  20.153  0.00  0.00    +0.000 A 
BRANCH   8  11
ATOM     11  C   UNL     1       0.504  11.230  19.159  0.00  0.00    +0.000 C 
BRANCH  11  12
ATOM     12  N   UNL     1       1.435  12.284  19.550  0.00  0.00    +0.000 N 
ATOM     13  C   UNL     1       1.514  12.903  20.771  0.00  0.00    +0.000 A 
ATOM     14  C   UNL     1       2.377  13.960  20.614  0.00  0.00    +0.000 A 
ATOM     15  C   UNL     1       2.794  13.883  19.271  0.00  0.00    +0.000 A 
ATOM     16  N   UNL     1       2.219  12.862  18.615  0.00  0.00    +0.000 NA
ENDBRANCH  11  12
ENDBRANCH   8  11
ENDBRANCH   2   5
BRANCH   3  17
ATOM     17  C   UNL     1       4.844   4.559  18.368  0.00  0.00    +0.000 C 
BRANCH  17  18
ATOM     18  C   UNL     1       4.844   3.955  16.967  0.00  0.00    +0.000 C 
BRANCH  18  19
ATOM     19  C   UNL     1       5.906   4.536  16.088  0.00  0.00    +0.000 A 
ATOM     20  C   UNL     1       6.860   5.466  16.458  0.00  0.00    +0.000 A 
ATOM     21  N   UNL     1       7.620   5.766  15.359  0.00  0.00    +0.000 N 
ATOM     22  C   UNL     1       7.186   5.045  14.270  0.00  0.00    +0.000 A 
ATOM     23  C   UNL     1       7.652   5.043  12.949  0.00  0.00    +0.000 A 
ATOM     24  C   UNL     1       7.022   4.182  12.044  0.00  0.00    +0.000 A 
ATOM     25  C   UNL     1       5.977   3.360  12.455  0.00  0.00    +0.000 A 
ATOM     26 CL   UNL     1       5.234   2.299  11.318  0.00  0.00    +0.000 Cl
ATOM     27  C   UNL     1       5.514   3.381  13.774  0.00  0.00    +0.000 A 
ATOM     28  C   UNL     1       6.128   4.247  14.703  0.00  0.00    +0.000 A 
ATOM     29  H   UNL     1       8.388   6.423  15.344  0.00  0.00    +0.000 HD
ENDBRANCH  18  19
ENDBRANCH  17  18
ENDBRANCH   3  17
TORSDOF 6
ENDMDL
MODEL 8
REMARK VINA RESULT:      -8.1      3.131      5.274
REMARK  Name = 
REMARK  6 active torsions:
REMARK  status: ('A' for Active; 'I' for Inactive)
REMARK    1  A    between atoms: C_2  and  C_16
REMARK    2  A    between atoms: N_3  and  C_4
REMARK    3  A    between atoms: C_4  and  C_5
REMARK    4  A    between atoms: C_5  and  C_6
REMARK    5  A    between atoms: C_19  and  C_20
REMARK    6  A    between atoms: C_20  and  N_21
REMARK                            x       y       z     vdW  Elec       q    Type
REMARK                         _______ _______ _______ _____ _____    ______ ____
ROOT
ATOM      1  O   UNL     1       3.494   5.445  20.113  0.00  0.00    +0.000 OA
ATOM      2  C   UNL     1       2.883   5.832  19.129  0.00  0.00    +0.000 C 
ATOM      3  N   UNL     1       2.659   5.055  18.006  0.00  0.00    +0.000 N 
ATOM      4  H   UNL     1       2.400   5.515  17.142  0.00  0.00    +0.000 HD
ENDROOT
BRANCH   2   5
ATOM      5  C   UNL     1       2.333   7.212  19.071  0.00  0.00    +0.000 A 
ATOM      6  C   UNL     1       2.426   7.967  17.898  0.00  0.00    +0.000 A 
ATOM      7  C   UNL     1       1.852   9.243  17.849  0.00  0.00    +0.000 A 
ATOM      8  C   UNL     1       1.186   9.780  18.965  0.00  0.00    +0.000 A 
ATOM      9  C   UNL     1       1.122   9.014  20.140  0.00  0.00    +0.000 A 
ATOM     10  C   UNL     1       1.699   7.745  20.195  0.00  0.00    +0.000 A 
BRANCH   8  11
ATOM     11  C   UNL     1       0.554  11.150  18.880  0.00  0.00    +0.000 C 
BRANCH  11  12
ATOM     12  N   UNL     1      -0.893  11.099  18.696  0.00  0.00    +0.000 N 
ATOM     13  C   UNL     1      -1.579  10.364  17.765  0.00  0.00    +0.000 A 
ATOM     14  C   UNL     1      -2.884  10.789  17.822  0.00  0.00    +0.000 A 
ATOM     15  C   UNL     1      -2.898  11.762  18.839  0.00  0.00    +0.000 A 
ATOM     16  N   UNL     1      -1.683  11.958  19.375  0.00  0.00    +0.000 NA
ENDBRANCH  11  12
ENDBRANCH   8  11
ENDBRANCH   2   5
BRANCH   3  17
ATOM     17  C   UNL     1       3.207   3.713  17.943  0.00  0.00    +0.000 C 
BRANCH  17  18
ATOM     18  C   UNL     1       4.302   3.572  16.889  0.00  0.00    +0.000 C 
BRANCH  18  19
ATOM     19  C   UNL     1       5.051   4.847  16.662  0.00  0.00    +0.000 A 
ATOM     20  C   UNL     1       4.892   5.714  15.598  0.00  0.00    +0.000 A 
ATOM     21  N   UNL     1       5.787   6.741  15.739  0.00  0.00    +0.000 N 
ATOM     22  C   UNL     1       6.532   6.567  16.884  0.00  0.00    +0.000 A 
ATOM     23  C   UNL     1       7.564   7.352  17.414  0.00  0.00    +0.000 A 
ATOM     24  C   UNL     1       8.138   6.937  18.619  0.00  0.00    +0.000 A 
ATOM     25  C   UNL     1       7.688   5.787  19.261  0.00  0.00    +0.000 A 
ATOM     26 CL   UNL     1       8.405   5.311  20.755  0.00  0.00    +0.000 Cl
ATOM     27  C   UNL     1       6.665   5.006  18.716  0.00  0.00    +0.000 A 
ATOM     28  C   UNL     1       6.076   5.400  17.496  0.00  0.00    +0.000 A 
ATOM     29  H   UNL     1       5.891   7.515  15.098  0.00  0.00    +0.000 HD
ENDBRANCH  18  19
ENDBRANCH  17  18
ENDBRANCH   3  17
TORSDOF 6
ENDMDL
MODEL 9
REMARK VINA RESULT:      -8.0      4.620      6.258
REMARK  Name = 
REMARK  6 active torsions:
REMARK  status: ('A' for Active; 'I' for Inactive)
REMARK    1  A    between atoms: C_2  and  C_16
REMARK    2  A    between atoms: N_3  and  C_4
REMARK    3  A    between atoms: C_4  and  C_5
REMARK    4  A    between atoms: C_5  and  C_6
REMARK    5  A    between atoms: C_19  and  C_20
REMARK    6  A    between atoms: C_20  and  N_21
REMARK                            x       y       z     vdW  Elec       q    Type
REMARK                         _______ _______ _______ _____ _____    ______ ____
ROOT
ATOM      1  O   UNL     1       2.367   5.266  19.892  0.00  0.00    +0.000 OA
ATOM      2  C   UNL     1       2.802   6.165  19.188  0.00  0.00    +0.000 C 
ATOM      3  N   UNL     1       3.927   6.043  18.392  0.00  0.00    +0.000 N 
ATOM      4  H   UNL     1       4.381   6.887  18.063  0.00  0.00    +0.000 HD
ENDROOT
BRANCH   2   5
ATOM      5  C   UNL     1       2.132   7.492  19.150  0.00  0.00    +0.000 A 
ATOM      6  C   UNL     1       1.602   8.056  20.314  0.00  0.00    +0.000 A 
ATOM      7  C   UNL     1       1.025   9.330  20.264  0.00  0.00    +0.000 A 
ATOM      8  C   UNL     1       0.968  10.052  19.059  0.00  0.00    +0.000 A 
ATOM      9  C   UNL     1       1.487   9.459  17.897  0.00  0.00    +0.000 A 
ATOM     10  C   UNL     1       2.056   8.186  17.941  0.00  0.00    +0.000 A 
BRANCH   8  11
ATOM     11  C   UNL     1       0.362  11.436  19.036  0.00  0.00    +0.000 C 
BRANCH  11  12
ATOM     12  N   UNL     1       1.069  12.382  19.894  0.00  0.00    +0.000 N 
ATOM     13  C   UNL     1       0.553  13.073  20.959  0.00  0.00    +0.000 A 
ATOM     14  C   UNL     1       1.508  13.990  21.324  0.00  0.00    +0.000 A 
ATOM     15  C   UNL     1       2.581  13.759  20.443  0.00  0.00    +0.000 A 
ATOM     16  N   UNL     1       2.317  12.778  19.564  0.00  0.00    +0.000 NA
ENDBRANCH  11  12
ENDBRANCH   8  11
ENDBRANCH   2   5
BRANCH   3  17
ATOM     17  C   UNL     1       4.684   4.806  18.405  0.00  0.00    +0.000 C 
BRANCH  17  18
ATOM     18  C   UNL     1       4.729   4.127  17.040  0.00  0.00    +0.000 C 
BRANCH  18  19
ATOM     19  C   UNL     1       5.828   4.651  16.171  0.00  0.00    +0.000 A 
ATOM     20  C   UNL     1       6.822   5.535  16.548  0.00  0.00    +0.000 A 
ATOM     21  N   UNL     1       7.608   5.792  15.457  0.00  0.00    +0.000 N 
ATOM     22  C   UNL     1       7.153   5.087  14.366  0.00  0.00    +0.000 A 
ATOM     23  C   UNL     1       7.633   5.054  13.050  0.00  0.00    +0.000 A 
ATOM     24  C   UNL     1       6.974   4.219  12.143  0.00  0.00    +0.000 A 
ATOM     25  C   UNL     1       5.885   3.452  12.545  0.00  0.00    +0.000 A 
ATOM     26 CL   UNL     1       5.104   2.421  11.405  0.00  0.00    +0.000 Cl
ATOM     27  C   UNL     1       5.408   3.502  13.858  0.00  0.00    +0.000 A 
ATOM     28  C   UNL     1       6.052   4.343  14.790  0.00  0.00    +0.000 A 
ATOM     29  H   UNL     1       8.408   6.411  15.448  0.00  0.00    +0.000 HD
ENDBRANCH  18  19
ENDBRANCH  17  18
ENDBRANCH   3  17
TORSDOF 6
ENDMDL
