MODEL 1
REMARK VINA RESULT:      -5.9      0.000      0.000
REMARK  Name = 
REMARK  6 active torsions:
REMARK  status: ('A' for Active; 'I' for Inactive)
REMARK    1  A    between atoms: C_1  and  C_2
REMARK    2  A    between atoms: C_2  and  C_3
REMARK    3  A    between atoms: C_2  and  N_9
REMARK    4  A    between atoms: C_3  and  N_4
REMARK    5  A    between atoms: N_9  and  C_10
REMARK    6  A    between atoms: C_10  and  C_11
REMARK                            x       y       z     vdW  Elec       q    Type
REMARK                         _______ _______ _______ _____ _____    ______ ____
ROOT
ATOM      1  C   UNL     1       3.730   5.281  17.796  0.00  0.00    +0.000 C 
ATOM      2  C   UNL     1       4.476   4.072  17.217  0.00  0.00    +0.000 C 
ENDROOT
BRANCH   2   3
ATOM      3  N   UNL     1       4.694   3.037  18.242  0.00  0.00    +0.000 NA
ATOM      4  H   UNL     1       4.817   3.455  19.166  0.00  0.00    +0.000 HD
BRANCH   3   5
ATOM      5  C   UNL     1       3.589   2.079  18.339  0.00  0.00    +0.000 C 
BRANCH   5   6
ATOM      6  C   UNL     1       2.695   2.441  19.470  0.00  0.00    +0.000 A 
ATOM      7  C   UNL     1       1.331   2.621  19.585  0.00  0.00    +0.000 A 
ATOM      8  C   UNL     1       1.090   2.988  20.930  0.00  0.00    +0.000 A 
ATOM      9  C   UNL     1       2.316   3.000  21.551  0.00  0.00    +0.000 A 
ATOM     10  O   UNL     1       3.298   2.665  20.675  0.00  0.00    +0.000 OA
ENDBRANCH   5   6
ENDBRANCH   3   5
ENDBRANCH   2   3
BRANCH   2  11
ATOM     11  C   UNL     1       5.819   4.565  16.635  0.00  0.00    +0.000 C 
BRANCH  11  12
ATOM     12  N   UNL     1       6.618   5.335  17.561  0.00  0.00    +0.000 N 
ATOM     13  C   UNL     1       7.172   6.561  17.355  0.00  0.00    +0.000 A 
ATOM     14  N   UNL     1       7.943   6.872  18.370  0.00  0.00    +0.000 NA
ATOM     15  C   UNL     1       7.825   5.784  19.187  0.00  0.00    +0.000 A 
ATOM     16  N   UNL     1       7.035   4.807  18.729  0.00  0.00    +0.000 NA
ENDBRANCH  11  12
ENDBRANCH   2  11
TORSDOF 5
ENDMDL
MODEL 2
REMARK VINA RESULT:      -5.7      2.923      5.967
REMARK  Name = 
REMARK  6 active torsions:
REMARK  status: ('A' for Active; 'I' for Inactive)
REMARK    1  A    between atoms: C_1  and  C_2
REMARK    2  A    between atoms: C_2  and  C_3
REMARK    3  A    between atoms: C_2  and  N_9
REMARK    4  A    between atoms: C_3  and  N_4
REMARK    5  A    between atoms: N_9  and  C_10
REMARK    6  A    between atoms: C_10  and  C_11
REMARK                            x       y       z     vdW  Elec       q    Type
REMARK                         _______ _______ _______ _____ _____    ______ ____
ROOT
ATOM      1  C   UNL     1       4.669   6.784  17.527  0.00  0.00    +0.000 C 
ATOM      2  C   UNL     1       5.234   5.712  18.468  0.00  0.00    +0.000 C 
ENDROOT
BRANCH   2   3
ATOM      3  N   UNL     1       5.906   4.640  17.714  0.00  0.00    +0.000 NA
ATOM      4  H   UNL     1       5.255   4.176  17.077  0.00  0.00    +0.000 HD
BRANCH   3   5
ATOM      5  C   UNL     1       7.037   5.118  16.914  0.00  0.00    +0.000 C 
BRANCH   5   6
ATOM      6  C   UNL     1       6.850   4.744  15.488  0.00  0.00    +0.000 A 
ATOM      7  C   UNL     1       6.019   3.854  14.839  0.00  0.00    +0.000 A 
ATOM      8  C   UNL     1       6.340   3.940  13.463  0.00  0.00    +0.000 A 
ATOM      9  C   UNL     1       7.336   4.881  13.359  0.00  0.00    +0.000 A 
ATOM     10  O   UNL     1       7.652   5.379  14.582  0.00  0.00    +0.000 OA
ENDBRANCH   5   6
ENDBRANCH   3   5
ENDBRANCH   2   3
BRANCH   2  11
ATOM     11  C   UNL     1       4.071   5.149  19.313  0.00  0.00    +0.000 C 
BRANCH  11  12
ATOM     12  N   UNL     1       3.178   4.277  18.585  0.00  0.00    +0.000 N 
ATOM     13  C   UNL     1       1.914   4.552  18.162  0.00  0.00    +0.000 A 
ATOM     14  N   UNL     1       1.371   3.468  17.663  0.00  0.00    +0.000 NA
ATOM     15  C   UNL     1       2.360   2.537  17.804  0.00  0.00    +0.000 A 
ATOM     16  N   UNL     1       3.484   2.980  18.378  0.00  0.00    +0.000 NA
ENDBRANCH  11  12
ENDBRANCH   2  11
TORSDOF 5
ENDMDL
MODEL 3
REMARK VINA RESULT:      -5.7      1.943      3.218
REMARK  Name = 
REMARK  6 active torsions:
REMARK  status: ('A' for Active; 'I' for Inactive)
REMARK    1  A    between atoms: C_1  and  C_2
REMARK    2  A    between atoms: C_2  and  C_3
REMARK    3  A    between atoms: C_2  and  N_9
REMARK    4  A    between atoms: C_3  and  N_4
REMARK    5  A    between atoms: N_9  and  C_10
REMARK    6  A    between atoms: C_10  and  C_11
REMARK                            x       y       z     vdW  Elec       q    Type
REMARK                         _______ _______ _______ _____ _____    ______ ____
ROOT
ATOM      1  C   UNL     1       7.621   5.732  19.482  0.00  0.00    +0.000 C 
ATOM      2  C   UNL     1       6.720   5.140  18.390  0.00  0.00    +0.000 C 
ENDROOT
BRANCH   2   3
ATOM      3  N   UNL     1       5.778   4.155  18.950  0.00  0.00    +0.000 NA
ATOM      4  H   UNL     1       6.184   3.677  19.757  0.00  0.00    +0.000 HD
BRANCH   3   5
ATOM      5  C   UNL     1       4.512   4.751  19.386  0.00  0.00    +0.000 C 
BRANCH   5   6
ATOM      6  C   UNL     1       3.411   3.759  19.268  0.00  0.00    +0.000 A 
ATOM      7  C   UNL     1       3.379   2.389  19.101  0.00  0.00    +0.000 A 
ATOM      8  C   UNL     1       2.012   2.028  19.033  0.00  0.00    +0.000 A 
ATOM      9  C   UNL     1       1.299   3.195  19.172  0.00  0.00    +0.000 A 
ATOM     10  O   UNL     1       2.139   4.253  19.319  0.00  0.00    +0.000 OA
ENDBRANCH   5   6
ENDBRANCH   3   5
ENDBRANCH   2   3
BRANCH   2  11
ATOM     11  C   UNL     1       7.622   4.494  17.317  0.00  0.00    +0.000 C 
BRANCH  11  12
ATOM     12  N   UNL     1       7.069   4.524  15.983  0.00  0.00    +0.000 N 
ATOM     13  C   UNL     1       6.051   3.767  15.490  0.00  0.00    +0.000 A 
ATOM     14  N   UNL     1       5.928   3.978  14.202  0.00  0.00    +0.000 NA
ATOM     15  C   UNL     1       6.911   4.891  13.946  0.00  0.00    +0.000 A 
ATOM     16  N   UNL     1       7.648   5.248  15.003  0.00  0.00    +0.000 NA
ENDBRANCH  11  12
ENDBRANCH   2  11
TORSDOF 5
ENDMDL
MODEL 4
REMARK VINA RESULT:      -5.6      1.677      2.145
REMARK  Name = 
REMARK  6 active torsions:
REMARK  status: ('A' for Active; 'I' for Inactive)
REMARK    1  A    between atoms: C_1  and  C_2
REMARK    2  A    between atoms: C_2  and  C_3
REMARK    3  A    between atoms: C_2  and  N_9
REMARK    4  A    between atoms: C_3  and  N_4
REMARK    5  A    between atoms: N_9  and  C_10
REMARK    6  A    between atoms: C_10  and  C_11
REMARK                            x       y       z     vdW  Elec       q    Type
REMARK                         _______ _______ _______ _____ _____    ______ ____
ROOT
ATOM      1  C   UNL     1       2.664   6.729  18.462  0.00  0.00    +0.000 C 
ATOM      2  C   UNL     1       3.534   5.918  17.492  0.00  0.00    +0.000 C 
ENDROOT
BRANCH   2   3
ATOM      3  N   UNL     1       3.352   4.471  17.693  0.00  0.00    +0.000 NA
ATOM      4  H   UNL     1       3.950   4.127  18.447  0.00  0.00    +0.000 HD
BRANCH   3   5
ATOM      5  C   UNL     1       1.972   4.103  18.026  0.00  0.00    +0.000 C 
BRANCH   5   6
ATOM      6  C   UNL     1       1.910   3.541  19.401  0.00  0.00    +0.000 A 
ATOM      7  C   UNL     1       0.882   3.334  20.298  0.00  0.00    +0.000 A 
ATOM      8  C   UNL     1       1.472   2.785  21.461  0.00  0.00    +0.000 A 
ATOM      9  C   UNL     1       2.818   2.682  21.197  0.00  0.00    +0.000 A 
ATOM     10  O   UNL     1       3.094   3.136  19.947  0.00  0.00    +0.000 OA
ENDBRANCH   5   6
ENDBRANCH   3   5
ENDBRANCH   2   3
BRANCH   2  11
ATOM     11  C   UNL     1       5.008   6.326  17.707  0.00  0.00    +0.000 C 
BRANCH  11  12
ATOM     12  N   UNL     1       5.957   5.517  16.978  0.00  0.00    +0.000 N 
ATOM     13  C   UNL     1       7.174   5.082  17.406  0.00  0.00    +0.000 A 
ATOM     14  N   UNL     1       7.805   4.496  16.416  0.00  0.00    +0.000 NA
ATOM     15  C   UNL     1       6.917   4.599  15.384  0.00  0.00    +0.000 A 
ATOM     16  N   UNL     1       5.774   5.230  15.674  0.00  0.00    +0.000 NA
ENDBRANCH  11  12
ENDBRANCH   2  11
TORSDOF 5
ENDMDL
MODEL 5
REMARK VINA RESULT:      -5.5      2.106      3.342
REMARK  Name = 
REMARK  6 active torsions:
REMARK  status: ('A' for Active; 'I' for Inactive)
REMARK    1  A    between atoms: C_1  and  C_2
REMARK    2  A    between atoms: C_2  and  C_3
REMARK    3  A    between atoms: C_2  and  N_9
REMARK    4  A    between atoms: C_3  and  N_4
REMARK    5  A    between atoms: N_9  and  C_10
REMARK    6  A    between atoms: C_10  and  C_11
REMARK                            x       y       z     vdW  Elec       q    Type
REMARK                         _______ _______ _______ _____ _____    ______ ____
ROOT
ATOM      1  C   UNL     1       7.688   5.769  19.556  0.00  0.00    +0.000 C 
ATOM      2  C   UNL     1       6.915   5.742  18.230  0.00  0.00    +0.000 C 
ENDROOT
BRANCH   2   3
ATOM      3  N   UNL     1       5.464   5.636  18.459  0.00  0.00    +0.000 NA
ATOM      4  H   UNL     1       4.954   5.603  17.574  0.00  0.00    +0.000 HD
BRANCH   3   5
ATOM      5  C   UNL     1       5.086   4.446  19.227  0.00  0.00    +0.000 C 
BRANCH   5   6
ATOM      6  C   UNL     1       3.606   4.352  19.332  0.00  0.00    +0.000 A 
ATOM      7  C   UNL     1       2.691   4.767  20.278  0.00  0.00    +0.000 A 
ATOM      8  C   UNL     1       1.420   4.356  19.809  0.00  0.00    +0.000 A 
ATOM      9  C   UNL     1       1.639   3.726  18.607  0.00  0.00    +0.000 A 
ATOM     10  O   UNL     1       2.963   3.721  18.306  0.00  0.00    +0.000 OA
ENDBRANCH   5   6
ENDBRANCH   3   5
ENDBRANCH   2   3
BRANCH   2  11
ATOM     11  C   UNL     1       7.431   4.551  17.394  0.00  0.00    +0.000 C 
BRANCH  11  12
ATOM     12  N   UNL     1       6.976   4.549  16.023  0.00  0.00    +0.000 N 
ATOM     13  C   UNL     1       5.999   3.775  15.476  0.00  0.00    +0.000 A 
ATOM     14  N   UNL     1       5.968   3.956  14.177  0.00  0.00    +0.000 NA
ATOM     15  C   UNL     1       6.964   4.869  13.973  0.00  0.00    +0.000 A 
ATOM     16  N   UNL     1       7.621   5.253  15.071  0.00  0.00    +0.000 NA
ENDBRANCH  11  12
ENDBRANCH   2  11
TORSDOF 5
ENDMDL
MODEL 6
REMARK VINA RESULT:      -5.5      1.889      2.484
REMARK  Name = 
REMARK  6 active torsions:
REMARK  status: ('A' for Active; 'I' for Inactive)
REMARK    1  A    between atoms: C_1  and  C_2
REMARK    2  A    between atoms: C_2  and  C_3
REMARK    3  A    between atoms: C_2  and  N_9
REMARK    4  A    between atoms: C_3  and  N_4
REMARK    5  A    between atoms: N_9  and  C_10
REMARK    6  A    between atoms: C_10  and  C_11
REMARK                            x       y       z     vdW  Elec       q    Type
REMARK                         _______ _______ _______ _____ _____    ______ ____
ROOT
ATOM      1  C   UNL     1       2.982   7.395  17.971  0.00  0.00    +0.000 C 
ATOM      2  C   UNL     1       4.051   6.303  17.833  0.00  0.00    +0.000 C 
ENDROOT
BRANCH   2   3
ATOM      3  N   UNL     1       4.446   5.771  19.148  0.00  0.00    +0.000 NA
ATOM      4  H   UNL     1       3.852   6.148  19.890  0.00  0.00    +0.000 HD
BRANCH   3   5
ATOM      5  C   UNL     1       4.371   4.309  19.227  0.00  0.00    +0.000 C 
BRANCH   5   6
ATOM      6  C   UNL     1       3.064   3.894  19.801  0.00  0.00    +0.000 A 
ATOM      7  C   UNL     1       1.997   4.586  20.335  0.00  0.00    +0.000 A 
ATOM      8  C   UNL     1       1.053   3.612  20.739  0.00  0.00    +0.000 A 
ATOM      9  C   UNL     1       1.598   2.391  20.418  0.00  0.00    +0.000 A 
ATOM     10  O   UNL     1       2.819   2.551  19.845  0.00  0.00    +0.000 OA
ENDBRANCH   5   6
ENDBRANCH   3   5
ENDBRANCH   2   3
BRANCH   2  11
ATOM     11  C   UNL     1       5.265   6.905  17.092  0.00  0.00    +0.000 C 
BRANCH  11  12
ATOM     12  N   UNL     1       6.087   5.930  16.413  0.00  0.00    +0.000 N 
ATOM     13  C   UNL     1       7.162   5.262  16.913  0.00  0.00    +0.000 A 
ATOM     14  N   UNL     1       7.734   4.569  15.957  0.00  0.00    +0.000 NA
ATOM     15  C   UNL     1       6.958   4.852  14.869  0.00  0.00    +0.000 A 
ATOM     16  N   UNL     1       5.944   5.693  15.094  0.00  0.00    +0.000 NA
ENDBRANCH  11  12
ENDBRANCH   2  11
TORSDOF 5
ENDMDL
MODEL 7
REMARK VINA RESULT:      -5.5      2.012      3.205
REMARK  Name = 
REMARK  6 active torsions:
REMARK  status: ('A' for Active; 'I' for Inactive)
REMARK    1  A    between atoms: C_1  and  C_2
REMARK    2  A    between atoms: C_2  and  C_3
REMARK    3  A    between atoms: C_2  and  N_9
REMARK    4  A    between atoms: C_3  and  N_4
REMARK    5  A    between atoms: N_9  and  C_10
REMARK    6  A    between atoms: C_10  and  C_11
REMARK                            x       y       z     vdW  Elec       q    Type
REMARK                         _______ _______ _______ _____ _____    ______ ____
ROOT
ATOM      1  C   UNL     1       7.692   5.659  19.740  0.00  0.00    +0.000 C 
ATOM      2  C   UNL     1       6.574   5.571  18.694  0.00  0.00    +0.000 C 
ENDROOT
BRANCH   2   3
ATOM      3  N   UNL     1       6.231   4.171  18.393  0.00  0.00    +0.000 NA
ATOM      4  H   UNL     1       7.050   3.565  18.480  0.00  0.00    +0.000 HD
BRANCH   3   5
ATOM      5  C   UNL     1       5.191   3.629  19.273  0.00  0.00    +0.000 C 
BRANCH   5   6
ATOM      6  C   UNL     1       3.845   3.986  18.754  0.00  0.00    +0.000 A 
ATOM      7  C   UNL     1       3.196   3.762  17.557  0.00  0.00    +0.000 A 
ATOM      8  C   UNL     1       1.928   4.382  17.669  0.00  0.00    +0.000 A 
ATOM      9  C   UNL     1       1.880   4.935  18.927  0.00  0.00    +0.000 A 
ATOM     10  O   UNL     1       3.038   4.698  19.596  0.00  0.00    +0.000 OA
ENDBRANCH   5   6
ENDBRANCH   3   5
ENDBRANCH   2   3
BRANCH   2  11
ATOM     11  C   UNL     1       7.042   6.311  17.422  0.00  0.00    +0.000 C 
BRANCH  11  12
ATOM     12  N   UNL     1       6.653   5.670  16.187  0.00  0.00    +0.000 N 
ATOM     13  C   UNL     1       5.442   5.729  15.569  0.00  0.00    +0.000 A 
ATOM     14  N   UNL     1       5.427   4.905  14.548  0.00  0.00    +0.000 NA
ATOM     15  C   UNL     1       6.677   4.353  14.583  0.00  0.00    +0.000 A 
ATOM     16  N   UNL     1       7.462   4.779  15.578  0.00  0.00    +0.000 NA
ENDBRANCH  11  12
ENDBRANCH   2  11
TORSDOF 5
ENDMDL
MODEL 8
REMARK VINA RESULT:      -5.5      1.970      2.657
REMARK  Name = 
REMARK  6 active torsions:
REMARK  status: ('A' for Active; 'I' for Inactive)
REMARK    1  A    between atoms: C_1  and  C_2
REMARK    2  A    between atoms: C_2  and  C_3
REMARK    3  A    between atoms: C_2  and  N_9
REMARK    4  A    between atoms: C_3  and  N_4
REMARK    5  A    between atoms: N_9  and  C_10
REMARK    6  A    between atoms: C_10  and  C_11
REMARK                            x       y       z     vdW  Elec       q    Type
REMARK                         _______ _______ _______ _____ _____    ______ ____
ROOT
ATOM      1  C   UNL     1       4.639   4.036  16.531  0.00  0.00    +0.000 C 
ATOM      2  C   UNL     1       5.538   4.189  17.766  0.00  0.00    +0.000 C 
ENDROOT
BRANCH   2   3
ATOM      3  N   UNL     1       5.087   3.320  18.866  0.00  0.00    +0.000 NA
ATOM      4  H   UNL     1       4.845   3.870  19.693  0.00  0.00    +0.000 HD
BRANCH   3   5
ATOM      5  C   UNL     1       3.915   2.511  18.520  0.00  0.00    +0.000 C 
BRANCH   5   6
ATOM      6  C   UNL     1       2.852   2.685  19.544  0.00  0.00    +0.000 A 
ATOM      7  C   UNL     1       1.495   2.927  19.475  0.00  0.00    +0.000 A 
ATOM      8  C   UNL     1       1.038   3.017  20.812  0.00  0.00    +0.000 A 
ATOM      9  C   UNL     1       2.140   2.817  21.609  0.00  0.00    +0.000 A 
ATOM     10  O   UNL     1       3.247   2.611  20.849  0.00  0.00    +0.000 OA
ENDBRANCH   5   6
ENDBRANCH   3   5
ENDBRANCH   2   3
BRANCH   2  11
ATOM     11  C   UNL     1       5.526   5.673  18.192  0.00  0.00    +0.000 C 
BRANCH  11  12
ATOM     12  N   UNL     1       4.209   6.200  18.465  0.00  0.00    +0.000 N 
ATOM     13  C   UNL     1       3.526   7.133  17.748  0.00  0.00    +0.000 A 
ATOM     14  N   UNL     1       2.425   7.459  18.383  0.00  0.00    +0.000 NA
ATOM     15  C   UNL     1       2.480   6.682  19.506  0.00  0.00    +0.000 A 
ATOM     16  N   UNL     1       3.561   5.902  19.609  0.00  0.00    +0.000 NA
ENDBRANCH  11  12
ENDBRANCH   2  11
TORSDOF 5
ENDMDL
MODEL 9
REMARK VINA RESULT:      -5.5      2.101      3.075
REMARK  Name = 
REMARK  6 active torsions:
REMARK  status: ('A' for Active; 'I' for Inactive)
REMARK    1  A    between atoms: C_1  and  C_2
REMARK    2  A    between atoms: C_2  and  C_3
REMARK    3  A    between atoms: C_2  and  N_9
REMARK    4  A    between atoms: C_3  and  N_4
REMARK    5  A    between atoms: N_9  and  C_10
REMARK    6  A    between atoms: C_10  and  C_11
REMARK                            x       y       z     vdW  Elec       q    Type
REMARK                         _______ _______ _______ _____ _____    ______ ____
ROOT
ATOM      1  C   UNL     1       6.026   5.814  19.009  0.00  0.00    +0.000 C 
ATOM      2  C   UNL     1       5.838   4.667  18.007  0.00  0.00    +0.000 C 
ENDROOT
BRANCH   2   3
ATOM      3  N   UNL     1       5.517   3.404  18.693  0.00  0.00    +0.000 NA
ATOM      4  H   UNL     1       6.344   3.014  19.149  0.00  0.00    +0.000 HD
BRANCH   3   5
ATOM      5  C   UNL     1       4.480   3.552  19.719  0.00  0.00    +0.000 C 
BRANCH   5   6
ATOM      6  C   UNL     1       3.132   3.425  19.106  0.00  0.00    +0.000 A 
ATOM      7  C   UNL     1       2.372   4.249  18.300  0.00  0.00    +0.000 A 
ATOM      8  C   UNL     1       1.153   3.567  18.071  0.00  0.00    +0.000 A 
ATOM      9  C   UNL     1       1.249   2.371  18.742  0.00  0.00    +0.000 A 
ATOM     10  O   UNL     1       2.448   2.273  19.372  0.00  0.00    +0.000 OA
ENDBRANCH   5   6
ENDBRANCH   3   5
ENDBRANCH   2   3
BRANCH   2  11
ATOM     11  C   UNL     1       7.134   4.532  17.177  0.00  0.00    +0.000 C 
BRANCH  11  12
ATOM     12  N   UNL     1       6.926   4.553  15.748  0.00  0.00    +0.000 N 
ATOM     13  C   UNL     1       6.120   3.736  15.017  0.00  0.00    +0.000 A 
ATOM     14  N   UNL     1       6.303   3.965  13.738  0.00  0.00    +0.000 NA
ATOM     15  C   UNL     1       7.250   4.950  13.737  0.00  0.00    +0.000 A 
ATOM     16  N   UNL     1       7.675   5.335  14.945  0.00  0.00    +0.000 NA
ENDBRANCH  11  12
ENDBRANCH   2  11
TORSDOF 5
ENDMDL
