MODEL 1
REMARK VINA RESULT:      -7.6      0.000      0.000
REMARK  Name = 
REMARK  12 active torsions:
REMARK  status: ('A' for Active; 'I' for Inactive)
REMARK    1  A    between atoms: C_1  and  C_2
REMARK    2  A    between atoms: C_2  and  O_3
REMARK    3  A    between atoms: C_2  and  C_25
REMARK    4  A    between atoms: O_3  and  C_4
REMARK    5  A    between atoms: N_6  and  C_7
REMARK    6  A    between atoms: C_11  and  C_12
REMARK    7  A    between atoms: C_15  and  C_16
REMARK    8  A    between atoms: C_16  and  S_17
REMARK    9  A    between atoms: S_17  and  C_18
REMARK   10  A    between atoms: C_18  and  C_19
REMARK   11  A    between atoms: C_19  and  C_20
REMARK   12  A    between atoms: C_20  and  O_22
REMARK                            x       y       z     vdW  Elec       q    Type
REMARK                         _______ _______ _______ _____ _____    ______ ____
ROOT
ATOM      1  C   UNL     1       3.053   3.590  19.866  0.00  0.00    +0.000 A 
ATOM      2  C   UNL     1       2.516   2.580  20.704  0.00  0.00    +0.000 A 
ATOM      3  N   UNL     1       1.612   3.055  21.562  0.00  0.00    +0.000 NA
ATOM      4  O   UNL     1       1.522   4.405  21.280  0.00  0.00    +0.000 OA
ATOM      5  C   UNL     1       2.368   4.724  20.257  0.00  0.00    +0.000 A 
ENDROOT
BRANCH   5   6
ATOM      6  C   UNL     1       2.271   6.094  19.782  0.00  0.00    +0.000 A 
ATOM      7  C   UNL     1       2.602   6.450  18.471  0.00  0.00    +0.000 A 
ATOM      8  C   UNL     1       2.318   7.736  17.998  0.00  0.00    +0.000 A 
ATOM      9  C   UNL     1       1.693   8.682  18.825  0.00  0.00    +0.000 A 
ATOM     10  C   UNL     1       1.451   8.350  20.163  0.00  0.00    +0.000 A 
ATOM     11  C   UNL     1       1.741   7.072  20.635  0.00  0.00    +0.000 A 
BRANCH   9  12
ATOM     12  C   UNL     1       1.273  10.030  18.302  0.00  0.00    +0.000 C 
BRANCH  12  13
ATOM     13  S   UNL     1       1.577  11.397  19.472  0.00  0.00    +0.000 S 
BRANCH  13  14
ATOM     14  C   UNL     1      -0.138  11.940  19.813  0.00  0.00    +0.000 C 
BRANCH  14  15
ATOM     15  C   UNL     1      -0.720  11.011  20.874  0.00  0.00    +0.000 C 
BRANCH  15  16
ATOM     16  C   UNL     1      -0.578  11.592  22.256  0.00  0.00    +0.000 C 
ATOM     17  O   UNL     1      -0.881  11.028  23.295  0.00  0.00    +0.000 OA
BRANCH  16  18
ATOM     18  O   UNL     1      -0.065  12.845  22.234  0.00  0.00    +0.000 OA
ATOM     19  H   UNL     1      -0.494  13.462  22.858  0.00  0.00    +0.000 HD
ENDBRANCH  16  18
ENDBRANCH  15  16
ENDBRANCH  14  15
ENDBRANCH  13  14
ENDBRANCH  12  13
ENDBRANCH   9  12
ENDBRANCH   5   6
BRANCH   1  22
ATOM     20  C   UNL     1       3.679   3.177  17.563  0.00  0.00    +0.000 C 
ATOM     21  O   UNL     1       2.545   2.995  17.135  0.00  0.00    +0.000 OA
ATOM     22  N   UNL     1       3.998   3.498  18.854  0.00  0.00    +0.000 N 
ATOM     23  H   UNL     1       4.976   3.603  19.077  0.00  0.00    +0.000 HD
BRANCH  20  24
ATOM     24  O   UNL     1       4.812   3.005  16.824  0.00  0.00    +0.000 OA
BRANCH  24  26
ATOM     25  C   UNL     1       5.926   3.694  14.820  0.00  0.00    +0.000 C 
ATOM     26  C   UNL     1       5.186   4.181  16.068  0.00  0.00    +0.000 C 
BRANCH  26  27
ATOM     27  C   UNL     1       6.065   5.128  16.872  0.00  0.00    +0.000 A 
ATOM     28  C   UNL     1       7.021   4.637  17.772  0.00  0.00    +0.000 A 
ATOM     29  C   UNL     1       7.872   5.502  18.469  0.00  0.00    +0.000 A 
ATOM     30  C   UNL     1       7.790   6.878  18.269  0.00  0.00    +0.000 A 
ATOM     31  C   UNL     1       6.849   7.389  17.383  0.00  0.00    +0.000 A 
ATOM     32  C   UNL     1       5.990   6.526  16.688  0.00  0.00    +0.000 A 
ATOM     33 CL   UNL     1       4.862   7.262  15.605  0.00  0.00    +0.000 Cl
ENDBRANCH  26  27
ENDBRANCH  24  26
ENDBRANCH  20  24
ENDBRANCH   1  22
TORSDOF 11
ENDMDL
MODEL 2
REMARK VINA RESULT:      -7.6      1.517      1.711
REMARK  Name = 
REMARK  12 active torsions:
REMARK  status: ('A' for Active; 'I' for Inactive)
REMARK    1  A    between atoms: C_1  and  C_2
REMARK    2  A    between atoms: C_2  and  O_3
REMARK    3  A    between atoms: C_2  and  C_25
REMARK    4  A    between atoms: O_3  and  C_4
REMARK    5  A    between atoms: N_6  and  C_7
REMARK    6  A    between atoms: C_11  and  C_12
REMARK    7  A    between atoms: C_15  and  C_16
REMARK    8  A    between atoms: C_16  and  S_17
REMARK    9  A    between atoms: S_17  and  C_18
REMARK   10  A    between atoms: C_18  and  C_19
REMARK   11  A    between atoms: C_19  and  C_20
REMARK   12  A    between atoms: C_20  and  O_22
REMARK                            x       y       z     vdW  Elec       q    Type
REMARK                         _______ _______ _______ _____ _____    ______ ____
ROOT
ATOM      1  C   UNL     1       2.890   3.317  19.771  0.00  0.00    +0.000 A 
ATOM      2  C   UNL     1       2.263   2.254  20.467  0.00  0.00    +0.000 A 
ATOM      3  N   UNL     1       1.304   2.678  21.292  0.00  0.00    +0.000 NA
ATOM      4  O   UNL     1       1.270   4.050  21.130  0.00  0.00    +0.000 OA
ATOM      5  C   UNL     1       2.204   4.433  20.210  0.00  0.00    +0.000 A 
ENDROOT
BRANCH   5   6
ATOM      6  C   UNL     1       2.180   5.842  19.858  0.00  0.00    +0.000 A 
ATOM      7  C   UNL     1       2.473   6.290  18.565  0.00  0.00    +0.000 A 
ATOM      8  C   UNL     1       2.256   7.628  18.217  0.00  0.00    +0.000 A 
ATOM      9  C   UNL     1       1.737   8.536  19.152  0.00  0.00    +0.000 A 
ATOM     10  C   UNL     1       1.536   8.105  20.469  0.00  0.00    +0.000 A 
ATOM     11  C   UNL     1       1.759   6.774  20.816  0.00  0.00    +0.000 A 
BRANCH   9  12
ATOM     12  C   UNL     1       1.386   9.949  18.768  0.00  0.00    +0.000 C 
BRANCH  12  13
ATOM     13  S   UNL     1      -0.243  10.106  17.960  0.00  0.00    +0.000 S 
BRANCH  13  14
ATOM     14  C   UNL     1      -1.140  11.112  19.201  0.00  0.00    +0.000 C 
BRANCH  14  15
ATOM     15  C   UNL     1      -0.243  12.283  19.589  0.00  0.00    +0.000 C 
BRANCH  15  16
ATOM     16  C   UNL     1      -0.243  13.354  18.530  0.00  0.00    +0.000 C 
ATOM     17  O   UNL     1       0.384  14.400  18.582  0.00  0.00    +0.000 OA
BRANCH  16  18
ATOM     18  O   UNL     1      -1.035  13.035  17.479  0.00  0.00    +0.000 OA
ATOM     19  H   UNL     1      -0.663  12.345  16.895  0.00  0.00    +0.000 HD
ENDBRANCH  16  18
ENDBRANCH  15  16
ENDBRANCH  14  15
ENDBRANCH  13  14
ENDBRANCH  12  13
ENDBRANCH   9  12
ENDBRANCH   5   6
BRANCH   1  22
ATOM     20  C   UNL     1       3.685   3.166  17.487  0.00  0.00    +0.000 C 
ATOM     21  O   UNL     1       2.584   3.130  16.953  0.00  0.00    +0.000 OA
ATOM     22  N   UNL     1       3.912   3.287  18.832  0.00  0.00    +0.000 N 
ATOM     23  H   UNL     1       4.872   3.285  19.141  0.00  0.00    +0.000 HD
BRANCH  20  24
ATOM     24  O   UNL     1       4.864   3.005  16.821  0.00  0.00    +0.000 OA
BRANCH  24  26
ATOM     25  C   UNL     1       6.048   3.699  14.860  0.00  0.00    +0.000 C 
ATOM     26  C   UNL     1       5.270   4.184  16.085  0.00  0.00    +0.000 C 
BRANCH  26  27
ATOM     27  C   UNL     1       6.127   5.120  16.924  0.00  0.00    +0.000 A 
ATOM     28  C   UNL     1       7.094   4.619  17.807  0.00  0.00    +0.000 A 
ATOM     29  C   UNL     1       7.926   5.476  18.535  0.00  0.00    +0.000 A 
ATOM     30  C   UNL     1       7.812   6.857  18.385  0.00  0.00    +0.000 A 
ATOM     31  C   UNL     1       6.860   7.378  17.518  0.00  0.00    +0.000 A 
ATOM     32  C   UNL     1       6.022   6.522  16.791  0.00  0.00    +0.000 A 
ATOM     33 CL   UNL     1       4.877   7.271  15.734  0.00  0.00    +0.000 Cl
ENDBRANCH  26  27
ENDBRANCH  24  26
ENDBRANCH  20  24
ENDBRANCH   1  22
TORSDOF 11
ENDMDL
MODEL 3
REMARK VINA RESULT:      -7.5      0.980      1.060
REMARK  Name = 
REMARK  12 active torsions:
REMARK  status: ('A' for Active; 'I' for Inactive)
REMARK    1  A    between atoms: C_1  and  C_2
REMARK    2  A    between atoms: C_2  and  O_3
REMARK    3  A    between atoms: C_2  and  C_25
REMARK    4  A    between atoms: O_3  and  C_4
REMARK    5  A    between atoms: N_6  and  C_7
REMARK    6  A    between atoms: C_11  and  C_12
REMARK    7  A    between atoms: C_15  and  C_16
REMARK    8  A    between atoms: C_16  and  S_17
REMARK    9  A    between atoms: S_17  and  C_18
REMARK   10  A    between atoms: C_18  and  C_19
REMARK   11  A    between atoms: C_19  and  C_20
REMARK   12  A    between atoms: C_20  and  O_22
REMARK                            x       y       z     vdW  Elec       q    Type
REMARK                         _______ _______ _______ _____ _____    ______ ____
ROOT
ATOM      1  C   UNL     1       2.929   3.596  19.827  0.00  0.00    +0.000 A 
ATOM      2  C   UNL     1       2.303   2.592  20.607  0.00  0.00    +0.000 A 
ATOM      3  N   UNL     1       1.376   3.086  21.430  0.00  0.00    +0.000 NA
ATOM      4  O   UNL     1       1.364   4.447  21.182  0.00  0.00    +0.000 OA
ATOM      5  C   UNL     1       2.277   4.752  20.214  0.00  0.00    +0.000 A 
ENDROOT
BRANCH   5   6
ATOM      6  C   UNL     1       2.269   6.136  19.774  0.00  0.00    +0.000 A 
ATOM      7  C   UNL     1       2.792   6.525  18.536  0.00  0.00    +0.000 A 
ATOM      8  C   UNL     1       2.597   7.829  18.068  0.00  0.00    +0.000 A 
ATOM      9  C   UNL     1       1.871   8.761  18.825  0.00  0.00    +0.000 A 
ATOM     10  C   UNL     1       1.433   8.394  20.103  0.00  0.00    +0.000 A 
ATOM     11  C   UNL     1       1.634   7.098  20.571  0.00  0.00    +0.000 A 
BRANCH   9  12
ATOM     12  C   UNL     1       1.550  10.131  18.290  0.00  0.00    +0.000 C 
BRANCH  12  13
ATOM     13  S   UNL     1      -0.074  10.766  18.830  0.00  0.00    +0.000 S 
BRANCH  13  14
ATOM     14  C   UNL     1       0.439  11.926  20.152  0.00  0.00    +0.000 C 
BRANCH  14  15
ATOM     15  C   UNL     1      -0.522  13.110  20.133  0.00  0.00    +0.000 C 
BRANCH  15  16
ATOM     16  C   UNL     1      -1.896  12.716  20.609  0.00  0.00    +0.000 C 
ATOM     17  O   UNL     1      -2.139  12.105  21.637  0.00  0.00    +0.000 OA
BRANCH  16  18
ATOM     18  O   UNL     1      -2.868  13.117  19.756  0.00  0.00    +0.000 OA
ATOM     19  H   UNL     1      -2.742  12.812  18.837  0.00  0.00    +0.000 HD
ENDBRANCH  16  18
ENDBRANCH  15  16
ENDBRANCH  14  15
ENDBRANCH  13  14
ENDBRANCH  12  13
ENDBRANCH   9  12
ENDBRANCH   5   6
BRANCH   1  22
ATOM     20  C   UNL     1       3.656   3.221  17.547  0.00  0.00    +0.000 C 
ATOM     21  O   UNL     1       2.540   3.111  17.055  0.00  0.00    +0.000 OA
ATOM     22  N   UNL     1       3.922   3.486  18.863  0.00  0.00    +0.000 N 
ATOM     23  H   UNL     1       4.890   3.533  19.140  0.00  0.00    +0.000 HD
BRANCH  20  24
ATOM     24  O   UNL     1       4.818   3.012  16.863  0.00  0.00    +0.000 OA
BRANCH  24  26
ATOM     25  C   UNL     1       6.002   3.604  14.869  0.00  0.00    +0.000 C 
ATOM     26  C   UNL     1       5.226   4.152  16.069  0.00  0.00    +0.000 C 
BRANCH  26  27
ATOM     27  C   UNL     1       6.086   5.127  16.859  0.00  0.00    +0.000 A 
ATOM     28  C   UNL     1       7.028   4.668  17.791  0.00  0.00    +0.000 A 
ATOM     29  C   UNL     1       7.863   5.557  18.475  0.00  0.00    +0.000 A 
ATOM     30  C   UNL     1       7.778   6.927  18.233  0.00  0.00    +0.000 A 
ATOM     31  C   UNL     1       6.851   7.406  17.315  0.00  0.00    +0.000 A 
ATOM     32  C   UNL     1       6.009   6.518  16.632  0.00  0.00    +0.000 A 
ATOM     33 CL   UNL     1       4.896   7.215  15.507  0.00  0.00    +0.000 Cl
ENDBRANCH  26  27
ENDBRANCH  24  26
ENDBRANCH  20  24
ENDBRANCH   1  22
TORSDOF 11
ENDMDL
MODEL 4
REMARK VINA RESULT:      -7.1      2.388      2.659
REMARK  Name = 
REMARK  12 active torsions:
REMARK  status: ('A' for Active; 'I' for Inactive)
REMARK    1  A    between atoms: C_1  and  C_2
REMARK    2  A    between atoms: C_2  and  O_3
REMARK    3  A    between atoms: C_2  and  C_25
REMARK    4  A    between atoms: O_3  and  C_4
REMARK    5  A    between atoms: N_6  and  C_7
REMARK    6  A    between atoms: C_11  and  C_12
REMARK    7  A    between atoms: C_15  and  C_16
REMARK    8  A    between atoms: C_16  and  S_17
REMARK    9  A    between atoms: S_17  and  C_18
REMARK   10  A    between atoms: C_18  and  C_19
REMARK   11  A    between atoms: C_19  and  C_20
REMARK   12  A    between atoms: C_20  and  O_22
REMARK                            x       y       z     vdW  Elec       q    Type
REMARK                         _______ _______ _______ _____ _____    ______ ____
ROOT
ATOM      1  C   UNL     1       2.718   3.311  18.571  0.00  0.00    +0.000 A 
ATOM      2  C   UNL     1       1.918   2.155  18.397  0.00  0.00    +0.000 A 
ATOM      3  N   UNL     1       0.676   2.317  18.858  0.00  0.00    +0.000 NA
ATOM      4  O   UNL     1       0.635   3.617  19.329  0.00  0.00    +0.000 OA
ATOM      5  C   UNL     1       1.846   4.218  19.144  0.00  0.00    +0.000 A 
ENDROOT
BRANCH   5   6
ATOM      6  C   UNL     1       1.892   5.630  19.483  0.00  0.00    +0.000 A 
ATOM      7  C   UNL     1       2.291   6.602  18.561  0.00  0.00    +0.000 A 
ATOM      8  C   UNL     1       2.142   7.961  18.862  0.00  0.00    +0.000 A 
ATOM      9  C   UNL     1       1.586   8.367  20.085  0.00  0.00    +0.000 A 
ATOM     10  C   UNL     1       1.279   7.391  21.040  0.00  0.00    +0.000 A 
ATOM     11  C   UNL     1       1.434   6.040  20.742  0.00  0.00    +0.000 A 
BRANCH   9  12
ATOM     12  C   UNL     1       1.309   9.817  20.382  0.00  0.00    +0.000 C 
BRANCH  12  13
ATOM     13  S   UNL     1       0.795  10.779  18.919  0.00  0.00    +0.000 S 
BRANCH  13  14
ATOM     14  C   UNL     1      -1.000  10.417  18.889  0.00  0.00    +0.000 C 
BRANCH  14  15
ATOM     15  C   UNL     1      -1.352   9.917  17.491  0.00  0.00    +0.000 C 
BRANCH  15  16
ATOM     16  C   UNL     1      -2.580  10.603  16.952  0.00  0.00    +0.000 C 
ATOM     17  O   UNL     1      -3.732  10.291  17.205  0.00  0.00    +0.000 OA
BRANCH  16  18
ATOM     18  O   UNL     1      -2.271  11.634  16.130  0.00  0.00    +0.000 OA
ATOM     19  H   UNL     1      -2.117  11.370  15.202  0.00  0.00    +0.000 HD
ENDBRANCH  16  18
ENDBRANCH  15  16
ENDBRANCH  14  15
ENDBRANCH  13  14
ENDBRANCH  12  13
ENDBRANCH   9  12
ENDBRANCH   5   6
BRANCH   1  22
ATOM     20  C   UNL     1       5.090   3.286  19.064  0.00  0.00    +0.000 C 
ATOM     21  O   UNL     1       5.001   2.785  20.178  0.00  0.00    +0.000 OA
ATOM     22  N   UNL     1       4.042   3.539  18.221  0.00  0.00    +0.000 N 
ATOM     23  H   UNL     1       4.254   3.973  17.335  0.00  0.00    +0.000 HD
BRANCH  20  24
ATOM     24  O   UNL     1       6.254   3.747  18.523  0.00  0.00    +0.000 OA
BRANCH  24  26
ATOM     25  C   UNL     1       6.649   4.020  16.178  0.00  0.00    +0.000 C 
ATOM     26  C   UNL     1       6.048   4.670  17.427  0.00  0.00    +0.000 C 
BRANCH  26  27
ATOM     27  C   UNL     1       6.693   6.024  17.684  0.00  0.00    +0.000 A 
ATOM     28  C   UNL     1       7.785   6.151  18.554  0.00  0.00    +0.000 A 
ATOM     29  C   UNL     1       8.419   7.383  18.747  0.00  0.00    +0.000 A 
ATOM     30  C   UNL     1       7.977   8.514  18.064  0.00  0.00    +0.000 A 
ATOM     31  C   UNL     1       6.894   8.414  17.198  0.00  0.00    +0.000 A 
ATOM     32  C   UNL     1       6.253   7.182  17.006  0.00  0.00    +0.000 A 
ATOM     33 CL   UNL     1       4.922   7.164  15.903  0.00  0.00    +0.000 Cl
ENDBRANCH  26  27
ENDBRANCH  24  26
ENDBRANCH  20  24
ENDBRANCH   1  22
TORSDOF 11
ENDMDL
MODEL 5
REMARK VINA RESULT:      -6.7      4.153      8.988
REMARK  Name = 
REMARK  12 active torsions:
REMARK  status: ('A' for Active; 'I' for Inactive)
REMARK    1  A    between atoms: C_1  and  C_2
REMARK    2  A    between atoms: C_2  and  O_3
REMARK    3  A    between atoms: C_2  and  C_25
REMARK    4  A    between atoms: O_3  and  C_4
REMARK    5  A    between atoms: N_6  and  C_7
REMARK    6  A    between atoms: C_11  and  C_12
REMARK    7  A    between atoms: C_15  and  C_16
REMARK    8  A    between atoms: C_16  and  S_17
REMARK    9  A    between atoms: S_17  and  C_18
REMARK   10  A    between atoms: C_18  and  C_19
REMARK   11  A    between atoms: C_19  and  C_20
REMARK   12  A    between atoms: C_20  and  O_22
REMARK                            x       y       z     vdW  Elec       q    Type
REMARK                         _______ _______ _______ _____ _____    ______ ____
ROOT
ATOM      1  C   UNL     1       0.254   9.398  20.959  0.00  0.00    +0.000 A 
ATOM      2  C   UNL     1       0.314  10.154  22.156  0.00  0.00    +0.000 A 
ATOM      3  N   UNL     1       1.200   9.666  23.026  0.00  0.00    +0.000 NA
ATOM      4  O   UNL     1       1.762   8.574  22.392  0.00  0.00    +0.000 OA
ATOM      5  C   UNL     1       1.212   8.421  21.152  0.00  0.00    +0.000 A 
ENDROOT
BRANCH   5   6
ATOM      6  C   UNL     1       1.813   7.381  20.335  0.00  0.00    +0.000 A 
ATOM      7  C   UNL     1       1.823   6.039  20.730  0.00  0.00    +0.000 A 
ATOM      8  C   UNL     1       2.239   5.045  19.837  0.00  0.00    +0.000 A 
ATOM      9  C   UNL     1       2.643   5.376  18.535  0.00  0.00    +0.000 A 
ATOM     10  C   UNL     1       2.722   6.727  18.178  0.00  0.00    +0.000 A 
ATOM     11  C   UNL     1       2.315   7.716  19.070  0.00  0.00    +0.000 A 
BRANCH   9  12
ATOM     12  C   UNL     1       2.983   4.315  17.522  0.00  0.00    +0.000 C 
BRANCH  12  13
ATOM     13  S   UNL     1       4.649   4.497  16.799  0.00  0.00    +0.000 S 
BRANCH  13  14
ATOM     14  C   UNL     1       5.672   4.546  18.318  0.00  0.00    +0.000 C 
BRANCH  14  15
ATOM     15  C   UNL     1       6.345   5.913  18.384  0.00  0.00    +0.000 C 
BRANCH  15  16
ATOM     16  C   UNL     1       7.518   5.907  19.329  0.00  0.00    +0.000 C 
ATOM     17  O   UNL     1       7.638   5.179  20.301  0.00  0.00    +0.000 OA
BRANCH  16  18
ATOM     18  O   UNL     1       8.457   6.820  18.985  0.00  0.00    +0.000 OA
ATOM     19  H   UNL     1       8.207   7.383  18.227  0.00  0.00    +0.000 HD
ENDBRANCH  16  18
ENDBRANCH  15  16
ENDBRANCH  14  15
ENDBRANCH  13  14
ENDBRANCH  12  13
ENDBRANCH   9  12
ENDBRANCH   5   6
BRANCH   1  22
ATOM     20  C   UNL     1      -0.124  10.350  18.764  0.00  0.00    +0.000 C 
ATOM     21  O   UNL     1       0.964  10.902  18.656  0.00  0.00    +0.000 OA
ATOM     22  N   UNL     1      -0.525   9.585  19.825  0.00  0.00    +0.000 N 
ATOM     23  H   UNL     1      -1.458   9.202  19.794  0.00  0.00    +0.000 HD
BRANCH  20  24
ATOM     24  O   UNL     1      -1.143  10.487  17.867  0.00  0.00    +0.000 OA
BRANCH  24  26
ATOM     25  C   UNL     1      -1.090  12.585  19.018  0.00  0.00    +0.000 C 
ATOM     26  C   UNL     1      -1.720  11.814  17.856  0.00  0.00    +0.000 C 
BRANCH  26  27
ATOM     27  C   UNL     1      -3.235  11.785  17.995  0.00  0.00    +0.000 A 
ATOM     28  C   UNL     1      -3.857  12.148  19.198  0.00  0.00    +0.000 A 
ATOM     29  C   UNL     1      -5.251  12.182  19.313  0.00  0.00    +0.000 A 
ATOM     30  C   UNL     1      -6.052  11.861  18.219  0.00  0.00    +0.000 A 
ATOM     31  C   UNL     1      -5.459  11.495  17.016  0.00  0.00    +0.000 A 
ATOM     32  C   UNL     1      -4.063  11.456  16.899  0.00  0.00    +0.000 A 
ATOM     33 CL   UNL     1      -3.426  10.996  15.359  0.00  0.00    +0.000 Cl
ENDBRANCH  26  27
ENDBRANCH  24  26
ENDBRANCH  20  24
ENDBRANCH   1  22
TORSDOF 11
ENDMDL
MODEL 6
REMARK VINA RESULT:      -6.7      4.130      9.057
REMARK  Name = 
REMARK  12 active torsions:
REMARK  status: ('A' for Active; 'I' for Inactive)
REMARK    1  A    between atoms: C_1  and  C_2
REMARK    2  A    between atoms: C_2  and  O_3
REMARK    3  A    between atoms: C_2  and  C_25
REMARK    4  A    between atoms: O_3  and  C_4
REMARK    5  A    between atoms: N_6  and  C_7
REMARK    6  A    between atoms: C_11  and  C_12
REMARK    7  A    between atoms: C_15  and  C_16
REMARK    8  A    between atoms: C_16  and  S_17
REMARK    9  A    between atoms: S_17  and  C_18
REMARK   10  A    between atoms: C_18  and  C_19
REMARK   11  A    between atoms: C_19  and  C_20
REMARK   12  A    between atoms: C_20  and  O_22
REMARK                            x       y       z     vdW  Elec       q    Type
REMARK                         _______ _______ _______ _____ _____    ______ ____
ROOT
ATOM      1  C   UNL     1      -0.028   9.600  20.915  0.00  0.00    +0.000 A 
ATOM      2  C   UNL     1      -0.068  10.348  22.118  0.00  0.00    +0.000 A 
ATOM      3  N   UNL     1       0.779   9.884  23.038  0.00  0.00    +0.000 NA
ATOM      4  O   UNL     1       1.417   8.817  22.433  0.00  0.00    +0.000 OA
ATOM      5  C   UNL     1       0.949   8.655  21.161  0.00  0.00    +0.000 A 
ENDROOT
BRANCH   5   6
ATOM      6  C   UNL     1       1.635   7.643  20.376  0.00  0.00    +0.000 A 
ATOM      7  C   UNL     1       1.665   6.299  20.762  0.00  0.00    +0.000 A 
ATOM      8  C   UNL     1       2.170   5.327  19.891  0.00  0.00    +0.000 A 
ATOM      9  C   UNL     1       2.644   5.683  18.619  0.00  0.00    +0.000 A 
ATOM     10  C   UNL     1       2.699   7.039  18.276  0.00  0.00    +0.000 A 
ATOM     11  C   UNL     1       2.203   8.006  19.148  0.00  0.00    +0.000 A 
BRANCH   9  12
ATOM     12  C   UNL     1       3.082   4.643  17.622  0.00  0.00    +0.000 C 
BRANCH  12  13
ATOM     13  S   UNL     1       4.495   3.636  18.186  0.00  0.00    +0.000 S 
BRANCH  13  14
ATOM     14  C   UNL     1       5.861   4.412  17.245  0.00  0.00    +0.000 C 
BRANCH  14  15
ATOM     15  C   UNL     1       6.259   5.694  17.970  0.00  0.00    +0.000 C 
BRANCH  15  16
ATOM     16  C   UNL     1       6.391   6.852  17.016  0.00  0.00    +0.000 C 
ATOM     17  O   UNL     1       7.198   7.761  17.115  0.00  0.00    +0.000 OA
BRANCH  16  18
ATOM     18  O   UNL     1       5.494   6.785  16.003  0.00  0.00    +0.000 OA
ATOM     19  H   UNL     1       4.936   5.984  16.018  0.00  0.00    +0.000 HD
ENDBRANCH  16  18
ENDBRANCH  15  16
ENDBRANCH  14  15
ENDBRANCH  13  14
ENDBRANCH  12  13
ENDBRANCH   9  12
ENDBRANCH   5   6
BRANCH   1  22
ATOM     20  C   UNL     1      -0.267  10.491  18.675  0.00  0.00    +0.000 C 
ATOM     21  O   UNL     1       0.839  11.012  18.608  0.00  0.00    +0.000 OA
ATOM     22  N   UNL     1      -0.742   9.770  19.737  0.00  0.00    +0.000 N 
ATOM     23  H   UNL     1      -1.682   9.408  19.668  0.00  0.00    +0.000 HD
BRANCH  20  24
ATOM     24  O   UNL     1      -1.234  10.622  17.722  0.00  0.00    +0.000 OA
BRANCH  24  26
ATOM     25  C   UNL     1      -1.111  12.791  18.728  0.00  0.00    +0.000 C 
ATOM     26  C   UNL     1      -1.897  11.909  17.755  0.00  0.00    +0.000 C 
BRANCH  26  27
ATOM     27  C   UNL     1      -3.350  11.798  18.191  0.00  0.00    +0.000 A 
ATOM     28  C   UNL     1      -3.763  12.255  19.451  0.00  0.00    +0.000 A 
ATOM     29  C   UNL     1      -5.108  12.211  19.833  0.00  0.00    +0.000 A 
ATOM     30  C   UNL     1      -6.071  11.716  18.955  0.00  0.00    +0.000 A 
ATOM     31  C   UNL     1      -5.685  11.255  17.701  0.00  0.00    +0.000 A 
ATOM     32  C   UNL     1      -4.338  11.293  17.318  0.00  0.00    +0.000 A 
ATOM     33 CL   UNL     1      -3.965  10.702  15.736  0.00  0.00    +0.000 Cl
ENDBRANCH  26  27
ENDBRANCH  24  26
ENDBRANCH  20  24
ENDBRANCH   1  22
TORSDOF 11
ENDMDL
MODEL 7
REMARK VINA RESULT:      -6.6      4.195      8.481
REMARK  Name = 
REMARK  12 active torsions:
REMARK  status: ('A' for Active; 'I' for Inactive)
REMARK    1  A    between atoms: C_1  and  C_2
REMARK    2  A    between atoms: C_2  and  O_3
REMARK    3  A    between atoms: C_2  and  C_25
REMARK    4  A    between atoms: O_3  and  C_4
REMARK    5  A    between atoms: N_6  and  C_7
REMARK    6  A    between atoms: C_11  and  C_12
REMARK    7  A    between atoms: C_15  and  C_16
REMARK    8  A    between atoms: C_16  and  S_17
REMARK    9  A    between atoms: S_17  and  C_18
REMARK   10  A    between atoms: C_18  and  C_19
REMARK   11  A    between atoms: C_19  and  C_20
REMARK   12  A    between atoms: C_20  and  O_22
REMARK                            x       y       z     vdW  Elec       q    Type
REMARK                         _______ _______ _______ _____ _____    ______ ____
ROOT
ATOM      1  C   UNL     1       0.239  11.041  21.179  0.00  0.00    +0.000 A 
ATOM      2  C   UNL     1      -0.425  11.122  22.428  0.00  0.00    +0.000 A 
ATOM      3  N   UNL     1      -0.668   9.922  22.957  0.00  0.00    +0.000 NA
ATOM      4  O   UNL     1      -0.137   9.017  22.057  0.00  0.00    +0.000 OA
ATOM      5  C   UNL     1       0.420   9.682  21.003  0.00  0.00    +0.000 A 
ENDROOT
BRANCH   5   6
ATOM      6  C   UNL     1       1.126   8.844  20.049  0.00  0.00    +0.000 A 
ATOM      7  C   UNL     1       1.383   9.264  18.740  0.00  0.00    +0.000 A 
ATOM      8  C   UNL     1       2.225   8.513  17.912  0.00  0.00    +0.000 A 
ATOM      9  C   UNL     1       2.828   7.336  18.383  0.00  0.00    +0.000 A 
ATOM     10  C   UNL     1       2.492   6.872  19.660  0.00  0.00    +0.000 A 
ATOM     11  C   UNL     1       1.647   7.617  20.479  0.00  0.00    +0.000 A 
BRANCH   9  12
ATOM     12  C   UNL     1       3.827   6.576  17.551  0.00  0.00    +0.000 C 
BRANCH  12  13
ATOM     13  S   UNL     1       4.737   5.299  18.485  0.00  0.00    +0.000 S 
BRANCH  13  14
ATOM     14  C   UNL     1       3.859   3.788  17.936  0.00  0.00    +0.000 C 
BRANCH  14  15
ATOM     15  C   UNL     1       2.732   3.517  18.928  0.00  0.00    +0.000 C 
BRANCH  15  16
ATOM     16  C   UNL     1       1.422   3.277  18.225  0.00  0.00    +0.000 C 
ATOM     17  O   UNL     1       0.678   2.329  18.420  0.00  0.00    +0.000 OA
BRANCH  16  18
ATOM     18  O   UNL     1       1.140   4.246  17.322  0.00  0.00    +0.000 OA
ATOM     19  H   UNL     1       1.724   4.243  16.539  0.00  0.00    +0.000 HD
ENDBRANCH  16  18
ENDBRANCH  15  16
ENDBRANCH  14  15
ENDBRANCH  13  14
ENDBRANCH  12  13
ENDBRANCH   9  12
ENDBRANCH   5   6
BRANCH   1  22
ATOM     20  C   UNL     1      -0.119  12.575  19.339  0.00  0.00    +0.000 C 
ATOM     21  O   UNL     1      -1.284  12.268  19.119  0.00  0.00    +0.000 OA
ATOM     22  N   UNL     1       0.667  12.053  20.330  0.00  0.00    +0.000 N 
ATOM     23  H   UNL     1       1.618  12.383  20.390  0.00  0.00    +0.000 HD
BRANCH  20  24
ATOM     24  O   UNL     1       0.604  13.436  18.566  0.00  0.00    +0.000 OA
BRANCH  24  26
ATOM     25  C   UNL     1       0.340  15.809  18.733  0.00  0.00    +0.000 C 
ATOM     26  C   UNL     1       1.082  14.593  19.293  0.00  0.00    +0.000 C 
BRANCH  26  27
ATOM     27  C   UNL     1       2.586  14.779  19.157  0.00  0.00    +0.000 A 
ATOM     28  C   UNL     1       3.194  14.855  17.896  0.00  0.00    +0.000 A 
ATOM     29  C   UNL     1       4.568  15.086  17.766  0.00  0.00    +0.000 A 
ATOM     30  C   UNL     1       5.360  15.256  18.899  0.00  0.00    +0.000 A 
ATOM     31  C   UNL     1       4.781  15.182  20.161  0.00  0.00    +0.000 A 
ATOM     32  C   UNL     1       3.406  14.945  20.295  0.00  0.00    +0.000 A 
ATOM     33 CL   UNL     1       2.784  14.879  21.906  0.00  0.00    +0.000 Cl
ENDBRANCH  26  27
ENDBRANCH  24  26
ENDBRANCH  20  24
ENDBRANCH   1  22
TORSDOF 11
ENDMDL
MODEL 8
REMARK VINA RESULT:      -6.6      5.174      8.885
REMARK  Name = 
REMARK  12 active torsions:
REMARK  status: ('A' for Active; 'I' for Inactive)
REMARK    1  A    between atoms: C_1  and  C_2
REMARK    2  A    between atoms: C_2  and  O_3
REMARK    3  A    between atoms: C_2  and  C_25
REMARK    4  A    between atoms: O_3  and  C_4
REMARK    5  A    between atoms: N_6  and  C_7
REMARK    6  A    between atoms: C_11  and  C_12
REMARK    7  A    between atoms: C_15  and  C_16
REMARK    8  A    between atoms: C_16  and  S_17
REMARK    9  A    between atoms: S_17  and  C_18
REMARK   10  A    between atoms: C_18  and  C_19
REMARK   11  A    between atoms: C_19  and  C_20
REMARK   12  A    between atoms: C_20  and  O_22
REMARK                            x       y       z     vdW  Elec       q    Type
REMARK                         _______ _______ _______ _____ _____    ______ ____
ROOT
ATOM      1  C   UNL     1       0.279  12.269  18.737  0.00  0.00    +0.000 A 
ATOM      2  C   UNL     1      -0.877  12.969  19.165  0.00  0.00    +0.000 A 
ATOM      3  N   UNL     1      -1.816  12.157  19.653  0.00  0.00    +0.000 NA
ATOM      4  O   UNL     1      -1.272  10.889  19.574  0.00  0.00    +0.000 OA
ATOM      5  C   UNL     1      -0.015  10.954  19.043  0.00  0.00    +0.000 A 
ENDROOT
BRANCH   5   6
ATOM      6  C   UNL     1       0.713   9.696  19.026  0.00  0.00    +0.000 A 
ATOM      7  C   UNL     1       1.284   9.185  17.857  0.00  0.00    +0.000 A 
ATOM      8  C   UNL     1       2.133   8.074  17.916  0.00  0.00    +0.000 A 
ATOM      9  C   UNL     1       2.430   7.464  19.144  0.00  0.00    +0.000 A 
ATOM     10  C   UNL     1       1.780   7.921  20.296  0.00  0.00    +0.000 A 
ATOM     11  C   UNL     1       0.929   9.022  20.235  0.00  0.00    +0.000 A 
BRANCH   9  12
ATOM     12  C   UNL     1       3.430   6.343  19.245  0.00  0.00    +0.000 C 
BRANCH  12  13
ATOM     13  S   UNL     1       3.527   5.308  17.745  0.00  0.00    +0.000 S 
BRANCH  13  14
ATOM     14  C   UNL     1       4.982   6.049  16.916  0.00  0.00    +0.000 C 
BRANCH  14  15
ATOM     15  C   UNL     1       6.205   5.777  17.787  0.00  0.00    +0.000 C 
BRANCH  15  16
ATOM     16  C   UNL     1       7.218   4.926  17.068  0.00  0.00    +0.000 C 
ATOM     17  O   UNL     1       7.484   4.997  15.879  0.00  0.00    +0.000 OA
BRANCH  16  18
ATOM     18  O   UNL     1       7.825   4.042  17.895  0.00  0.00    +0.000 OA
ATOM     19  H   UNL     1       8.028   3.182  17.479  0.00  0.00    +0.000 HD
ENDBRANCH  16  18
ENDBRANCH  15  16
ENDBRANCH  14  15
ENDBRANCH  13  14
ENDBRANCH  12  13
ENDBRANCH   9  12
ENDBRANCH   5   6
BRANCH   1  22
ATOM     20  C   UNL     1       2.505  13.201  18.945  0.00  0.00    +0.000 C 
ATOM     21  O   UNL     1       2.556  13.182  20.169  0.00  0.00    +0.000 OA
ATOM     22  N   UNL     1       1.459  12.750  18.187  0.00  0.00    +0.000 N 
ATOM     23  H   UNL     1       1.540  12.840  17.186  0.00  0.00    +0.000 HD
BRANCH  20  24
ATOM     24  O   UNL     1       3.462  13.757  18.148  0.00  0.00    +0.000 OA
BRANCH  24  26
ATOM     25  C   UNL     1       3.580  16.095  17.650  0.00  0.00    +0.000 C 
ATOM     26  C   UNL     1       3.972  15.012  18.658  0.00  0.00    +0.000 C 
BRANCH  26  27
ATOM     27  C   UNL     1       5.480  14.986  18.852  0.00  0.00    +0.000 A 
ATOM     28  C   UNL     1       6.346  14.805  17.764  0.00  0.00    +0.000 A 
ATOM     29  C   UNL     1       7.735  14.841  17.928  0.00  0.00    +0.000 A 
ATOM     30  C   UNL     1       8.286  15.069  19.187  0.00  0.00    +0.000 A 
ATOM     31  C   UNL     1       7.449  15.249  20.282  0.00  0.00    +0.000 A 
ATOM     32  C   UNL     1       6.057  15.209  20.121  0.00  0.00    +0.000 A 
ATOM     33 CL   UNL     1       5.106  15.452  21.544  0.00  0.00    +0.000 Cl
ENDBRANCH  26  27
ENDBRANCH  24  26
ENDBRANCH  20  24
ENDBRANCH   1  22
TORSDOF 11
ENDMDL
MODEL 9
REMARK VINA RESULT:      -6.6      5.352      8.745
REMARK  Name = 
REMARK  12 active torsions:
REMARK  status: ('A' for Active; 'I' for Inactive)
REMARK    1  A    between atoms: C_1  and  C_2
REMARK    2  A    between atoms: C_2  and  O_3
REMARK    3  A    between atoms: C_2  and  C_25
REMARK    4  A    between atoms: O_3  and  C_4
REMARK    5  A    between atoms: N_6  and  C_7
REMARK    6  A    between atoms: C_11  and  C_12
REMARK    7  A    between atoms: C_15  and  C_16
REMARK    8  A    between atoms: C_16  and  S_17
REMARK    9  A    between atoms: S_17  and  C_18
REMARK   10  A    between atoms: C_18  and  C_19
REMARK   11  A    between atoms: C_19  and  C_20
REMARK   12  A    between atoms: C_20  and  O_22
REMARK                            x       y       z     vdW  Elec       q    Type
REMARK                         _______ _______ _______ _____ _____    ______ ____
ROOT
ATOM      1  C   UNL     1       0.453  12.307  18.730  0.00  0.00    +0.000 A 
ATOM      2  C   UNL     1      -0.686  13.046  19.134  0.00  0.00    +0.000 A 
ATOM      3  N   UNL     1      -1.669  12.266  19.587  0.00  0.00    +0.000 NA
ATOM      4  O   UNL     1      -1.172  10.978  19.507  0.00  0.00    +0.000 OA
ATOM      5  C   UNL     1       0.101  11.001  19.011  0.00  0.00    +0.000 A 
ENDROOT
BRANCH   5   6
ATOM      6  C   UNL     1       0.780   9.716  18.999  0.00  0.00    +0.000 A 
ATOM      7  C   UNL     1       1.394   9.212  17.848  0.00  0.00    +0.000 A 
ATOM      8  C   UNL     1       2.196   8.068  17.921  0.00  0.00    +0.000 A 
ATOM      9  C   UNL     1       2.401   7.415  19.146  0.00  0.00    +0.000 A 
ATOM     10  C   UNL     1       1.709   7.868  20.275  0.00  0.00    +0.000 A 
ATOM     11  C   UNL     1       0.905   9.003  20.199  0.00  0.00    +0.000 A 
BRANCH   9  12
ATOM     12  C   UNL     1       3.352   6.254  19.270  0.00  0.00    +0.000 C 
BRANCH  12  13
ATOM     13  S   UNL     1       3.309   5.116  17.844  0.00  0.00    +0.000 S 
BRANCH  13  14
ATOM     14  C   UNL     1       1.640   4.388  18.042  0.00  0.00    +0.000 C 
BRANCH  14  15
ATOM     15  C   UNL     1       1.414   4.135  19.529  0.00  0.00    +0.000 C 
BRANCH  15  16
ATOM     16  C   UNL     1       1.555   2.675  19.870  0.00  0.00    +0.000 C 
ATOM     17  O   UNL     1       1.633   2.216  20.998  0.00  0.00    +0.000 OA
BRANCH  16  18
ATOM     18  O   UNL     1       1.591   1.893  18.764  0.00  0.00    +0.000 OA
ATOM     19  H   UNL     1       1.446   2.378  17.929  0.00  0.00    +0.000 HD
ENDBRANCH  16  18
ENDBRANCH  15  16
ENDBRANCH  14  15
ENDBRANCH  13  14
ENDBRANCH  12  13
ENDBRANCH   9  12
ENDBRANCH   5   6
BRANCH   1  22
ATOM     20  C   UNL     1       2.635  13.327  18.992  0.00  0.00    +0.000 C 
ATOM     21  O   UNL     1       2.582  13.472  20.207  0.00  0.00    +0.000 OA
ATOM     22  N   UNL     1       1.666  12.748  18.218  0.00  0.00    +0.000 N 
ATOM     23  H   UNL     1       1.829  12.708  17.223  0.00  0.00    +0.000 HD
BRANCH  20  24
ATOM     24  O   UNL     1       3.644  13.803  18.208  0.00  0.00    +0.000 OA
BRANCH  24  26
ATOM     25  C   UNL     1       3.294  16.023  17.385  0.00  0.00    +0.000 C 
ATOM     26  C   UNL     1       3.970  15.188  18.475  0.00  0.00    +0.000 C 
BRANCH  26  27
ATOM     27  C   UNL     1       5.472  15.436  18.481  0.00  0.00    +0.000 A 
ATOM     28  C   UNL     1       6.342  14.617  17.748  0.00  0.00    +0.000 A 
ATOM     29  C   UNL     1       7.716  14.878  17.702  0.00  0.00    +0.000 A 
ATOM     30  C   UNL     1       8.245  15.972  18.383  0.00  0.00    +0.000 A 
ATOM     31  C   UNL     1       7.403  16.797  19.118  0.00  0.00    +0.000 A 
ATOM     32  C   UNL     1       6.026  16.536  19.171  0.00  0.00    +0.000 A 
ATOM     33 CL   UNL     1       5.066  17.626  20.107  0.00  0.00    +0.000 Cl
ENDBRANCH  26  27
ENDBRANCH  24  26
ENDBRANCH  20  24
ENDBRANCH   1  22
TORSDOF 11
ENDMDL
