MODEL 1
REMARK VINA RESULT:      -7.9      0.000      0.000
REMARK  Name = 
REMARK  3 active torsions:
REMARK  status: ('A' for Active; 'I' for Inactive)
REMARK    1  A    between atoms: C_1  and  C_2
REMARK    2  A    between atoms: C_5  and  C_6
REMARK    3  A    between atoms: C_15  and  C_16
REMARK                            x       y       z     vdW  Elec       q    Type
REMARK                         _______ _______ _______ _____ _____    ______ ____
ROOT
ATOM      1  C   UNL     1       4.505   4.735  17.494  0.00  0.00    +0.000 A 
ATOM      2  N   UNL     1       4.413   3.659  18.222  0.00  0.00    +0.000 NA
ATOM      3  C   UNL     1       3.621   3.678  19.392  0.00  0.00    +0.000 A 
ATOM      4  C   UNL     1       3.554   2.494  20.131  0.00  0.00    +0.000 A 
ATOM      5  C   UNL     1       2.803   2.425  21.302  0.00  0.00    +0.000 A 
ATOM      6  C   UNL     1       2.109   3.549  21.741  0.00  0.00    +0.000 A 
ATOM      7  C   UNL     1       2.158   4.744  21.017  0.00  0.00    +0.000 A 
ATOM      8  C   UNL     1       2.911   4.816  19.843  0.00  0.00    +0.000 A 
ATOM      9  N   UNL     1       3.038   5.973  19.040  0.00  0.00    +0.000 N 
ATOM     10  C   UNL     1       2.558   7.274  19.075  0.00  0.00    +0.000 A 
ATOM     11  C   UNL     1       1.646   7.934  20.031  0.00  0.00    +0.000 C 
ATOM     12  N   UNL     1       3.058   7.941  18.047  0.00  0.00    +0.000 NA
ATOM     13  N   UNL     1       3.859   7.108  17.330  0.00  0.00    +0.000 NA
ATOM     14  C   UNL     1       3.820   5.930  17.907  0.00  0.00    +0.000 A 
ENDROOT
BRANCH   1  19
ATOM     15  C   UNL     1       7.798   4.845  12.714  0.00  0.00    +0.000 C 
ATOM     16  C   UNL     1       6.949   4.782  13.947  0.00  0.00    +0.000 A 
ATOM     17  C   UNL     1       5.647   4.278  13.892  0.00  0.00    +0.000 A 
ATOM     18  C   UNL     1       4.853   4.237  15.039  0.00  0.00    +0.000 A 
ATOM     19  C   UNL     1       5.342   4.719  16.259  0.00  0.00    +0.000 A 
ATOM     20  C   UNL     1       6.657   5.197  16.325  0.00  0.00    +0.000 A 
ATOM     21  C   UNL     1       7.453   5.232  15.175  0.00  0.00    +0.000 A 
ENDBRANCH   1  19
TORSDOF 1
ENDMDL
MODEL 2
REMARK VINA RESULT:      -7.9      1.714      6.432
REMARK  Name = 
REMARK  3 active torsions:
REMARK  status: ('A' for Active; 'I' for Inactive)
REMARK    1  A    between atoms: C_1  and  C_2
REMARK    2  A    between atoms: C_5  and  C_6
REMARK    3  A    between atoms: C_15  and  C_16
REMARK                            x       y       z     vdW  Elec       q    Type
REMARK                         _______ _______ _______ _____ _____    ______ ____
ROOT
ATOM      1  C   UNL     1       2.949   6.667  18.183  0.00  0.00    +0.000 A 
ATOM      2  N   UNL     1       3.904   6.957  17.347  0.00  0.00    +0.000 NA
ATOM      3  C   UNL     1       4.656   5.913  16.764  0.00  0.00    +0.000 A 
ATOM      4  C   UNL     1       5.666   6.282  15.870  0.00  0.00    +0.000 A 
ATOM      5  C   UNL     1       6.461   5.318  15.254  0.00  0.00    +0.000 A 
ATOM      6  C   UNL     1       6.248   3.971  15.531  0.00  0.00    +0.000 A 
ATOM      7  C   UNL     1       5.242   3.577  16.419  0.00  0.00    +0.000 A 
ATOM      8  C   UNL     1       4.443   4.541  17.038  0.00  0.00    +0.000 A 
ATOM      9  N   UNL     1       3.407   4.255  17.958  0.00  0.00    +0.000 N 
ATOM     10  C   UNL     1       2.855   3.115  18.521  0.00  0.00    +0.000 A 
ATOM     11  C   UNL     1       3.171   1.688  18.304  0.00  0.00    +0.000 C 
ATOM     12  N   UNL     1       1.907   3.476  19.371  0.00  0.00    +0.000 NA
ATOM     13  N   UNL     1       1.819   4.833  19.381  0.00  0.00    +0.000 NA
ATOM     14  C   UNL     1       2.692   5.291  18.516  0.00  0.00    +0.000 A 
ENDROOT
BRANCH   1  19
ATOM     15  C   UNL     1      -0.032  11.065  20.522  0.00  0.00    +0.000 C 
ATOM     16  C   UNL     1       0.711   9.909  19.925  0.00  0.00    +0.000 A 
ATOM     17  C   UNL     1       1.152   8.854  20.728  0.00  0.00    +0.000 A 
ATOM     18  C   UNL     1       1.859   7.787  20.172  0.00  0.00    +0.000 A 
ATOM     19  C   UNL     1       2.154   7.767  18.803  0.00  0.00    +0.000 A 
ATOM     20  C   UNL     1       1.688   8.808  17.990  0.00  0.00    +0.000 A 
ATOM     21  C   UNL     1       0.974   9.873  18.549  0.00  0.00    +0.000 A 
ENDBRANCH   1  19
TORSDOF 1
ENDMDL
MODEL 3
REMARK VINA RESULT:      -7.9      1.728      6.413
REMARK  Name = 
REMARK  3 active torsions:
REMARK  status: ('A' for Active; 'I' for Inactive)
REMARK    1  A    between atoms: C_1  and  C_2
REMARK    2  A    between atoms: C_5  and  C_6
REMARK    3  A    between atoms: C_15  and  C_16
REMARK                            x       y       z     vdW  Elec       q    Type
REMARK                         _______ _______ _______ _____ _____    ______ ____
ROOT
ATOM      1  C   UNL     1       2.948   6.692  18.165  0.00  0.00    +0.000 A 
ATOM      2  N   UNL     1       3.917   6.973  17.341  0.00  0.00    +0.000 NA
ATOM      3  C   UNL     1       4.666   5.922  16.766  0.00  0.00    +0.000 A 
ATOM      4  C   UNL     1       5.690   6.282  15.885  0.00  0.00    +0.000 A 
ATOM      5  C   UNL     1       6.484   5.311  15.279  0.00  0.00    +0.000 A 
ATOM      6  C   UNL     1       6.252   3.966  15.550  0.00  0.00    +0.000 A 
ATOM      7  C   UNL     1       5.231   3.581  16.425  0.00  0.00    +0.000 A 
ATOM      8  C   UNL     1       4.435   4.552  17.035  0.00  0.00    +0.000 A 
ATOM      9  N   UNL     1       3.384   4.277  17.941  0.00  0.00    +0.000 N 
ATOM     10  C   UNL     1       2.812   3.141  18.496  0.00  0.00    +0.000 A 
ATOM     11  C   UNL     1       3.116   1.712  18.281  0.00  0.00    +0.000 C 
ATOM     12  N   UNL     1       1.857   3.511  19.333  0.00  0.00    +0.000 NA
ATOM     13  N   UNL     1       1.783   4.868  19.345  0.00  0.00    +0.000 NA
ATOM     14  C   UNL     1       2.672   5.319  18.492  0.00  0.00    +0.000 A 
ENDROOT
BRANCH   1  19
ATOM     15  C   UNL     1      -0.239  10.880  20.616  0.00  0.00    +0.000 C 
ATOM     16  C   UNL     1       0.609   9.822  19.977  0.00  0.00    +0.000 A 
ATOM     17  C   UNL     1       0.889   9.863  18.608  0.00  0.00    +0.000 A 
ATOM     18  C   UNL     1       1.664   8.866  18.014  0.00  0.00    +0.000 A 
ATOM     19  C   UNL     1       2.157   7.800  18.776  0.00  0.00    +0.000 A 
ATOM     20  C   UNL     1       1.904   7.773  20.153  0.00  0.00    +0.000 A 
ATOM     21  C   UNL     1       1.132   8.775  20.748  0.00  0.00    +0.000 A 
ENDBRANCH   1  19
TORSDOF 1
ENDMDL
MODEL 4
REMARK VINA RESULT:      -7.8      0.091      1.056
REMARK  Name = 
REMARK  3 active torsions:
REMARK  status: ('A' for Active; 'I' for Inactive)
REMARK    1  A    between atoms: C_1  and  C_2
REMARK    2  A    between atoms: C_5  and  C_6
REMARK    3  A    between atoms: C_15  and  C_16
REMARK                            x       y       z     vdW  Elec       q    Type
REMARK                         _______ _______ _______ _____ _____    ______ ____
ROOT
ATOM      1  C   UNL     1       4.491   4.793  17.479  0.00  0.00    +0.000 A 
ATOM      2  N   UNL     1       4.410   3.710  18.197  0.00  0.00    +0.000 NA
ATOM      3  C   UNL     1       3.623   3.712  19.370  0.00  0.00    +0.000 A 
ATOM      4  C   UNL     1       3.570   2.520  20.099  0.00  0.00    +0.000 A 
ATOM      5  C   UNL     1       2.825   2.435  21.273  0.00  0.00    +0.000 A 
ATOM      6  C   UNL     1       2.124   3.548  21.725  0.00  0.00    +0.000 A 
ATOM      7  C   UNL     1       2.160   4.750  21.011  0.00  0.00    +0.000 A 
ATOM      8  C   UNL     1       2.906   4.840  19.835  0.00  0.00    +0.000 A 
ATOM      9  N   UNL     1       3.020   6.005  19.042  0.00  0.00    +0.000 N 
ATOM     10  C   UNL     1       2.529   7.302  19.091  0.00  0.00    +0.000 A 
ATOM     11  C   UNL     1       1.616   7.945  20.057  0.00  0.00    +0.000 C 
ATOM     12  N   UNL     1       3.019   7.981  18.067  0.00  0.00    +0.000 NA
ATOM     13  N   UNL     1       3.824   7.162  17.339  0.00  0.00    +0.000 NA
ATOM     14  C   UNL     1       3.797   5.979  17.905  0.00  0.00    +0.000 A 
ENDROOT
BRANCH   1  19
ATOM     15  C   UNL     1       7.693   4.627  12.639  0.00  0.00    +0.000 C 
ATOM     16  C   UNL     1       6.866   4.705  13.886  0.00  0.00    +0.000 A 
ATOM     17  C   UNL     1       7.397   5.242  15.062  0.00  0.00    +0.000 A 
ATOM     18  C   UNL     1       6.630   5.296  16.226  0.00  0.00    +0.000 A 
ATOM     19  C   UNL     1       5.323   4.795  16.240  0.00  0.00    +0.000 A 
ATOM     20  C   UNL     1       4.777   4.284  15.056  0.00  0.00    +0.000 A 
ATOM     21  C   UNL     1       5.545   4.235  13.888  0.00  0.00    +0.000 A 
ENDBRANCH   1  19
TORSDOF 1
ENDMDL
MODEL 5
REMARK VINA RESULT:      -7.6      1.797      6.550
REMARK  Name = 
REMARK  3 active torsions:
REMARK  status: ('A' for Active; 'I' for Inactive)
REMARK    1  A    between atoms: C_1  and  C_2
REMARK    2  A    between atoms: C_5  and  C_6
REMARK    3  A    between atoms: C_15  and  C_16
REMARK                            x       y       z     vdW  Elec       q    Type
REMARK                         _______ _______ _______ _____ _____    ______ ____
ROOT
ATOM      1  C   UNL     1       2.679   7.172  18.642  0.00  0.00    +0.000 A 
ATOM      2  N   UNL     1       3.451   7.335  17.606  0.00  0.00    +0.000 NA
ATOM      3  C   UNL     1       4.276   6.270  17.180  0.00  0.00    +0.000 A 
ATOM      4  C   UNL     1       5.081   6.500  16.060  0.00  0.00    +0.000 A 
ATOM      5  C   UNL     1       5.930   5.508  15.576  0.00  0.00    +0.000 A 
ATOM      6  C   UNL     1       5.977   4.272  16.213  0.00  0.00    +0.000 A 
ATOM      7  C   UNL     1       5.179   4.017  17.333  0.00  0.00    +0.000 A 
ATOM      8  C   UNL     1       4.327   5.009  17.822  0.00  0.00    +0.000 A 
ATOM      9  N   UNL     1       3.487   4.863  18.950  0.00  0.00    +0.000 N 
ATOM     10  C   UNL     1       3.208   3.861  19.867  0.00  0.00    +0.000 A 
ATOM     11  C   UNL     1       3.719   2.478  19.962  0.00  0.00    +0.000 C 
ATOM     12  N   UNL     1       2.340   4.323  20.752  0.00  0.00    +0.000 NA
ATOM     13  N   UNL     1       2.035   5.611  20.438  0.00  0.00    +0.000 NA
ATOM     14  C   UNL     1       2.696   5.918  19.348  0.00  0.00    +0.000 A 
ENDROOT
BRANCH   1  19
ATOM     15  C   UNL     1      -0.599  11.658  20.325  0.00  0.00    +0.000 C 
ATOM     16  C   UNL     1       0.221  10.478  19.899  0.00  0.00    +0.000 A 
ATOM     17  C   UNL     1       0.689   9.558  20.841  0.00  0.00    +0.000 A 
ATOM     18  C   UNL     1       1.468   8.470  20.443  0.00  0.00    +0.000 A 
ATOM     19  C   UNL     1       1.809   8.295  19.096  0.00  0.00    +0.000 A 
ATOM     20  C   UNL     1       1.317   9.199  18.146  0.00  0.00    +0.000 A 
ATOM     21  C   UNL     1       0.532  10.285  18.546  0.00  0.00    +0.000 A 
ENDBRANCH   1  19
TORSDOF 1
ENDMDL
MODEL 6
REMARK VINA RESULT:      -7.6      1.812      6.529
REMARK  Name = 
REMARK  3 active torsions:
REMARK  status: ('A' for Active; 'I' for Inactive)
REMARK    1  A    between atoms: C_1  and  C_2
REMARK    2  A    between atoms: C_5  and  C_6
REMARK    3  A    between atoms: C_15  and  C_16
REMARK                            x       y       z     vdW  Elec       q    Type
REMARK                         _______ _______ _______ _____ _____    ______ ____
ROOT
ATOM      1  C   UNL     1       2.640   7.218  18.635  0.00  0.00    +0.000 A 
ATOM      2  N   UNL     1       3.434   7.366  17.614  0.00  0.00    +0.000 NA
ATOM      3  C   UNL     1       4.267   6.294  17.220  0.00  0.00    +0.000 A 
ATOM      4  C   UNL     1       5.095   6.508  16.115  0.00  0.00    +0.000 A 
ATOM      5  C   UNL     1       5.954   5.509  15.663  0.00  0.00    +0.000 A 
ATOM      6  C   UNL     1       5.987   4.282  16.318  0.00  0.00    +0.000 A 
ATOM      7  C   UNL     1       5.166   4.044  17.425  0.00  0.00    +0.000 A 
ATOM      8  C   UNL     1       4.304   5.043  17.881  0.00  0.00    +0.000 A 
ATOM      9  N   UNL     1       3.440   4.914  18.993  0.00  0.00    +0.000 N 
ATOM     10  C   UNL     1       3.142   3.926  19.920  0.00  0.00    +0.000 A 
ATOM     11  C   UNL     1       3.650   2.544  20.045  0.00  0.00    +0.000 C 
ATOM     12  N   UNL     1       2.255   4.401  20.779  0.00  0.00    +0.000 NA
ATOM     13  N   UNL     1       1.958   5.684  20.441  0.00  0.00    +0.000 NA
ATOM     14  C   UNL     1       2.642   5.975  19.360  0.00  0.00    +0.000 A 
ENDROOT
BRANCH   1  19
ATOM     15  C   UNL     1      -0.882  11.500  20.357  0.00  0.00    +0.000 C 
ATOM     16  C   UNL     1       0.051  10.418  19.904  0.00  0.00    +0.000 A 
ATOM     17  C   UNL     1       0.362  10.266  18.550  0.00  0.00    +0.000 A 
ATOM     18  C   UNL     1       1.217   9.246  18.129  0.00  0.00    +0.000 A 
ATOM     19  C   UNL     1       1.761   8.348  19.055  0.00  0.00    +0.000 A 
ATOM     20  C   UNL     1       1.476   8.516  20.416  0.00  0.00    +0.000 A 
ATOM     21  C   UNL     1       0.623   9.542  20.836  0.00  0.00    +0.000 A 
ENDBRANCH   1  19
TORSDOF 1
ENDMDL
MODEL 7
REMARK VINA RESULT:      -7.6      1.810      5.682
REMARK  Name = 
REMARK  3 active torsions:
REMARK  status: ('A' for Active; 'I' for Inactive)
REMARK    1  A    between atoms: C_1  and  C_2
REMARK    2  A    between atoms: C_5  and  C_6
REMARK    3  A    between atoms: C_15  and  C_16
REMARK                            x       y       z     vdW  Elec       q    Type
REMARK                         _______ _______ _______ _____ _____    ______ ____
ROOT
ATOM      1  C   UNL     1       2.601   6.531  18.515  0.00  0.00    +0.000 A 
ATOM      2  N   UNL     1       2.016   5.473  18.999  0.00  0.00    +0.000 NA
ATOM      3  C   UNL     1       2.533   4.194  18.696  0.00  0.00    +0.000 A 
ATOM      4  C   UNL     1       1.868   3.095  19.245  0.00  0.00    +0.000 A 
ATOM      5  C   UNL     1       2.304   1.797  18.992  0.00  0.00    +0.000 A 
ATOM      6  C   UNL     1       3.418   1.591  18.184  0.00  0.00    +0.000 A 
ATOM      7  C   UNL     1       4.102   2.675  17.625  0.00  0.00    +0.000 A 
ATOM      8  C   UNL     1       3.667   3.978  17.876  0.00  0.00    +0.000 A 
ATOM      9  N   UNL     1       4.276   5.143  17.356  0.00  0.00    +0.000 N 
ATOM     10  C   UNL     1       5.357   5.426  16.535  0.00  0.00    +0.000 A 
ATOM     11  C   UNL     1       6.341   4.526  15.901  0.00  0.00    +0.000 C 
ATOM     12  N   UNL     1       5.426   6.736  16.358  0.00  0.00    +0.000 NA
ATOM     13  N   UNL     1       4.413   7.327  17.045  0.00  0.00    +0.000 NA
ATOM     14  C   UNL     1       3.749   6.379  17.663  0.00  0.00    +0.000 A 
ENDROOT
BRANCH   1  19
ATOM     15  C   UNL     1       0.338  11.716  19.821  0.00  0.00    +0.000 C 
ATOM     16  C   UNL     1       0.953  10.393  19.478  0.00  0.00    +0.000 A 
ATOM     17  C   UNL     1       1.369  10.117  18.173  0.00  0.00    +0.000 A 
ATOM     18  C   UNL     1       1.925   8.877  17.854  0.00  0.00    +0.000 A 
ATOM     19  C   UNL     1       2.056   7.884  18.832  0.00  0.00    +0.000 A 
ATOM     20  C   UNL     1       1.667   8.168  20.147  0.00  0.00    +0.000 A 
ATOM     21  C   UNL     1       1.116   9.413  20.467  0.00  0.00    +0.000 A 
ENDBRANCH   1  19
TORSDOF 1
ENDMDL
MODEL 8
REMARK VINA RESULT:      -7.4      0.889      3.201
REMARK  Name = 
REMARK  3 active torsions:
REMARK  status: ('A' for Active; 'I' for Inactive)
REMARK    1  A    between atoms: C_1  and  C_2
REMARK    2  A    between atoms: C_5  and  C_6
REMARK    3  A    between atoms: C_15  and  C_16
REMARK                            x       y       z     vdW  Elec       q    Type
REMARK                         _______ _______ _______ _____ _____    ______ ____
ROOT
ATOM      1  C   UNL     1       4.210   5.346  17.517  0.00  0.00    +0.000 A 
ATOM      2  N   UNL     1       3.675   6.522  17.679  0.00  0.00    +0.000 NA
ATOM      3  C   UNL     1       2.838   6.756  18.794  0.00  0.00    +0.000 A 
ATOM      4  C   UNL     1       2.294   8.038  18.920  0.00  0.00    +0.000 A 
ATOM      5  C   UNL     1       1.452   8.354  19.983  0.00  0.00    +0.000 A 
ATOM      6  C   UNL     1       1.150   7.383  20.933  0.00  0.00    +0.000 A 
ATOM      7  C   UNL     1       1.684   6.095  20.830  0.00  0.00    +0.000 A 
ATOM      8  C   UNL     1       2.527   5.774  19.765  0.00  0.00    +0.000 A 
ATOM      9  N   UNL     1       3.113   4.504  19.557  0.00  0.00    +0.000 N 
ATOM     10  C   UNL     1       3.099   3.277  20.205  0.00  0.00    +0.000 A 
ATOM     11  C   UNL     1       2.434   2.861  21.456  0.00  0.00    +0.000 C 
ATOM     12  N   UNL     1       3.825   2.419  19.508  0.00  0.00    +0.000 NA
ATOM     13  N   UNL     1       4.322   3.051  18.411  0.00  0.00    +0.000 NA
ATOM     14  C   UNL     1       3.921   4.300  18.461  0.00  0.00    +0.000 A 
ENDROOT
BRANCH   1  19
ATOM     15  C   UNL     1       7.677   4.543  12.930  0.00  0.00    +0.000 C 
ATOM     16  C   UNL     1       6.783   4.716  14.121  0.00  0.00    +0.000 A 
ATOM     17  C   UNL     1       5.485   4.199  14.119  0.00  0.00    +0.000 A 
ATOM     18  C   UNL     1       4.649   4.377  15.223  0.00  0.00    +0.000 A 
ATOM     19  C   UNL     1       5.092   5.095  16.340  0.00  0.00    +0.000 A 
ATOM     20  C   UNL     1       6.402   5.589  16.357  0.00  0.00    +0.000 A 
ATOM     21  C   UNL     1       7.240   5.404  15.253  0.00  0.00    +0.000 A 
ENDBRANCH   1  19
TORSDOF 1
ENDMDL
MODEL 9
REMARK VINA RESULT:      -7.4      1.829      5.650
REMARK  Name = 
REMARK  3 active torsions:
REMARK  status: ('A' for Active; 'I' for Inactive)
REMARK    1  A    between atoms: C_1  and  C_2
REMARK    2  A    between atoms: C_5  and  C_6
REMARK    3  A    between atoms: C_15  and  C_16
REMARK                            x       y       z     vdW  Elec       q    Type
REMARK                         _______ _______ _______ _____ _____    ______ ____
ROOT
ATOM      1  C   UNL     1       2.545   6.503  18.594  0.00  0.00    +0.000 A 
ATOM      2  N   UNL     1       1.914   5.469  19.071  0.00  0.00    +0.000 NA
ATOM      3  C   UNL     1       2.411   4.172  18.810  0.00  0.00    +0.000 A 
ATOM      4  C   UNL     1       1.697   3.099  19.351  0.00  0.00    +0.000 A 
ATOM      5  C   UNL     1       2.110   1.787  19.137  0.00  0.00    +0.000 A 
ATOM      6  C   UNL     1       3.250   1.539  18.378  0.00  0.00    +0.000 A 
ATOM      7  C   UNL     1       3.983   2.596  17.829  0.00  0.00    +0.000 A 
ATOM      8  C   UNL     1       3.571   3.913  18.041  0.00  0.00    +0.000 A 
ATOM      9  N   UNL     1       4.229   5.054  17.526  0.00  0.00    +0.000 N 
ATOM     10  C   UNL     1       5.349   5.296  16.745  0.00  0.00    +0.000 A 
ATOM     11  C   UNL     1       6.335   4.360  16.166  0.00  0.00    +0.000 C 
ATOM     12  N   UNL     1       5.458   6.600  16.548  0.00  0.00    +0.000 NA
ATOM     13  N   UNL     1       4.434   7.228  17.184  0.00  0.00    +0.000 NA
ATOM     14  C   UNL     1       3.722   6.307  17.790  0.00  0.00    +0.000 A 
ENDROOT
BRANCH   1  19
ATOM     15  C   UNL     1       0.659  11.905  19.577  0.00  0.00    +0.000 C 
ATOM     16  C   UNL     1       1.114  10.499  19.329  0.00  0.00    +0.000 A 
ATOM     17  C   UNL     1       1.146   9.566  20.369  0.00  0.00    +0.000 A 
ATOM     18  C   UNL     1       1.587   8.262  20.138  0.00  0.00    +0.000 A 
ATOM     19  C   UNL     1       2.022   7.874  18.865  0.00  0.00    +0.000 A 
ATOM     20  C   UNL     1       1.963   8.798  17.814  0.00  0.00    +0.000 A 
ATOM     21  C   UNL     1       1.515  10.103  18.046  0.00  0.00    +0.000 A 
ENDBRANCH   1  19
TORSDOF 1
ENDMDL
