MODEL 1
REMARK VINA RESULT:      -8.7      0.000      0.000
REMARK  Name = 
REMARK  5 active torsions:
REMARK  status: ('A' for Active; 'I' for Inactive)
REMARK    1  A    between atoms: C_1  and  O_2
REMARK    2  A    between atoms: O_2  and  C_3
REMARK    3  A    between atoms: C_8  and  C_9
REMARK    4  A    between atoms: N_11  and  C_12
REMARK    5  A    between atoms: C_15  and  C_16
REMARK                            x       y       z     vdW  Elec       q    Type
REMARK                         _______ _______ _______ _____ _____    ______ ____
ROOT
ATOM      1  C   UNL     1       0.759   9.041  21.443  0.00  0.00    +0.000 A 
ATOM      2  C   UNL     1       0.086   9.018  22.678  0.00  0.00    +0.000 A 
ATOM      3  C   UNL     1      -0.705  10.087  23.208  0.00  0.00    +0.000 A 
ATOM      4  C   UNL     1      -0.888  11.265  22.505  0.00  0.00    +0.000 A 
ATOM      5  C   UNL     1      -0.160  11.314  21.247  0.00  0.00    +0.000 A 
ATOM      6  C   UNL     1       0.629  10.231  20.721  0.00  0.00    +0.000 A 
ENDROOT
BRANCH   4   7
ATOM      7  C   UNL     1      -1.535  12.526  23.108  0.00  0.00    +0.000 C 
ATOM      8  O   UNL     1      -0.510  13.233  23.363  0.00  0.00    +0.000 OA
ATOM      9  N   UNL     1      -3.110  12.996  23.374  0.00  0.00    +0.000 N 
ATOM     10  C   UNL     1      -2.464  14.267  23.792  0.00  0.00    +0.000 C 
ATOM     11  C   UNL     1      -2.985  15.631  24.196  0.00  0.00    +0.000 C 
ATOM     12  C   UNL     1      -4.382  16.095  24.150  0.00  0.00    +0.000 C 
ATOM     13  C   UNL     1      -5.169  14.893  23.779  0.00  0.00    +0.000 A 
ATOM     14  C   UNL     1      -6.548  15.337  23.872  0.00  0.00    +0.000 A 
ATOM     15  C   UNL     1      -7.546  14.442  24.057  0.00  0.00    +0.000 A 
ATOM     16  C   UNL     1      -7.155  13.119  24.086  0.00  0.00    +0.000 A 
ATOM     17  C   UNL     1      -5.762  12.655  23.838  0.00  0.00    +0.000 A 
ATOM     18  C   UNL     1      -4.646  13.523  23.644  0.00  0.00    +0.000 A 
ENDBRANCH   4   7
BRANCH   1  21
ATOM     19  C   UNL     1       1.991   7.824  19.622  0.00  0.00    +0.000 C 
ATOM     20  O   UNL     1       1.790   8.709  18.787  0.00  0.00    +0.000 OA
ATOM     21  N   UNL     1       1.535   7.922  20.945  0.00  0.00    +0.000 N 
ATOM     22  H   UNL     1       1.841   7.205  21.595  0.00  0.00    +0.000 HD
BRANCH  19  28
ATOM     23  C   UNL     1       2.908   5.359  19.685  0.00  0.00    +0.000 A 
ATOM     24  C   UNL     1       3.702   4.388  19.022  0.00  0.00    +0.000 A 
ATOM     25  C   UNL     1       4.364   4.650  17.828  0.00  0.00    +0.000 A 
ATOM     26  C   UNL     1       4.267   5.904  17.265  0.00  0.00    +0.000 A 
ATOM     27  C   UNL     1       3.499   6.881  17.908  0.00  0.00    +0.000 A 
ATOM     28  C   UNL     1       2.800   6.642  19.125  0.00  0.00    +0.000 A 
BRANCH  23  30
ATOM     29  C   UNL     1       1.281   4.029  20.751  0.00  0.00    +0.000 C 
ATOM     30  O   UNL     1       2.275   5.059  20.867  0.00  0.00    +0.000 OA
ENDBRANCH  23  30
ENDBRANCH  19  28
ENDBRANCH   1  21
TORSDOF 4
ENDMDL
MODEL 2
REMARK VINA RESULT:      -8.7      1.890     10.940
REMARK  Name = 
REMARK  5 active torsions:
REMARK  status: ('A' for Active; 'I' for Inactive)
REMARK    1  A    between atoms: C_1  and  O_2
REMARK    2  A    between atoms: O_2  and  C_3
REMARK    3  A    between atoms: C_8  and  C_9
REMARK    4  A    between atoms: N_11  and  C_12
REMARK    5  A    between atoms: C_15  and  C_16
REMARK                            x       y       z     vdW  Elec       q    Type
REMARK                         _______ _______ _______ _____ _____    ______ ____
ROOT
ATOM      1  C   UNL     1      -0.603  10.953  20.444  0.00  0.00    +0.000 A 
ATOM      2  C   UNL     1      -0.133   9.762  21.028  0.00  0.00    +0.000 A 
ATOM      3  C   UNL     1       0.830   8.880  20.443  0.00  0.00    +0.000 A 
ATOM      4  C   UNL     1       1.408   9.155  19.216  0.00  0.00    +0.000 A 
ATOM      5  C   UNL     1       0.895  10.361  18.586  0.00  0.00    +0.000 A 
ATOM      6  C   UNL     1      -0.071  11.245  19.185  0.00  0.00    +0.000 A 
ENDROOT
BRANCH   4   7
ATOM      7  C   UNL     1       2.274   8.148  18.437  0.00  0.00    +0.000 C 
ATOM      8  O   UNL     1       3.038   8.929  17.786  0.00  0.00    +0.000 OA
ATOM      9  N   UNL     1       2.343   6.484  18.389  0.00  0.00    +0.000 N 
ATOM     10  C   UNL     1       3.511   6.744  17.508  0.00  0.00    +0.000 C 
ATOM     11  C   UNL     1       4.559   5.863  16.861  0.00  0.00    +0.000 C 
ATOM     12  C   UNL     1       4.753   4.417  17.070  0.00  0.00    +0.000 C 
ATOM     13  C   UNL     1       3.609   3.999  17.916  0.00  0.00    +0.000 A 
ATOM     14  C   UNL     1       3.743   2.556  17.996  0.00  0.00    +0.000 A 
ATOM     15  C   UNL     1       2.670   1.782  18.281  0.00  0.00    +0.000 A 
ATOM     16  C   UNL     1       1.500   2.466  18.539  0.00  0.00    +0.000 A 
ATOM     17  C   UNL     1       1.398   3.950  18.607  0.00  0.00    +0.000 A 
ATOM     18  C   UNL     1       2.471   4.845  18.312  0.00  0.00    +0.000 A 
ENDBRANCH   4   7
BRANCH   1  21
ATOM     19  C   UNL     1      -1.399  12.348  22.376  0.00  0.00    +0.000 C 
ATOM     20  O   UNL     1      -0.386  12.137  23.048  0.00  0.00    +0.000 OA
ATOM     21  N   UNL     1      -1.570  11.821  21.088  0.00  0.00    +0.000 N 
ATOM     22  H   UNL     1      -2.378  12.137  20.561  0.00  0.00    +0.000 HD
BRANCH  19  28
ATOM     23  C   UNL     1      -3.827  13.176  22.962  0.00  0.00    +0.000 A 
ATOM     24  C   UNL     1      -4.599  14.117  23.690  0.00  0.00    +0.000 A 
ATOM     25  C   UNL     1      -4.025  15.103  24.485  0.00  0.00    +0.000 A 
ATOM     26  C   UNL     1      -2.652  15.190  24.562  0.00  0.00    +0.000 A 
ATOM     27  C   UNL     1      -1.871  14.281  23.842  0.00  0.00    +0.000 A 
ATOM     28  C   UNL     1      -2.427  13.253  23.029  0.00  0.00    +0.000 A 
BRANCH  23  30
ATOM     29  C   UNL     1      -5.158  12.755  21.063  0.00  0.00    +0.000 C 
ATOM     30  O   UNL     1      -4.436  12.221  22.184  0.00  0.00    +0.000 OA
ENDBRANCH  23  30
ENDBRANCH  19  28
ENDBRANCH   1  21
TORSDOF 4
ENDMDL
MODEL 3
REMARK VINA RESULT:      -8.5      2.025     11.021
REMARK  Name = 
REMARK  5 active torsions:
REMARK  status: ('A' for Active; 'I' for Inactive)
REMARK    1  A    between atoms: C_1  and  O_2
REMARK    2  A    between atoms: O_2  and  C_3
REMARK    3  A    between atoms: C_8  and  C_9
REMARK    4  A    between atoms: N_11  and  C_12
REMARK    5  A    between atoms: C_15  and  C_16
REMARK                            x       y       z     vdW  Elec       q    Type
REMARK                         _______ _______ _______ _____ _____    ______ ____
ROOT
ATOM      1  C   UNL     1      -0.563  10.908  21.433  0.00  0.00    +0.000 A 
ATOM      2  C   UNL     1      -0.626  10.963  20.029  0.00  0.00    +0.000 A 
ATOM      3  C   UNL     1       0.124  10.133  19.136  0.00  0.00    +0.000 A 
ATOM      4  C   UNL     1       0.989   9.162  19.609  0.00  0.00    +0.000 A 
ATOM      5  C   UNL     1       1.093   9.129  21.060  0.00  0.00    +0.000 A 
ATOM      6  C   UNL     1       0.330   9.965  21.950  0.00  0.00    +0.000 A 
ENDROOT
BRANCH   4   7
ATOM      7  C   UNL     1       1.981   8.395  18.715  0.00  0.00    +0.000 C 
ATOM      8  O   UNL     1       2.627   9.352  18.184  0.00  0.00    +0.000 OA
ATOM      9  N   UNL     1       2.278   6.778  18.448  0.00  0.00    +0.000 N 
ATOM     10  C   UNL     1       3.395   7.310  17.626  0.00  0.00    +0.000 C 
ATOM     11  C   UNL     1       4.550   6.674  16.882  0.00  0.00    +0.000 C 
ATOM     12  C   UNL     1       4.942   5.254  16.899  0.00  0.00    +0.000 C 
ATOM     13  C   UNL     1       3.870   4.574  17.668  0.00  0.00    +0.000 A 
ATOM     14  C   UNL     1       4.201   3.165  17.558  0.00  0.00    +0.000 A 
ATOM     15  C   UNL     1       3.246   2.221  17.723  0.00  0.00    +0.000 A 
ATOM     16  C   UNL     1       1.994   2.699  18.053  0.00  0.00    +0.000 A 
ATOM     17  C   UNL     1       1.691   4.133  18.316  0.00  0.00    +0.000 A 
ATOM     18  C   UNL     1       2.628   5.197  18.157  0.00  0.00    +0.000 A 
ENDBRANCH   4   7
BRANCH   1  21
ATOM     19  C   UNL     1      -1.013  13.087  22.601  0.00  0.00    +0.000 C 
ATOM     20  O   UNL     1      -0.014  13.637  22.128  0.00  0.00    +0.000 OA
ATOM     21  N   UNL     1      -1.358  11.764  22.294  0.00  0.00    +0.000 N 
ATOM     22  H   UNL     1      -2.253  11.427  22.633  0.00  0.00    +0.000 HD
BRANCH  19  28
ATOM     23  C   UNL     1      -3.258  13.997  23.627  0.00  0.00    +0.000 A 
ATOM     24  C   UNL     1      -3.840  14.878  24.574  0.00  0.00    +0.000 A 
ATOM     25  C   UNL     1      -3.081  15.696  25.403  0.00  0.00    +0.000 A 
ATOM     26  C   UNL     1      -1.707  15.671  25.297  0.00  0.00    +0.000 A 
ATOM     27  C   UNL     1      -1.112  14.819  24.360  0.00  0.00    +0.000 A 
ATOM     28  C   UNL     1      -1.860  13.962  23.506  0.00  0.00    +0.000 A 
BRANCH  23  30
ATOM     29  C   UNL     1      -4.581  13.894  21.679  0.00  0.00    +0.000 C 
ATOM     30  O   UNL     1      -4.047  13.210  22.823  0.00  0.00    +0.000 OA
ENDBRANCH  23  30
ENDBRANCH  19  28
ENDBRANCH   1  21
TORSDOF 4
ENDMDL
MODEL 4
REMARK VINA RESULT:      -8.4      1.943     11.263
REMARK  Name = 
REMARK  5 active torsions:
REMARK  status: ('A' for Active; 'I' for Inactive)
REMARK    1  A    between atoms: C_1  and  O_2
REMARK    2  A    between atoms: O_2  and  C_3
REMARK    3  A    between atoms: C_8  and  C_9
REMARK    4  A    between atoms: N_11  and  C_12
REMARK    5  A    between atoms: C_15  and  C_16
REMARK                            x       y       z     vdW  Elec       q    Type
REMARK                         _______ _______ _______ _____ _____    ______ ____
ROOT
ATOM      1  C   UNL     1      -0.245  10.197  20.913  0.00  0.00    +0.000 A 
ATOM      2  C   UNL     1      -0.237   9.036  21.708  0.00  0.00    +0.000 A 
ATOM      3  C   UNL     1       0.575   7.881  21.474  0.00  0.00    +0.000 A 
ATOM      4  C   UNL     1       1.463   7.826  20.414  0.00  0.00    +0.000 A 
ATOM      5  C   UNL     1       1.429   9.004  19.562  0.00  0.00    +0.000 A 
ATOM      6  C   UNL     1       0.612  10.164  19.808  0.00  0.00    +0.000 A 
ENDROOT
BRANCH   4   7
ATOM      7  C   UNL     1       2.194   6.542  19.980  0.00  0.00    +0.000 C 
ATOM      8  O   UNL     1       1.860   5.741  20.909  0.00  0.00    +0.000 OA
ATOM      9  N   UNL     1       3.147   6.145  18.673  0.00  0.00    +0.000 N 
ATOM     10  C   UNL     1       3.092   4.790  19.280  0.00  0.00    +0.000 C 
ATOM     11  C   UNL     1       3.579   3.423  18.850  0.00  0.00    +0.000 C 
ATOM     12  C   UNL     1       4.175   3.062  17.552  0.00  0.00    +0.000 C 
ATOM     13  C   UNL     1       4.335   4.352  16.836  0.00  0.00    +0.000 A 
ATOM     14  C   UNL     1       5.045   3.992  15.622  0.00  0.00    +0.000 A 
ATOM     15  C   UNL     1       5.764   4.919  14.948  0.00  0.00    +0.000 A 
ATOM     16  C   UNL     1       5.712   6.197  15.465  0.00  0.00    +0.000 A 
ATOM     17  C   UNL     1       4.862   6.597  16.620  0.00  0.00    +0.000 A 
ATOM     18  C   UNL     1       4.080   5.690  17.397  0.00  0.00    +0.000 A 
ENDBRANCH   4   7
BRANCH   1  21
ATOM     19  C   UNL     1      -1.205  11.907  22.483  0.00  0.00    +0.000 C 
ATOM     20  O   UNL     1      -0.585  11.474  23.459  0.00  0.00    +0.000 OA
ATOM     21  N   UNL     1      -1.077  11.349  21.204  0.00  0.00    +0.000 N 
ATOM     22  H   UNL     1      -1.532  11.836  20.438  0.00  0.00    +0.000 HD
BRANCH  19  28
ATOM     23  C   UNL     1      -3.452  13.274  22.500  0.00  0.00    +0.000 A 
ATOM     24  C   UNL     1      -4.084  14.485  22.883  0.00  0.00    +0.000 A 
ATOM     25  C   UNL     1      -3.405  15.513  23.528  0.00  0.00    +0.000 A 
ATOM     26  C   UNL     1      -2.060  15.368  23.795  0.00  0.00    +0.000 A 
ATOM     27  C   UNL     1      -1.415  14.186  23.413  0.00  0.00    +0.000 A 
ATOM     28  C   UNL     1      -2.083  13.112  22.763  0.00  0.00    +0.000 A 
BRANCH  23  30
ATOM     29  C   UNL     1      -4.618  12.653  20.548  0.00  0.00    +0.000 C 
ATOM     30  O   UNL     1      -4.161  12.286  21.859  0.00  0.00    +0.000 OA
ENDBRANCH  23  30
ENDBRANCH  19  28
ENDBRANCH   1  21
TORSDOF 4
ENDMDL
MODEL 5
REMARK VINA RESULT:      -8.3      1.922     11.012
REMARK  Name = 
REMARK  5 active torsions:
REMARK  status: ('A' for Active; 'I' for Inactive)
REMARK    1  A    between atoms: C_1  and  O_2
REMARK    2  A    between atoms: O_2  and  C_3
REMARK    3  A    between atoms: C_8  and  C_9
REMARK    4  A    between atoms: N_11  and  C_12
REMARK    5  A    between atoms: C_15  and  C_16
REMARK                            x       y       z     vdW  Elec       q    Type
REMARK                         _______ _______ _______ _____ _____    ______ ____
ROOT
ATOM      1  C   UNL     1      -0.217  10.789  20.433  0.00  0.00    +0.000 A 
ATOM      2  C   UNL     1       0.504   9.782  21.101  0.00  0.00    +0.000 A 
ATOM      3  C   UNL     1       1.403   8.859  20.478  0.00  0.00    +0.000 A 
ATOM      4  C   UNL     1       1.655   8.904  19.117  0.00  0.00    +0.000 A 
ATOM      5  C   UNL     1       0.881   9.914  18.414  0.00  0.00    +0.000 A 
ATOM      6  C   UNL     1      -0.018  10.841  19.050  0.00  0.00    +0.000 A 
ENDROOT
BRANCH   4   7
ATOM      7  C   UNL     1       2.431   7.813  18.358  0.00  0.00    +0.000 C 
ATOM      8  O   UNL     1       3.212   8.516  17.642  0.00  0.00    +0.000 OA
ATOM      9  N   UNL     1       2.403   6.148  18.388  0.00  0.00    +0.000 N 
ATOM     10  C   UNL     1       3.549   6.297  17.454  0.00  0.00    +0.000 C 
ATOM     11  C   UNL     1       4.519   5.326  16.814  0.00  0.00    +0.000 C 
ATOM     12  C   UNL     1       4.638   3.883  17.085  0.00  0.00    +0.000 C 
ATOM     13  C   UNL     1       3.506   3.573  17.992  0.00  0.00    +0.000 A 
ATOM     14  C   UNL     1       3.561   2.130  18.138  0.00  0.00    +0.000 A 
ATOM     15  C   UNL     1       2.458   1.434  18.499  0.00  0.00    +0.000 A 
ATOM     16  C   UNL     1       1.339   2.198  18.765  0.00  0.00    +0.000 A 
ATOM     17  C   UNL     1       1.325   3.687  18.764  0.00  0.00    +0.000 A 
ATOM     18  C   UNL     1       2.434   4.502  18.388  0.00  0.00    +0.000 A 
ENDBRANCH   4   7
BRANCH   1  21
ATOM     19  C   UNL     1      -1.178  11.824  22.511  0.00  0.00    +0.000 C 
ATOM     20  O   UNL     1      -0.458  11.165  23.267  0.00  0.00    +0.000 OA
ATOM     21  N   UNL     1      -1.106  11.710  21.116  0.00  0.00    +0.000 N 
ATOM     22  H   UNL     1      -1.650  12.369  20.568  0.00  0.00    +0.000 HD
BRANCH  19  28
ATOM     23  C   UNL     1      -1.842  14.084  23.682  0.00  0.00    +0.000 A 
ATOM     24  C   UNL     1      -2.894  14.834  24.267  0.00  0.00    +0.000 A 
ATOM     25  C   UNL     1      -4.194  14.351  24.368  0.00  0.00    +0.000 A 
ATOM     26  C   UNL     1      -4.480  13.086  23.900  0.00  0.00    +0.000 A 
ATOM     27  C   UNL     1      -3.454  12.324  23.331  0.00  0.00    +0.000 A 
ATOM     28  C   UNL     1      -2.117  12.794  23.202  0.00  0.00    +0.000 A 
BRANCH  23  30
ATOM     29  C   UNL     1      -0.505  15.910  23.025  0.00  0.00    +0.000 C 
ATOM     30  O   UNL     1      -0.570  14.599  23.607  0.00  0.00    +0.000 OA
ENDBRANCH  23  30
ENDBRANCH  19  28
ENDBRANCH   1  21
TORSDOF 4
ENDMDL
MODEL 6
REMARK VINA RESULT:      -8.3      1.684     10.935
REMARK  Name = 
REMARK  5 active torsions:
REMARK  status: ('A' for Active; 'I' for Inactive)
REMARK    1  A    between atoms: C_1  and  O_2
REMARK    2  A    between atoms: O_2  and  C_3
REMARK    3  A    between atoms: C_8  and  C_9
REMARK    4  A    between atoms: N_11  and  C_12
REMARK    5  A    between atoms: C_15  and  C_16
REMARK                            x       y       z     vdW  Elec       q    Type
REMARK                         _______ _______ _______ _____ _____    ______ ____
ROOT
ATOM      1  C   UNL     1      -0.728  10.983  21.099  0.00  0.00    +0.000 A 
ATOM      2  C   UNL     1      -0.027   9.947  21.745  0.00  0.00    +0.000 A 
ATOM      3  C   UNL     1       0.905   9.064  21.114  0.00  0.00    +0.000 A 
ATOM      4  C   UNL     1       1.213   9.179  19.770  0.00  0.00    +0.000 A 
ATOM      5  C   UNL     1       0.460  10.219  19.086  0.00  0.00    +0.000 A 
ATOM      6  C   UNL     1      -0.473  11.106  19.731  0.00  0.00    +0.000 A 
ENDROOT
BRANCH   4   7
ATOM      7  C   UNL     1       2.029   8.132  18.989  0.00  0.00    +0.000 C 
ATOM      8  O   UNL     1       2.313   8.778  17.931  0.00  0.00    +0.000 OA
ATOM      9  N   UNL     1       2.522   6.576  19.320  0.00  0.00    +0.000 N 
ATOM     10  C   UNL     1       3.243   6.729  18.030  0.00  0.00    +0.000 C 
ATOM     11  C   UNL     1       4.232   5.872  17.268  0.00  0.00    +0.000 C 
ATOM     12  C   UNL     1       4.861   4.622  17.729  0.00  0.00    +0.000 C 
ATOM     13  C   UNL     1       4.194   4.315  19.019  0.00  0.00    +0.000 A 
ATOM     14  C   UNL     1       4.729   3.016  19.387  0.00  0.00    +0.000 A 
ATOM     15  C   UNL     1       4.047   2.209  20.232  0.00  0.00    +0.000 A 
ATOM     16  C   UNL     1       2.877   2.738  20.739  0.00  0.00    +0.000 A 
ATOM     17  C   UNL     1       2.408   4.127  20.481  0.00  0.00    +0.000 A 
ATOM     18  C   UNL     1       3.054   5.044  19.598  0.00  0.00    +0.000 A 
ENDBRANCH   4   7
BRANCH   1  21
ATOM     19  C   UNL     1      -1.247  12.977  22.537  0.00  0.00    +0.000 C 
ATOM     20  O   UNL     1      -0.063  13.314  22.633  0.00  0.00    +0.000 OA
ATOM     21  N   UNL     1      -1.652  11.862  21.790  0.00  0.00    +0.000 N 
ATOM     22  H   UNL     1      -2.650  11.723  21.668  0.00  0.00    +0.000 HD
BRANCH  19  28
ATOM     23  C   UNL     1      -3.605  13.680  23.466  0.00  0.00    +0.000 A 
ATOM     24  C   UNL     1      -4.332  14.652  24.200  0.00  0.00    +0.000 A 
ATOM     25  C   UNL     1      -3.736  15.789  24.735  0.00  0.00    +0.000 A 
ATOM     26  C   UNL     1      -2.388  15.999  24.534  0.00  0.00    +0.000 A 
ATOM     27  C   UNL     1      -1.655  15.060  23.801  0.00  0.00    +0.000 A 
ATOM     28  C   UNL     1      -2.233  13.881  23.252  0.00  0.00    +0.000 A 
BRANCH  23  30
ATOM     29  C   UNL     1      -5.119  12.862  21.857  0.00  0.00    +0.000 C 
ATOM     30  O   UNL     1      -4.236  12.573  22.951  0.00  0.00    +0.000 OA
ENDBRANCH  23  30
ENDBRANCH  19  28
ENDBRANCH   1  21
TORSDOF 4
ENDMDL
MODEL 7
REMARK VINA RESULT:      -8.3      2.012     11.354
REMARK  Name = 
REMARK  5 active torsions:
REMARK  status: ('A' for Active; 'I' for Inactive)
REMARK    1  A    between atoms: C_1  and  O_2
REMARK    2  A    between atoms: O_2  and  C_3
REMARK    3  A    between atoms: C_8  and  C_9
REMARK    4  A    between atoms: N_11  and  C_12
REMARK    5  A    between atoms: C_15  and  C_16
REMARK                            x       y       z     vdW  Elec       q    Type
REMARK                         _______ _______ _______ _____ _____    ______ ____
ROOT
ATOM      1  C   UNL     1       0.485  10.543  21.326  0.00  0.00    +0.000 A 
ATOM      2  C   UNL     1       0.768  10.242  19.981  0.00  0.00    +0.000 A 
ATOM      3  C   UNL     1       1.256   8.985  19.501  0.00  0.00    +0.000 A 
ATOM      4  C   UNL     1       1.477   7.922  20.360  0.00  0.00    +0.000 A 
ATOM      5  C   UNL     1       1.228   8.238  21.757  0.00  0.00    +0.000 A 
ATOM      6  C   UNL     1       0.732   9.505  22.229  0.00  0.00    +0.000 A 
ENDROOT
BRANCH   4   7
ATOM      7  C   UNL     1       2.204   6.629  19.946  0.00  0.00    +0.000 C 
ATOM      8  O   UNL     1       1.870   5.844  20.889  0.00  0.00    +0.000 OA
ATOM      9  N   UNL     1       3.153   6.208  18.643  0.00  0.00    +0.000 N 
ATOM     10  C   UNL     1       3.095   4.864  19.273  0.00  0.00    +0.000 C 
ATOM     11  C   UNL     1       3.577   3.488  18.864  0.00  0.00    +0.000 C 
ATOM     12  C   UNL     1       4.169   3.104  17.570  0.00  0.00    +0.000 C 
ATOM     13  C   UNL     1       4.330   4.382  16.833  0.00  0.00    +0.000 A 
ATOM     14  C   UNL     1       5.036   3.999  15.624  0.00  0.00    +0.000 A 
ATOM     15  C   UNL     1       5.757   4.912  14.932  0.00  0.00    +0.000 A 
ATOM     16  C   UNL     1       5.709   6.200  15.428  0.00  0.00    +0.000 A 
ATOM     17  C   UNL     1       4.863   6.621  16.578  0.00  0.00    +0.000 A 
ATOM     18  C   UNL     1       4.081   5.729  17.372  0.00  0.00    +0.000 A 
ENDBRANCH   4   7
BRANCH   1  21
ATOM     19  C   UNL     1      -1.039  11.980  22.713  0.00  0.00    +0.000 C 
ATOM     20  O   UNL     1      -1.554  11.017  23.288  0.00  0.00    +0.000 OA
ATOM     21  N   UNL     1      -0.024  11.831  21.758  0.00  0.00    +0.000 N 
ATOM     22  H   UNL     1       0.423  12.677  21.419  0.00  0.00    +0.000 HD
BRANCH  19  28
ATOM     23  C   UNL     1      -0.885  14.572  23.140  0.00  0.00    +0.000 A 
ATOM     24  C   UNL     1      -1.583  15.733  23.560  0.00  0.00    +0.000 A 
ATOM     25  C   UNL     1      -2.914  15.703  23.962  0.00  0.00    +0.000 A 
ATOM     26  C   UNL     1      -3.586  14.500  23.974  0.00  0.00    +0.000 A 
ATOM     27  C   UNL     1      -2.913  13.340  23.576  0.00  0.00    +0.000 A 
ATOM     28  C   UNL     1      -1.556  13.339  23.147  0.00  0.00    +0.000 A 
BRANCH  23  30
ATOM     29  C   UNL     1       0.654  15.449  21.585  0.00  0.00    +0.000 C 
ATOM     30  O   UNL     1       0.432  14.646  22.755  0.00  0.00    +0.000 OA
ENDBRANCH  23  30
ENDBRANCH  19  28
ENDBRANCH   1  21
TORSDOF 4
ENDMDL
MODEL 8
REMARK VINA RESULT:      -8.3      1.973     11.501
REMARK  Name = 
REMARK  5 active torsions:
REMARK  status: ('A' for Active; 'I' for Inactive)
REMARK    1  A    between atoms: C_1  and  O_2
REMARK    2  A    between atoms: O_2  and  C_3
REMARK    3  A    between atoms: C_8  and  C_9
REMARK    4  A    between atoms: N_11  and  C_12
REMARK    5  A    between atoms: C_15  and  C_16
REMARK                            x       y       z     vdW  Elec       q    Type
REMARK                         _______ _______ _______ _____ _____    ______ ____
ROOT
ATOM      1  C   UNL     1       0.321  10.141  20.933  0.00  0.00    +0.000 A 
ATOM      2  C   UNL     1       0.463   9.004  21.750  0.00  0.00    +0.000 A 
ATOM      3  C   UNL     1       1.157   7.807  21.384  0.00  0.00    +0.000 A 
ATOM      4  C   UNL     1       1.781   7.681  20.155  0.00  0.00    +0.000 A 
ATOM      5  C   UNL     1       1.602   8.836  19.289  0.00  0.00    +0.000 A 
ATOM      6  C   UNL     1       0.906  10.038  19.668  0.00  0.00    +0.000 A 
ENDROOT
BRANCH   4   7
ATOM      7  C   UNL     1       2.347   6.354  19.618  0.00  0.00    +0.000 C 
ATOM      8  O   UNL     1       1.597   5.510  20.202  0.00  0.00    +0.000 OA
ATOM      9  N   UNL     1       3.559   5.971  18.541  0.00  0.00    +0.000 N 
ATOM     10  C   UNL     1       3.059   4.589  18.757  0.00  0.00    +0.000 C 
ATOM     11  C   UNL     1       3.380   3.244  18.140  0.00  0.00    +0.000 C 
ATOM     12  C   UNL     1       4.263   2.985  16.989  0.00  0.00    +0.000 C 
ATOM     13  C   UNL     1       4.880   4.299  16.682  0.00  0.00    +0.000 A 
ATOM     14  C   UNL     1       5.844   3.996  15.639  0.00  0.00    +0.000 A 
ATOM     15  C   UNL     1       6.900   4.814  15.422  0.00  0.00    +0.000 A 
ATOM     16  C   UNL     1       6.941   5.946  16.210  0.00  0.00    +0.000 A 
ATOM     17  C   UNL     1       5.873   6.333  17.172  0.00  0.00    +0.000 A 
ATOM     18  C   UNL     1       4.730   5.532  17.473  0.00  0.00    +0.000 A 
ENDBRANCH   4   7
BRANCH   1  21
ATOM     19  C   UNL     1      -0.918  11.503  22.643  0.00  0.00    +0.000 C 
ATOM     20  O   UNL     1      -0.802  10.646  23.524  0.00  0.00    +0.000 OA
ATOM     21  N   UNL     1      -0.380  11.338  21.360  0.00  0.00    +0.000 N 
ATOM     22  H   UNL     1      -0.420  12.136  20.734  0.00  0.00    +0.000 HD
BRANCH  19  28
ATOM     23  C   UNL     1      -1.180  14.086  23.064  0.00  0.00    +0.000 A 
ATOM     24  C   UNL     1      -2.058  15.124  23.469  0.00  0.00    +0.000 A 
ATOM     25  C   UNL     1      -3.374  14.885  23.851  0.00  0.00    +0.000 A 
ATOM     26  C   UNL     1      -3.849  13.591  23.857  0.00  0.00    +0.000 A 
ATOM     27  C   UNL     1      -2.996  12.551  23.472  0.00  0.00    +0.000 A 
ATOM     28  C   UNL     1      -1.648  12.763  23.065  0.00  0.00    +0.000 A 
BRANCH  23  30
ATOM     29  C   UNL     1       0.376  15.765  22.500  0.00  0.00    +0.000 C 
ATOM     30  O   UNL     1       0.116  14.367  22.699  0.00  0.00    +0.000 OA
ENDBRANCH  23  30
ENDBRANCH  19  28
ENDBRANCH   1  21
TORSDOF 4
ENDMDL
MODEL 9
REMARK VINA RESULT:      -8.3      1.877     10.794
REMARK  Name = 
REMARK  5 active torsions:
REMARK  status: ('A' for Active; 'I' for Inactive)
REMARK    1  A    between atoms: C_1  and  O_2
REMARK    2  A    between atoms: O_2  and  C_3
REMARK    3  A    between atoms: C_8  and  C_9
REMARK    4  A    between atoms: N_11  and  C_12
REMARK    5  A    between atoms: C_15  and  C_16
REMARK                            x       y       z     vdW  Elec       q    Type
REMARK                         _______ _______ _______ _____ _____    ______ ____
ROOT
ATOM      1  C   UNL     1      -1.224  11.717  20.203  0.00  0.00    +0.000 A 
ATOM      2  C   UNL     1       0.062  11.508  20.734  0.00  0.00    +0.000 A 
ATOM      3  C   UNL     1       1.061  10.655  20.166  0.00  0.00    +0.000 A 
ATOM      4  C   UNL     1       0.832   9.957  18.993  0.00  0.00    +0.000 A 
ATOM      5  C   UNL     1      -0.510  10.133  18.462  0.00  0.00    +0.000 A 
ATOM      6  C   UNL     1      -1.507  10.998  19.038  0.00  0.00    +0.000 A 
ENDROOT
BRANCH   4   7
ATOM      7  C   UNL     1       1.772   8.863  18.455  0.00  0.00    +0.000 C 
ATOM      8  O   UNL     1       2.304   9.457  17.465  0.00  0.00    +0.000 OA
ATOM      9  N   UNL     1       2.135   7.313  18.946  0.00  0.00    +0.000 N 
ATOM     10  C   UNL     1       3.129   7.396  17.846  0.00  0.00    +0.000 C 
ATOM     11  C   UNL     1       4.239   6.489  17.358  0.00  0.00    +0.000 C 
ATOM     12  C   UNL     1       4.714   5.248  17.995  0.00  0.00    +0.000 C 
ATOM     13  C   UNL     1       3.767   5.009  19.112  0.00  0.00    +0.000 A 
ATOM     14  C   UNL     1       4.168   3.717  19.639  0.00  0.00    +0.000 A 
ATOM     15  C   UNL     1       3.292   2.959  20.339  0.00  0.00    +0.000 A 
ATOM     16  C   UNL     1       2.054   3.532  20.550  0.00  0.00    +0.000 A 
ATOM     17  C   UNL     1       1.694   4.918  20.142  0.00  0.00    +0.000 A 
ATOM     18  C   UNL     1       2.547   5.784  19.393  0.00  0.00    +0.000 A 
ENDBRANCH   4   7
BRANCH   1  21
ATOM     19  C   UNL     1      -2.619  12.495  22.142  0.00  0.00    +0.000 C 
ATOM     20  O   UNL     1      -2.166  11.643  22.912  0.00  0.00    +0.000 OA
ATOM     21  N   UNL     1      -2.195  12.607  20.811  0.00  0.00    +0.000 N 
ATOM     22  H   UNL     1      -2.533  13.405  20.282  0.00  0.00    +0.000 HD
BRANCH  19  28
ATOM     23  C   UNL     1      -5.037  13.329  22.757  0.00  0.00    +0.000 A 
ATOM     24  C   UNL     1      -5.799  14.318  23.429  0.00  0.00    +0.000 A 
ATOM     25  C   UNL     1      -5.215  15.384  24.105  0.00  0.00    +0.000 A 
ATOM     26  C   UNL     1      -3.841  15.503  24.113  0.00  0.00    +0.000 A 
ATOM     27  C   UNL     1      -3.071  14.545  23.445  0.00  0.00    +0.000 A 
ATOM     28  C   UNL     1      -3.638  13.437  22.755  0.00  0.00    +0.000 A 
BRANCH  23  30
ATOM     29  C   UNL     1      -7.090  12.386  22.086  0.00  0.00    +0.000 C 
ATOM     30  O   UNL     1      -5.658  12.295  22.097  0.00  0.00    +0.000 OA
ENDBRANCH  23  30
ENDBRANCH  19  28
ENDBRANCH   1  21
TORSDOF 4
ENDMDL
