MODEL 1
REMARK VINA RESULT:      -5.8      0.000      0.000
REMARK  Name = 
REMARK  17 active torsions:
REMARK  status: ('A' for Active; 'I' for Inactive)
REMARK    1  A    between atoms: C_1  and  C_2
REMARK    2  A    between atoms: C_2  and  C_3
REMARK    3  A    between atoms: C_3  and  C_4
REMARK    4  A    between atoms: C_4  and  C_5
REMARK    5  A    between atoms: C_5  and  C_6
REMARK    6  A    between atoms: C_6  and  C_7
REMARK    7  A    between atoms: C_7  and  C_8
REMARK    8  A    between atoms: C_8  and  C_9
REMARK    9  A    between atoms: C_10  and  C_11
REMARK   10  A    between atoms: C_11  and  C_12
REMARK   11  A    between atoms: C_12  and  C_13
REMARK   12  A    between atoms: C_13  and  C_14
REMARK   13  A    between atoms: C_14  and  C_15
REMARK   14  A    between atoms: C_15  and  C_16
REMARK   15  A    between atoms: C_16  and  C_17
REMARK   16  A    between atoms: C_17  and  C_18
REMARK   17  A    between atoms: N_20  and  C_21
REMARK                            x       y       z     vdW  Elec       q    Type
REMARK                         _______ _______ _______ _____ _____    ______ ____
ROOT
ATOM      1  C   UNL     1       3.729   3.024  17.290  0.00  0.00    +0.000 C 
ENDROOT
BRANCH   1   3
ATOM      2  C   UNL     1       5.216   4.863  18.156  0.00  0.00    +0.000 C 
ATOM      3  C   UNL     1       4.753   3.609  18.227  0.00  0.00    +0.000 C 
BRANCH   2   4
ATOM      4  C   UNL     1       4.730   5.831  17.125  0.00  0.00    +0.000 C 
BRANCH   4   5
ATOM      5  C   UNL     1       5.204   5.478  15.728  0.00  0.00    +0.000 C 
BRANCH   5   6
ATOM      6  C   UNL     1       6.720   5.352  15.730  0.00  0.00    +0.000 C 
BRANCH   6   7
ATOM      7  C   UNL     1       7.203   4.802  14.400  0.00  0.00    +0.000 C 
BRANCH   7   8
ATOM      8  C   UNL     1       6.230   3.761  13.863  0.00  0.00    +0.000 C 
BRANCH   8   9
ATOM      9  C   UNL     1       6.426   3.584  12.361  0.00  0.00    +0.000 C 
BRANCH   9  11
ATOM     10  C   UNL     1       4.176   3.304  11.296  0.00  0.00    +0.000 C 
ATOM     11  C   UNL     1       5.423   2.591  11.787  0.00  0.00    +0.000 C 
ENDBRANCH   9  11
ENDBRANCH   8   9
ENDBRANCH   7   8
ENDBRANCH   6   7
ENDBRANCH   5   6
ENDBRANCH   4   5
ENDBRANCH   2   4
ENDBRANCH   1   3
BRANCH   1  12
ATOM     12  C   UNL     1       2.609   2.308  18.035  0.00  0.00    +0.000 C 
BRANCH  12  13
ATOM     13  C   UNL     1       2.839   2.345  19.542  0.00  0.00    +0.000 C 
BRANCH  13  14
ATOM     14  C   UNL     1       1.595   2.812  20.270  0.00  0.00    +0.000 C 
BRANCH  14  15
ATOM     15  C   UNL     1       1.143   4.165  19.730  0.00  0.00    +0.000 C 
BRANCH  15  16
ATOM     16  C   UNL     1       1.555   5.253  20.706  0.00  0.00    +0.000 C 
BRANCH  16  17
ATOM     17  C   UNL     1       2.651   6.151  20.151  0.00  0.00    +0.000 C 
BRANCH  17  18
ATOM     18  C   UNL     1       2.065   7.480  19.727  0.00  0.00    +0.000 C 
ATOM     19  O   UNL     1       1.392   8.191  20.472  0.00  0.00    +0.000 OA
ATOM     20  N   UNL     1       2.360   7.819  18.427  0.00  0.00    +0.000 N 
ATOM     21  C   UNL     1       1.891   9.050  17.843  0.00  0.00    +0.000 C 
ATOM     22  H   UNL     1       2.918   7.194  17.859  0.00  0.00    +0.000 HD
ENDBRANCH  17  18
ENDBRANCH  16  17
ENDBRANCH  15  16
ENDBRANCH  14  15
ENDBRANCH  13  14
ENDBRANCH  12  13
ENDBRANCH   1  12
TORSDOF 15
ENDMDL
MODEL 2
REMARK VINA RESULT:      -5.7      5.327      8.013
REMARK  Name = 
REMARK  17 active torsions:
REMARK  status: ('A' for Active; 'I' for Inactive)
REMARK    1  A    between atoms: C_1  and  C_2
REMARK    2  A    between atoms: C_2  and  C_3
REMARK    3  A    between atoms: C_3  and  C_4
REMARK    4  A    between atoms: C_4  and  C_5
REMARK    5  A    between atoms: C_5  and  C_6
REMARK    6  A    between atoms: C_6  and  C_7
REMARK    7  A    between atoms: C_7  and  C_8
REMARK    8  A    between atoms: C_8  and  C_9
REMARK    9  A    between atoms: C_10  and  C_11
REMARK   10  A    between atoms: C_11  and  C_12
REMARK   11  A    between atoms: C_12  and  C_13
REMARK   12  A    between atoms: C_13  and  C_14
REMARK   13  A    between atoms: C_14  and  C_15
REMARK   14  A    between atoms: C_15  and  C_16
REMARK   15  A    between atoms: C_16  and  C_17
REMARK   16  A    between atoms: C_17  and  C_18
REMARK   17  A    between atoms: N_20  and  C_21
REMARK                            x       y       z     vdW  Elec       q    Type
REMARK                         _______ _______ _______ _____ _____    ______ ____
ROOT
ATOM      1  C   UNL     1       7.250   5.601  18.006  0.00  0.00    +0.000 C 
ENDROOT
BRANCH   1   3
ATOM      2  C   UNL     1       5.956   4.188  16.371  0.00  0.00    +0.000 C 
ATOM      3  C   UNL     1       7.116   4.688  16.816  0.00  0.00    +0.000 C 
BRANCH   2   4
ATOM      4  C   UNL     1       4.650   4.516  17.020  0.00  0.00    +0.000 C 
BRANCH   4   5
ATOM      5  C   UNL     1       4.409   3.710  18.281  0.00  0.00    +0.000 C 
BRANCH   5   6
ATOM      6  C   UNL     1       3.609   2.463  17.933  0.00  0.00    +0.000 C 
BRANCH   6   7
ATOM      7  C   UNL     1       2.147   2.818  17.723  0.00  0.00    +0.000 C 
BRANCH   7   8
ATOM      8  C   UNL     1       1.343   2.559  18.989  0.00  0.00    +0.000 C 
BRANCH   8   9
ATOM      9  C   UNL     1       1.036   3.876  19.694  0.00  0.00    +0.000 C 
BRANCH   9  11
ATOM     10  C   UNL     1       1.762   2.653  21.756  0.00  0.00    +0.000 C 
ATOM     11  C   UNL     1       1.784   3.980  21.018  0.00  0.00    +0.000 C 
ENDBRANCH   9  11
ENDBRANCH   8   9
ENDBRANCH   7   8
ENDBRANCH   6   7
ENDBRANCH   5   6
ENDBRANCH   4   5
ENDBRANCH   2   4
ENDBRANCH   1   3
BRANCH   1  12
ATOM     12  C   UNL     1       7.234   7.071  17.608  0.00  0.00    +0.000 C 
BRANCH  12  13
ATOM     13  C   UNL     1       8.326   7.850  18.335  0.00  0.00    +0.000 C 
BRANCH  13  14
ATOM     14  C   UNL     1       8.263   9.324  17.991  0.00  0.00    +0.000 C 
BRANCH  14  15
ATOM     15  C   UNL     1       9.097  10.134  18.977  0.00  0.00    +0.000 C 
BRANCH  15  16
ATOM     16  C   UNL     1       9.782  11.268  18.235  0.00  0.00    +0.000 C 
BRANCH  16  17
ATOM     17  C   UNL     1       8.822  12.391  17.871  0.00  0.00    +0.000 C 
BRANCH  17  18
ATOM     18  C   UNL     1       9.326  13.704  18.428  0.00  0.00    +0.000 C 
ATOM     19  O   UNL     1       9.892  13.804  19.516  0.00  0.00    +0.000 OA
ATOM     20  N   UNL     1       9.092  14.776  17.599  0.00  0.00    +0.000 N 
ATOM     21  C   UNL     1       9.502  16.112  17.958  0.00  0.00    +0.000 C 
ATOM     22  H   UNL     1       8.620  14.636  16.716  0.00  0.00    +0.000 HD
ENDBRANCH  17  18
ENDBRANCH  16  17
ENDBRANCH  15  16
ENDBRANCH  14  15
ENDBRANCH  13  14
ENDBRANCH  12  13
ENDBRANCH   1  12
TORSDOF 15
ENDMDL
MODEL 3
REMARK VINA RESULT:      -5.7      5.197      7.778
REMARK  Name = 
REMARK  17 active torsions:
REMARK  status: ('A' for Active; 'I' for Inactive)
REMARK    1  A    between atoms: C_1  and  C_2
REMARK    2  A    between atoms: C_2  and  C_3
REMARK    3  A    between atoms: C_3  and  C_4
REMARK    4  A    between atoms: C_4  and  C_5
REMARK    5  A    between atoms: C_5  and  C_6
REMARK    6  A    between atoms: C_6  and  C_7
REMARK    7  A    between atoms: C_7  and  C_8
REMARK    8  A    between atoms: C_8  and  C_9
REMARK    9  A    between atoms: C_10  and  C_11
REMARK   10  A    between atoms: C_11  and  C_12
REMARK   11  A    between atoms: C_12  and  C_13
REMARK   12  A    between atoms: C_13  and  C_14
REMARK   13  A    between atoms: C_14  and  C_15
REMARK   14  A    between atoms: C_15  and  C_16
REMARK   15  A    between atoms: C_16  and  C_17
REMARK   16  A    between atoms: C_17  and  C_18
REMARK   17  A    between atoms: N_20  and  C_21
REMARK                            x       y       z     vdW  Elec       q    Type
REMARK                         _______ _______ _______ _____ _____    ______ ____
ROOT
ATOM      1  C   UNL     1       7.487   6.213  18.334  0.00  0.00    +0.000 C 
ENDROOT
BRANCH   1   3
ATOM      2  C   UNL     1       6.306   4.593  16.811  0.00  0.00    +0.000 C 
ATOM      3  C   UNL     1       7.413   5.001  17.443  0.00  0.00    +0.000 C 
BRANCH   2   4
ATOM      4  C   UNL     1       5.012   5.333  16.917  0.00  0.00    +0.000 C 
BRANCH   4   5
ATOM      5  C   UNL     1       4.045   4.677  17.883  0.00  0.00    +0.000 C 
BRANCH   5   6
ATOM      6  C   UNL     1       3.365   3.503  17.193  0.00  0.00    +0.000 C 
BRANCH   6   7
ATOM      7  C   UNL     1       3.283   2.316  18.135  0.00  0.00    +0.000 C 
BRANCH   7   8
ATOM      8  C   UNL     1       1.865   2.146  18.664  0.00  0.00    +0.000 C 
BRANCH   8   9
ATOM      9  C   UNL     1       1.777   2.647  20.101  0.00  0.00    +0.000 C 
BRANCH   9  11
ATOM     10  C   UNL     1       1.723   5.088  20.662  0.00  0.00    +0.000 C 
ATOM     11  C   UNL     1       0.907   3.896  20.196  0.00  0.00    +0.000 C 
ENDBRANCH   9  11
ENDBRANCH   8   9
ENDBRANCH   7   8
ENDBRANCH   6   7
ENDBRANCH   5   6
ENDBRANCH   4   5
ENDBRANCH   2   4
ENDBRANCH   1   3
BRANCH   1  12
ATOM     12  C   UNL     1       7.716   7.495  17.544  0.00  0.00    +0.000 C 
BRANCH  12  13
ATOM     13  C   UNL     1       8.492   8.519  18.367  0.00  0.00    +0.000 C 
BRANCH  13  14
ATOM     14  C   UNL     1       8.254   9.923  17.853  0.00  0.00    +0.000 C 
BRANCH  14  15
ATOM     15  C   UNL     1       9.381  10.849  18.299  0.00  0.00    +0.000 C 
BRANCH  15  16
ATOM     16  C   UNL     1       9.659  10.618  19.774  0.00  0.00    +0.000 C 
BRANCH  16  17
ATOM     17  C   UNL     1      10.437  11.762  20.408  0.00  0.00    +0.000 C 
BRANCH  17  18
ATOM     18  C   UNL     1       9.648  12.350  21.557  0.00  0.00    +0.000 C 
ATOM     19  O   UNL     1       9.724  13.531  21.896  0.00  0.00    +0.000 OA
ATOM     20  N   UNL     1       8.835  11.437  22.187  0.00  0.00    +0.000 N 
ATOM     21  C   UNL     1       8.005  11.810  23.306  0.00  0.00    +0.000 C 
ATOM     22  H   UNL     1       8.814  10.477  21.867  0.00  0.00    +0.000 HD
ENDBRANCH  17  18
ENDBRANCH  16  17
ENDBRANCH  15  16
ENDBRANCH  14  15
ENDBRANCH  13  14
ENDBRANCH  12  13
ENDBRANCH   1  12
TORSDOF 15
ENDMDL
MODEL 4
REMARK VINA RESULT:      -5.7      3.306      7.462
REMARK  Name = 
REMARK  17 active torsions:
REMARK  status: ('A' for Active; 'I' for Inactive)
REMARK    1  A    between atoms: C_1  and  C_2
REMARK    2  A    between atoms: C_2  and  C_3
REMARK    3  A    between atoms: C_3  and  C_4
REMARK    4  A    between atoms: C_4  and  C_5
REMARK    5  A    between atoms: C_5  and  C_6
REMARK    6  A    between atoms: C_6  and  C_7
REMARK    7  A    between atoms: C_7  and  C_8
REMARK    8  A    between atoms: C_8  and  C_9
REMARK    9  A    between atoms: C_10  and  C_11
REMARK   10  A    between atoms: C_11  and  C_12
REMARK   11  A    between atoms: C_12  and  C_13
REMARK   12  A    between atoms: C_13  and  C_14
REMARK   13  A    between atoms: C_14  and  C_15
REMARK   14  A    between atoms: C_15  and  C_16
REMARK   15  A    between atoms: C_16  and  C_17
REMARK   16  A    between atoms: C_17  and  C_18
REMARK   17  A    between atoms: N_20  and  C_21
REMARK                            x       y       z     vdW  Elec       q    Type
REMARK                         _______ _______ _______ _____ _____    ______ ____
ROOT
ATOM      1  C   UNL     1       3.938   6.132  18.219  0.00  0.00    +0.000 C 
ENDROOT
BRANCH   1   3
ATOM      2  C   UNL     1       4.514   3.735  18.731  0.00  0.00    +0.000 C 
ATOM      3  C   UNL     1       4.518   5.031  19.067  0.00  0.00    +0.000 C 
BRANCH   2   4
ATOM      4  C   UNL     1       3.936   3.251  17.440  0.00  0.00    +0.000 C 
BRANCH   4   5
ATOM      5  C   UNL     1       3.282   1.890  17.570  0.00  0.00    +0.000 C 
BRANCH   5   6
ATOM      6  C   UNL     1       2.477   1.842  18.861  0.00  0.00    +0.000 C 
BRANCH   6   7
ATOM      7  C   UNL     1       1.116   2.482  18.655  0.00  0.00    +0.000 C 
BRANCH   7   8
ATOM      8  C   UNL     1       0.548   2.977  19.978  0.00  0.00    +0.000 C 
BRANCH   8   9
ATOM      9  C   UNL     1       1.017   4.403  20.249  0.00  0.00    +0.000 C 
BRANCH   9  11
ATOM     10  C   UNL     1       2.173   3.085  22.038  0.00  0.00    +0.000 C 
ATOM     11  C   UNL     1       2.065   4.437  21.356  0.00  0.00    +0.000 C 
ENDBRANCH   9  11
ENDBRANCH   8   9
ENDBRANCH   7   8
ENDBRANCH   6   7
ENDBRANCH   5   6
ENDBRANCH   4   5
ENDBRANCH   2   4
ENDBRANCH   1   3
BRANCH   1  12
ATOM     12  C   UNL     1       4.845   6.499  17.051  0.00  0.00    +0.000 C 
BRANCH  12  13
ATOM     13  C   UNL     1       6.250   6.848  17.533  0.00  0.00    +0.000 C 
BRANCH  13  14
ATOM     14  C   UNL     1       7.302   6.242  16.626  0.00  0.00    +0.000 C 
BRANCH  14  15
ATOM     15  C   UNL     1       7.252   4.720  16.701  0.00  0.00    +0.000 C 
BRANCH  15  16
ATOM     16  C   UNL     1       6.785   4.172  15.364  0.00  0.00    +0.000 C 
BRANCH  16  17
ATOM     17  C   UNL     1       7.198   5.054  14.195  0.00  0.00    +0.000 C 
BRANCH  17  18
ATOM     18  C   UNL     1       6.924   4.342  12.888  0.00  0.00    +0.000 C 
ATOM     19  O   UNL     1       7.477   4.635  11.829  0.00  0.00    +0.000 OA
ATOM     20  N   UNL     1       5.996   3.333  12.999  0.00  0.00    +0.000 N 
ATOM     21  C   UNL     1       5.604   2.539  11.861  0.00  0.00    +0.000 C 
ATOM     22  H   UNL     1       5.571   3.136  13.896  0.00  0.00    +0.000 HD
ENDBRANCH  17  18
ENDBRANCH  16  17
ENDBRANCH  15  16
ENDBRANCH  14  15
ENDBRANCH  13  14
ENDBRANCH  12  13
ENDBRANCH   1  12
TORSDOF 15
ENDMDL
MODEL 5
REMARK VINA RESULT:      -5.7      6.037      8.613
REMARK  Name = 
REMARK  17 active torsions:
REMARK  status: ('A' for Active; 'I' for Inactive)
REMARK    1  A    between atoms: C_1  and  C_2
REMARK    2  A    between atoms: C_2  and  C_3
REMARK    3  A    between atoms: C_3  and  C_4
REMARK    4  A    between atoms: C_4  and  C_5
REMARK    5  A    between atoms: C_5  and  C_6
REMARK    6  A    between atoms: C_6  and  C_7
REMARK    7  A    between atoms: C_7  and  C_8
REMARK    8  A    between atoms: C_8  and  C_9
REMARK    9  A    between atoms: C_10  and  C_11
REMARK   10  A    between atoms: C_11  and  C_12
REMARK   11  A    between atoms: C_12  and  C_13
REMARK   12  A    between atoms: C_13  and  C_14
REMARK   13  A    between atoms: C_14  and  C_15
REMARK   14  A    between atoms: C_15  and  C_16
REMARK   15  A    between atoms: C_16  and  C_17
REMARK   16  A    between atoms: C_17  and  C_18
REMARK   17  A    between atoms: N_20  and  C_21
REMARK                            x       y       z     vdW  Elec       q    Type
REMARK                         _______ _______ _______ _____ _____    ______ ____
ROOT
ATOM      1  C   UNL     1       7.350   6.669  17.081  0.00  0.00    +0.000 C 
ENDROOT
BRANCH   1   3
ATOM      2  C   UNL     1       5.014   5.935  17.668  0.00  0.00    +0.000 C 
ATOM      3  C   UNL     1       5.850   6.793  17.069  0.00  0.00    +0.000 C 
BRANCH   2   4
ATOM      4  C   UNL     1       5.508   4.756  18.442  0.00  0.00    +0.000 C 
BRANCH   4   5
ATOM      5  C   UNL     1       4.688   3.507  18.185  0.00  0.00    +0.000 C 
BRANCH   5   6
ATOM      6  C   UNL     1       3.725   3.768  17.035  0.00  0.00    +0.000 C 
BRANCH   6   7
ATOM      7  C   UNL     1       2.292   3.558  17.493  0.00  0.00    +0.000 C 
BRANCH   7   8
ATOM      8  C   UNL     1       2.255   2.846  18.838  0.00  0.00    +0.000 C 
BRANCH   8   9
ATOM      9  C   UNL     1       0.881   3.005  19.479  0.00  0.00    +0.000 C 
BRANCH   9  11
ATOM     10  C   UNL     1       2.309   4.566  20.821  0.00  0.00    +0.000 C 
ATOM     11  C   UNL     1       0.892   4.099  20.541  0.00  0.00    +0.000 C 
ENDBRANCH   9  11
ENDBRANCH   8   9
ENDBRANCH   7   8
ENDBRANCH   6   7
ENDBRANCH   5   6
ENDBRANCH   4   5
ENDBRANCH   2   4
ENDBRANCH   1   3
BRANCH   1  12
ATOM     12  C   UNL     1       7.988   7.506  18.183  0.00  0.00    +0.000 C 
BRANCH  12  13
ATOM     13  C   UNL     1       8.055   8.978  17.789  0.00  0.00    +0.000 C 
BRANCH  13  14
ATOM     14  C   UNL     1       8.921   9.760  18.754  0.00  0.00    +0.000 C 
BRANCH  14  15
ATOM     15  C   UNL     1       9.222  11.146  18.192  0.00  0.00    +0.000 C 
BRANCH  15  16
ATOM     16  C   UNL     1      10.526  11.651  18.785  0.00  0.00    +0.000 C 
BRANCH  16  17
ATOM     17  C   UNL     1      11.472  12.203  17.729  0.00  0.00    +0.000 C 
BRANCH  17  18
ATOM     18  C   UNL     1      11.595  13.703  17.878  0.00  0.00    +0.000 C 
ATOM     19  O   UNL     1      12.129  14.245  18.846  0.00  0.00    +0.000 OA
ATOM     20  N   UNL     1      11.054  14.404  16.826  0.00  0.00    +0.000 N 
ATOM     21  C   UNL     1      11.076  15.846  16.788  0.00  0.00    +0.000 C 
ATOM     22  H   UNL     1      10.626  13.906  16.057  0.00  0.00    +0.000 HD
ENDBRANCH  17  18
ENDBRANCH  16  17
ENDBRANCH  15  16
ENDBRANCH  14  15
ENDBRANCH  13  14
ENDBRANCH  12  13
ENDBRANCH   1  12
TORSDOF 15
ENDMDL
MODEL 6
REMARK VINA RESULT:      -5.7      2.644      5.292
REMARK  Name = 
REMARK  17 active torsions:
REMARK  status: ('A' for Active; 'I' for Inactive)
REMARK    1  A    between atoms: C_1  and  C_2
REMARK    2  A    between atoms: C_2  and  C_3
REMARK    3  A    between atoms: C_3  and  C_4
REMARK    4  A    between atoms: C_4  and  C_5
REMARK    5  A    between atoms: C_5  and  C_6
REMARK    6  A    between atoms: C_6  and  C_7
REMARK    7  A    between atoms: C_7  and  C_8
REMARK    8  A    between atoms: C_8  and  C_9
REMARK    9  A    between atoms: C_10  and  C_11
REMARK   10  A    between atoms: C_11  and  C_12
REMARK   11  A    between atoms: C_12  and  C_13
REMARK   12  A    between atoms: C_13  and  C_14
REMARK   13  A    between atoms: C_14  and  C_15
REMARK   14  A    between atoms: C_15  and  C_16
REMARK   15  A    between atoms: C_16  and  C_17
REMARK   16  A    between atoms: C_17  and  C_18
REMARK   17  A    between atoms: N_20  and  C_21
REMARK                            x       y       z     vdW  Elec       q    Type
REMARK                         _______ _______ _______ _____ _____    ______ ____
ROOT
ATOM      1  C   UNL     1       2.900   6.253  19.361  0.00  0.00    +0.000 C 
ENDROOT
BRANCH   1   3
ATOM      2  C   UNL     1       1.722   4.779  21.029  0.00  0.00    +0.000 C 
ATOM      3  C   UNL     1       1.807   5.927  20.345  0.00  0.00    +0.000 C 
BRANCH   2   4
ATOM      4  C   UNL     1       2.741   3.694  20.890  0.00  0.00    +0.000 C 
BRANCH   4   5
ATOM      5  C   UNL     1       2.190   2.466  20.193  0.00  0.00    +0.000 C 
BRANCH   5   6
ATOM      6  C   UNL     1       3.113   2.085  19.045  0.00  0.00    +0.000 C 
BRANCH   6   7
ATOM      7  C   UNL     1       2.374   2.183  17.722  0.00  0.00    +0.000 C 
BRANCH   7   8
ATOM      8  C   UNL     1       2.822   3.415  16.946  0.00  0.00    +0.000 C 
BRANCH   8   9
ATOM      9  C   UNL     1       4.273   3.746  17.278  0.00  0.00    +0.000 C 
BRANCH   9  11
ATOM     10  C   UNL     1       5.882   5.593  16.754  0.00  0.00    +0.000 C 
ATOM     11  C   UNL     1       4.914   4.578  16.173  0.00  0.00    +0.000 C 
ENDBRANCH   9  11
ENDBRANCH   8   9
ENDBRANCH   7   8
ENDBRANCH   6   7
ENDBRANCH   5   6
ENDBRANCH   4   5
ENDBRANCH   2   4
ENDBRANCH   1   3
BRANCH   1  12
ATOM     12  C   UNL     1       2.355   6.875  18.081  0.00  0.00    +0.000 C 
BRANCH  12  13
ATOM     13  C   UNL     1       2.650   8.370  18.027  0.00  0.00    +0.000 C 
BRANCH  13  14
ATOM     14  C   UNL     1       1.369   9.177  18.006  0.00  0.00    +0.000 C 
BRANCH  14  15
ATOM     15  C   UNL     1       1.251  10.018  19.273  0.00  0.00    +0.000 C 
BRANCH  15  16
ATOM     16  C   UNL     1       0.106   9.487  20.116  0.00  0.00    +0.000 C 
BRANCH  16  17
ATOM     17  C   UNL     1       0.564   8.999  21.483  0.00  0.00    +0.000 C 
BRANCH  17  18
ATOM     18  C   UNL     1       0.001   9.893  22.567  0.00  0.00    +0.000 C 
ATOM     19  O   UNL     1       0.297   9.782  23.756  0.00  0.00    +0.000 OA
ATOM     20  N   UNL     1      -0.873  10.843  22.093  0.00  0.00    +0.000 N 
ATOM     21  C   UNL     1      -1.511  11.788  22.975  0.00  0.00    +0.000 C 
ATOM     22  H   UNL     1      -1.080  10.887  21.104  0.00  0.00    +0.000 HD
ENDBRANCH  17  18
ENDBRANCH  16  17
ENDBRANCH  15  16
ENDBRANCH  14  15
ENDBRANCH  13  14
ENDBRANCH  12  13
ENDBRANCH   1  12
TORSDOF 15
ENDMDL
MODEL 7
REMARK VINA RESULT:      -5.6      4.882      7.934
REMARK  Name = 
REMARK  17 active torsions:
REMARK  status: ('A' for Active; 'I' for Inactive)
REMARK    1  A    between atoms: C_1  and  C_2
REMARK    2  A    between atoms: C_2  and  C_3
REMARK    3  A    between atoms: C_3  and  C_4
REMARK    4  A    between atoms: C_4  and  C_5
REMARK    5  A    between atoms: C_5  and  C_6
REMARK    6  A    between atoms: C_6  and  C_7
REMARK    7  A    between atoms: C_7  and  C_8
REMARK    8  A    between atoms: C_8  and  C_9
REMARK    9  A    between atoms: C_10  and  C_11
REMARK   10  A    between atoms: C_11  and  C_12
REMARK   11  A    between atoms: C_12  and  C_13
REMARK   12  A    between atoms: C_13  and  C_14
REMARK   13  A    between atoms: C_14  and  C_15
REMARK   14  A    between atoms: C_15  and  C_16
REMARK   15  A    between atoms: C_16  and  C_17
REMARK   16  A    between atoms: C_17  and  C_18
REMARK   17  A    between atoms: N_20  and  C_21
REMARK                            x       y       z     vdW  Elec       q    Type
REMARK                         _______ _______ _______ _____ _____    ______ ____
ROOT
ATOM      1  C   UNL     1       4.933   5.948  18.239  0.00  0.00    +0.000 C 
ENDROOT
BRANCH   1   3
ATOM      2  C   UNL     1       3.127   4.391  17.431  0.00  0.00    +0.000 C 
ATOM      3  C   UNL     1       3.635   5.624  17.548  0.00  0.00    +0.000 C 
BRANCH   2   4
ATOM      4  C   UNL     1       3.809   3.193  18.009  0.00  0.00    +0.000 C 
BRANCH   4   5
ATOM      5  C   UNL     1       2.929   1.959  17.992  0.00  0.00    +0.000 C 
BRANCH   5   6
ATOM      6  C   UNL     1       1.936   2.037  19.143  0.00  0.00    +0.000 C 
BRANCH   6   7
ATOM      7  C   UNL     1       2.601   2.629  20.372  0.00  0.00    +0.000 C 
BRANCH   7   8
ATOM      8  C   UNL     1       1.691   3.653  21.036  0.00  0.00    +0.000 C 
BRANCH   8   9
ATOM      9  C   UNL     1       2.332   5.035  20.990  0.00  0.00    +0.000 C 
BRANCH   9  11
ATOM     10  C   UNL     1       2.002   7.405  20.247  0.00  0.00    +0.000 C 
ATOM     11  C   UNL     1       1.312   6.103  20.614  0.00  0.00    +0.000 C 
ENDBRANCH   9  11
ENDBRANCH   8   9
ENDBRANCH   7   8
ENDBRANCH   6   7
ENDBRANCH   5   6
ENDBRANCH   4   5
ENDBRANCH   2   4
ENDBRANCH   1   3
BRANCH   1  12
ATOM     12  C   UNL     1       6.038   6.304  17.253  0.00  0.00    +0.000 C 
BRANCH  12  13
ATOM     13  C   UNL     1       7.332   6.660  17.979  0.00  0.00    +0.000 C 
BRANCH  13  14
ATOM     14  C   UNL     1       7.844   8.017  17.543  0.00  0.00    +0.000 C 
BRANCH  14  15
ATOM     15  C   UNL     1       8.607   8.685  18.682  0.00  0.00    +0.000 C 
BRANCH  15  16
ATOM     16  C   UNL     1       8.793  10.157  18.359  0.00  0.00    +0.000 C 
BRANCH  16  17
ATOM     17  C   UNL     1       9.728  10.856  19.336  0.00  0.00    +0.000 C 
BRANCH  17  18
ATOM     18  C   UNL     1      10.819  11.581  18.579  0.00  0.00    +0.000 C 
ATOM     19  O   UNL     1      12.018  11.414  18.795  0.00  0.00    +0.000 OA
ATOM     20  N   UNL     1      10.339  12.445  17.622  0.00  0.00    +0.000 N 
ATOM     21  C   UNL     1      11.227  13.226  16.796  0.00  0.00    +0.000 C 
ATOM     22  H   UNL     1       9.341  12.544  17.488  0.00  0.00    +0.000 HD
ENDBRANCH  17  18
ENDBRANCH  16  17
ENDBRANCH  15  16
ENDBRANCH  14  15
ENDBRANCH  13  14
ENDBRANCH  12  13
ENDBRANCH   1  12
TORSDOF 15
ENDMDL
MODEL 8
REMARK VINA RESULT:      -5.6      3.394      7.379
REMARK  Name = 
REMARK  17 active torsions:
REMARK  status: ('A' for Active; 'I' for Inactive)
REMARK    1  A    between atoms: C_1  and  C_2
REMARK    2  A    between atoms: C_2  and  C_3
REMARK    3  A    between atoms: C_3  and  C_4
REMARK    4  A    between atoms: C_4  and  C_5
REMARK    5  A    between atoms: C_5  and  C_6
REMARK    6  A    between atoms: C_6  and  C_7
REMARK    7  A    between atoms: C_7  and  C_8
REMARK    8  A    between atoms: C_8  and  C_9
REMARK    9  A    between atoms: C_10  and  C_11
REMARK   10  A    between atoms: C_11  and  C_12
REMARK   11  A    between atoms: C_12  and  C_13
REMARK   12  A    between atoms: C_13  and  C_14
REMARK   13  A    between atoms: C_14  and  C_15
REMARK   14  A    between atoms: C_15  and  C_16
REMARK   15  A    between atoms: C_16  and  C_17
REMARK   16  A    between atoms: C_17  and  C_18
REMARK   17  A    between atoms: N_20  and  C_21
REMARK                            x       y       z     vdW  Elec       q    Type
REMARK                         _______ _______ _______ _____ _____    ______ ____
ROOT
ATOM      1  C   UNL     1       1.770   5.774  20.116  0.00  0.00    +0.000 C 
ENDROOT
BRANCH   1   3
ATOM      2  C   UNL     1       2.654   7.291  18.311  0.00  0.00    +0.000 C 
ATOM      3  C   UNL     1       2.582   6.084  18.886  0.00  0.00    +0.000 C 
BRANCH   2   4
ATOM      4  C   UNL     1       1.932   8.478  18.863  0.00  0.00    +0.000 C 
BRANCH   4   5
ATOM      5  C   UNL     1       1.293   9.324  17.780  0.00  0.00    +0.000 C 
BRANCH   5   6
ATOM      6  C   UNL     1       0.099  10.067  18.363  0.00  0.00    +0.000 C 
BRANCH   6   7
ATOM      7  C   UNL     1       0.508  10.812  19.621  0.00  0.00    +0.000 C 
BRANCH   7   8
ATOM      8  C   UNL     1      -0.612  10.782  20.652  0.00  0.00    +0.000 C 
BRANCH   8   9
ATOM      9  C   UNL     1      -0.029  10.759  22.061  0.00  0.00    +0.000 C 
BRANCH   9  11
ATOM     10  C   UNL     1      -0.389   8.291  21.820  0.00  0.00    +0.000 C 
ATOM     11  C   UNL     1       0.494   9.372  22.418  0.00  0.00    +0.000 C 
ENDBRANCH   9  11
ENDBRANCH   8   9
ENDBRANCH   7   8
ENDBRANCH   6   7
ENDBRANCH   5   6
ENDBRANCH   4   5
ENDBRANCH   2   4
ENDBRANCH   1   3
BRANCH   1  12
ATOM     12  C   UNL     1       2.444   4.736  21.005  0.00  0.00    +0.000 C 
BRANCH  12  13
ATOM     13  C   UNL     1       1.611   3.462  21.093  0.00  0.00    +0.000 C 
BRANCH  13  14
ATOM     14  C   UNL     1       0.774   3.271  19.846  0.00  0.00    +0.000 C 
BRANCH  14  15
ATOM     15  C   UNL     1       1.235   2.035  19.081  0.00  0.00    +0.000 C 
BRANCH  15  16
ATOM     16  C   UNL     1       2.143   2.465  17.942  0.00  0.00    +0.000 C 
BRANCH  16  17
ATOM     17  C   UNL     1       3.612   2.190  18.231  0.00  0.00    +0.000 C 
BRANCH  17  18
ATOM     18  C   UNL     1       4.465   3.314  17.685  0.00  0.00    +0.000 C 
ATOM     19  O   UNL     1       4.254   3.859  16.602  0.00  0.00    +0.000 OA
ATOM     20  N   UNL     1       5.500   3.669  18.518  0.00  0.00    +0.000 N 
ATOM     21  C   UNL     1       6.422   4.722  18.170  0.00  0.00    +0.000 C 
ATOM     22  H   UNL     1       5.627   3.185  19.397  0.00  0.00    +0.000 HD
ENDBRANCH  17  18
ENDBRANCH  16  17
ENDBRANCH  15  16
ENDBRANCH  14  15
ENDBRANCH  13  14
ENDBRANCH  12  13
ENDBRANCH   1  12
TORSDOF 15
ENDMDL
MODEL 9
REMARK VINA RESULT:      -5.6      2.314      3.522
REMARK  Name = 
REMARK  17 active torsions:
REMARK  status: ('A' for Active; 'I' for Inactive)
REMARK    1  A    between atoms: C_1  and  C_2
REMARK    2  A    between atoms: C_2  and  C_3
REMARK    3  A    between atoms: C_3  and  C_4
REMARK    4  A    between atoms: C_4  and  C_5
REMARK    5  A    between atoms: C_5  and  C_6
REMARK    6  A    between atoms: C_6  and  C_7
REMARK    7  A    between atoms: C_7  and  C_8
REMARK    8  A    between atoms: C_8  and  C_9
REMARK    9  A    between atoms: C_10  and  C_11
REMARK   10  A    between atoms: C_11  and  C_12
REMARK   11  A    between atoms: C_12  and  C_13
REMARK   12  A    between atoms: C_13  and  C_14
REMARK   13  A    between atoms: C_14  and  C_15
REMARK   14  A    between atoms: C_15  and  C_16
REMARK   15  A    between atoms: C_16  and  C_17
REMARK   16  A    between atoms: C_17  and  C_18
REMARK   17  A    between atoms: N_20  and  C_21
REMARK                            x       y       z     vdW  Elec       q    Type
REMARK                         _______ _______ _______ _____ _____    ______ ____
ROOT
ATOM      1  C   UNL     1       5.547   6.751  17.831  0.00  0.00    +0.000 C 
ENDROOT
BRANCH   1   3
ATOM      2  C   UNL     1       6.663   4.511  18.104  0.00  0.00    +0.000 C 
ATOM      3  C   UNL     1       5.912   5.505  18.594  0.00  0.00    +0.000 C 
BRANCH   2   4
ATOM      4  C   UNL     1       7.240   4.556  16.726  0.00  0.00    +0.000 C 
BRANCH   4   5
ATOM      5  C   UNL     1       6.341   3.898  15.698  0.00  0.00    +0.000 C 
BRANCH   5   6
ATOM      6  C   UNL     1       5.963   4.921  14.636  0.00  0.00    +0.000 C 
BRANCH   6   7
ATOM      7  C   UNL     1       6.956   4.877  13.488  0.00  0.00    +0.000 C 
BRANCH   7   8
ATOM      8  C   UNL     1       6.681   3.683  12.584  0.00  0.00    +0.000 C 
BRANCH   8   9
ATOM      9  C   UNL     1       5.186   3.567  12.306  0.00  0.00    +0.000 C 
BRANCH   9  11
ATOM     10  C   UNL     1       6.036   1.460  11.250  0.00  0.00    +0.000 C 
ATOM     11  C   UNL     1       4.899   2.464  11.293  0.00  0.00    +0.000 C 
ENDBRANCH   9  11
ENDBRANCH   8   9
ENDBRANCH   7   8
ENDBRANCH   6   7
ENDBRANCH   5   6
ENDBRANCH   4   5
ENDBRANCH   2   4
ENDBRANCH   1   3
BRANCH   1  12
ATOM     12  C   UNL     1       4.082   6.762  17.413  0.00  0.00    +0.000 C 
BRANCH  12  13
ATOM     13  C   UNL     1       3.472   5.367  17.507  0.00  0.00    +0.000 C 
BRANCH  13  14
ATOM     14  C   UNL     1       2.133   5.405  18.215  0.00  0.00    +0.000 C 
BRANCH  14  15
ATOM     15  C   UNL     1       2.196   6.344  19.415  0.00  0.00    +0.000 C 
BRANCH  15  16
ATOM     16  C   UNL     1       2.107   5.525  20.691  0.00  0.00    +0.000 C 
BRANCH  16  17
ATOM     17  C   UNL     1       1.528   4.138  20.457  0.00  0.00    +0.000 C 
BRANCH  17  18
ATOM     18  C   UNL     1       2.483   3.085  20.974  0.00  0.00    +0.000 C 
ATOM     19  O   UNL     1       2.316   2.483  22.035  0.00  0.00    +0.000 OA
ATOM     20  N   UNL     1       3.555   2.863  20.143  0.00  0.00    +0.000 N 
ATOM     21  C   UNL     1       4.574   1.894  20.466  0.00  0.00    +0.000 C 
ATOM     22  H   UNL     1       3.643   3.388  19.283  0.00  0.00    +0.000 HD
ENDBRANCH  17  18
ENDBRANCH  16  17
ENDBRANCH  15  16
ENDBRANCH  14  15
ENDBRANCH  13  14
ENDBRANCH  12  13
ENDBRANCH   1  12
TORSDOF 15
ENDMDL
