MODEL 1
REMARK VINA RESULT:      -7.3      0.000      0.000
REMARK  Name = 
REMARK  2 active torsions:
REMARK  status: ('A' for Active; 'I' for Inactive)
REMARK    1  A    between atoms: S_1  and  C_2
REMARK    2  A    between atoms: C_8  and  C_9
REMARK                            x       y       z     vdW  Elec       q    Type
REMARK                         _______ _______ _______ _____ _____    ______ ____
ROOT
ATOM      1  C   UNL     1       3.443   4.932  18.343  0.00  0.00    +0.000 C 
ATOM      2  N   UNL     1       2.664   3.891  18.307  0.00  0.00    +0.000 NA
ATOM      3  N   UNL     1       2.710   3.108  17.207  0.00  0.00    +0.000 N 
ATOM      4  C   UNL     1       3.922   3.042  16.398  0.00  0.00    +0.000 C 
ATOM      5  C   UNL     1       4.626   4.374  16.487  0.00  0.00    +0.000 C 
ATOM      6  N   UNL     1       5.692   4.563  15.588  0.00  0.00    +0.000 N 
ATOM      7  C   UNL     1       6.891   5.223  15.876  0.00  0.00    +0.000 A 
ATOM      8  N   UNL     1       7.694   5.277  14.833  0.00  0.00    +0.000 NA
ATOM      9  C   UNL     1       7.050   4.608  13.837  0.00  0.00    +0.000 A 
ATOM     10  C   UNL     1       7.496   4.361  12.528  0.00  0.00    +0.000 A 
ATOM     11  C   UNL     1       6.663   3.680  11.637  0.00  0.00    +0.000 A 
ATOM     12  C   UNL     1       5.393   3.283  12.035  0.00  0.00    +0.000 A 
ATOM     13  C   UNL     1       4.927   3.540  13.332  0.00  0.00    +0.000 A 
ATOM     14  C   UNL     1       5.793   4.164  14.248  0.00  0.00    +0.000 A 
ATOM     15  N   UNL     1       4.376   5.263  17.399  0.00  0.00    +0.000 NA
ATOM     16  H   UNL     1       2.318   2.181  17.385  0.00  0.00    +0.000 HD
ENDROOT
BRANCH   7  17
ATOM     17  C   UNL     1       7.303   5.703  17.168  0.00  0.00    +0.000 A 
ATOM     18  C   UNL     1       7.587   7.007  17.542  0.00  0.00    +0.000 A 
ATOM     19  C   UNL     1       7.942   6.986  18.914  0.00  0.00    +0.000 A 
ATOM     20  C   UNL     1       7.893   5.669  19.294  0.00  0.00    +0.000 A 
ATOM     21  O   UNL     1       7.539   4.884  18.245  0.00  0.00    +0.000 OA
ENDBRANCH   7  17
BRANCH   1  22
ATOM     22  S   UNL     1       3.294   5.985  19.729  0.00  0.00    +0.000 S 
ATOM     23  H   UNL     1       2.801   5.025  20.521  0.00  0.00    +0.000 HD
ENDBRANCH   1  22
TORSDOF 2
ENDMDL
MODEL 2
REMARK VINA RESULT:      -7.2      2.903      4.882
REMARK  Name = 
REMARK  2 active torsions:
REMARK  status: ('A' for Active; 'I' for Inactive)
REMARK    1  A    between atoms: S_1  and  C_2
REMARK    2  A    between atoms: C_8  and  C_9
REMARK                            x       y       z     vdW  Elec       q    Type
REMARK                         _______ _______ _______ _____ _____    ______ ____
ROOT
ATOM      1  C   UNL     1       1.874   7.966  19.886  0.00  0.00    +0.000 C 
ATOM      2  N   UNL     1       1.554   8.945  19.093  0.00  0.00    +0.000 NA
ATOM      3  N   UNL     1       2.122   8.973  17.867  0.00  0.00    +0.000 N 
ATOM      4  C   UNL     1       2.566   7.739  17.231  0.00  0.00    +0.000 C 
ATOM      5  C   UNL     1       2.992   6.773  18.310  0.00  0.00    +0.000 C 
ATOM      6  N   UNL     1       3.661   5.617  17.867  0.00  0.00    +0.000 N 
ATOM      7  C   UNL     1       3.506   4.335  18.402  0.00  0.00    +0.000 A 
ATOM      8  N   UNL     1       4.284   3.451  17.809  0.00  0.00    +0.000 NA
ATOM      9  C   UNL     1       4.942   4.134  16.833  0.00  0.00    +0.000 A 
ATOM     10  C   UNL     1       5.872   3.639  15.903  0.00  0.00    +0.000 A 
ATOM     11  C   UNL     1       6.468   4.519  14.996  0.00  0.00    +0.000 A 
ATOM     12  C   UNL     1       6.169   5.874  15.040  0.00  0.00    +0.000 A 
ATOM     13  C   UNL     1       5.259   6.385  15.975  0.00  0.00    +0.000 A 
ATOM     14  C   UNL     1       4.608   5.488  16.841  0.00  0.00    +0.000 A 
ATOM     15  N   UNL     1       2.673   6.904  19.562  0.00  0.00    +0.000 NA
ATOM     16  H   UNL     1       1.601   9.571  17.222  0.00  0.00    +0.000 HD
ENDROOT
BRANCH   7  17
ATOM     17  C   UNL     1       2.546   3.943  19.398  0.00  0.00    +0.000 A 
ATOM     18  C   UNL     1       1.199   3.669  19.224  0.00  0.00    +0.000 A 
ATOM     19  C   UNL     1       0.670   3.320  20.491  0.00  0.00    +0.000 A 
ATOM     20  C   UNL     1       1.711   3.437  21.377  0.00  0.00    +0.000 A 
ATOM     21  O   UNL     1       2.837   3.840  20.737  0.00  0.00    +0.000 OA
ENDBRANCH   7  17
BRANCH   1  22
ATOM     22  S   UNL     1       1.206   8.005  21.500  0.00  0.00    +0.000 S 
ATOM     23  H   UNL     1       1.889   9.099  21.856  0.00  0.00    +0.000 HD
ENDBRANCH   1  22
TORSDOF 2
ENDMDL
MODEL 3
REMARK VINA RESULT:      -6.7      6.902      8.721
REMARK  Name = 
REMARK  2 active torsions:
REMARK  status: ('A' for Active; 'I' for Inactive)
REMARK    1  A    between atoms: S_1  and  C_2
REMARK    2  A    between atoms: C_8  and  C_9
REMARK                            x       y       z     vdW  Elec       q    Type
REMARK                         _______ _______ _______ _____ _____    ______ ____
ROOT
ATOM      1  C   UNL     1      -1.086  10.978  22.282  0.00  0.00    +0.000 C 
ATOM      2  N   UNL     1      -0.757  10.473  23.435  0.00  0.00    +0.000 NA
ATOM      3  N   UNL     1       0.097   9.426  23.442  0.00  0.00    +0.000 N 
ATOM      4  C   UNL     1       1.053   9.246  22.356  0.00  0.00    +0.000 C 
ATOM      5  C   UNL     1       0.445   9.799  21.090  0.00  0.00    +0.000 C 
ATOM      6  N   UNL     1       1.136   9.503  19.900  0.00  0.00    +0.000 N 
ATOM      7  C   UNL     1       1.301  10.375  18.819  0.00  0.00    +0.000 A 
ATOM      8  N   UNL     1       1.965   9.818  17.827  0.00  0.00    +0.000 NA
ATOM      9  C   UNL     1       2.290   8.568  18.256  0.00  0.00    +0.000 A 
ATOM     10  C   UNL     1       3.020   7.579  17.576  0.00  0.00    +0.000 A 
ATOM     11  C   UNL     1       3.218   6.336  18.181  0.00  0.00    +0.000 A 
ATOM     12  C   UNL     1       2.665   6.071  19.427  0.00  0.00    +0.000 A 
ATOM     13  C   UNL     1       1.918   7.041  20.108  0.00  0.00    +0.000 A 
ATOM     14  C   UNL     1       1.778   8.315  19.529  0.00  0.00    +0.000 A 
ATOM     15  N   UNL     1      -0.576  10.601  21.071  0.00  0.00    +0.000 NA
ATOM     16  H   UNL     1       0.530   9.298  24.359  0.00  0.00    +0.000 HD
ENDROOT
BRANCH   7  17
ATOM     17  C   UNL     1       0.918  11.761  18.784  0.00  0.00    +0.000 A 
ATOM     18  C   UNL     1       1.644  12.858  19.219  0.00  0.00    +0.000 A 
ATOM     19  C   UNL     1       0.860  14.012  18.972  0.00  0.00    +0.000 A 
ATOM     20  C   UNL     1      -0.318  13.556  18.435  0.00  0.00    +0.000 A 
ATOM     21  O   UNL     1      -0.306  12.202  18.344  0.00  0.00    +0.000 OA
ENDBRANCH   7  17
BRANCH   1  22
ATOM     22  S   UNL     1      -2.269  12.264  22.291  0.00  0.00    +0.000 S 
ATOM     23  H   UNL     1      -1.394  13.197  21.897  0.00  0.00    +0.000 HD
ENDBRANCH   1  22
TORSDOF 2
ENDMDL
MODEL 4
REMARK VINA RESULT:      -6.5      3.362      6.263
REMARK  Name = 
REMARK  2 active torsions:
REMARK  status: ('A' for Active; 'I' for Inactive)
REMARK    1  A    between atoms: S_1  and  C_2
REMARK    2  A    between atoms: C_8  and  C_9
REMARK                            x       y       z     vdW  Elec       q    Type
REMARK                         _______ _______ _______ _____ _____    ______ ____
ROOT
ATOM      1  C   UNL     1       3.470   3.017  20.513  0.00  0.00    +0.000 C 
ATOM      2  N   UNL     1       2.420   2.598  21.155  0.00  0.00    +0.000 NA
ATOM      3  N   UNL     1       1.428   3.486  21.387  0.00  0.00    +0.000 N 
ATOM      4  C   UNL     1       1.237   4.627  20.500  0.00  0.00    +0.000 C 
ATOM      5  C   UNL     1       2.581   5.026  19.940  0.00  0.00    +0.000 C 
ATOM      6  N   UNL     1       2.616   6.248  19.244  0.00  0.00    +0.000 N 
ATOM      7  C   UNL     1       3.360   6.504  18.088  0.00  0.00    +0.000 A 
ATOM      8  N   UNL     1       3.224   7.747  17.672  0.00  0.00    +0.000 NA
ATOM      9  C   UNL     1       2.344   8.329  18.533  0.00  0.00    +0.000 A 
ATOM     10  C   UNL     1       1.847   9.643  18.509  0.00  0.00    +0.000 A 
ATOM     11  C   UNL     1       0.970  10.062  19.512  0.00  0.00    +0.000 A 
ATOM     12  C   UNL     1       0.622   9.197  20.540  0.00  0.00    +0.000 A 
ATOM     13  C   UNL     1       1.125   7.890  20.588  0.00  0.00    +0.000 A 
ATOM     14  C   UNL     1       1.953   7.447  19.540  0.00  0.00    +0.000 A 
ATOM     15  N   UNL     1       3.630   4.262  19.971  0.00  0.00    +0.000 NA
ATOM     16  H   UNL     1       0.546   3.020  21.608  0.00  0.00    +0.000 HD
ENDROOT
BRANCH   7  17
ATOM     17  C   UNL     1       4.110   5.536  17.333  0.00  0.00    +0.000 A 
ATOM     18  C   UNL     1       5.412   5.638  16.872  0.00  0.00    +0.000 A 
ATOM     19  C   UNL     1       5.715   4.434  16.188  0.00  0.00    +0.000 A 
ATOM     20  C   UNL     1       4.570   3.680  16.233  0.00  0.00    +0.000 A 
ATOM     21  O   UNL     1       3.589   4.344  16.894  0.00  0.00    +0.000 OA
ENDBRANCH   7  17
BRANCH   1  22
ATOM     22  S   UNL     1       4.781   1.879  20.313  0.00  0.00    +0.000 S 
ATOM     23  H   UNL     1       5.436   2.646  19.434  0.00  0.00    +0.000 HD
ENDBRANCH   1  22
TORSDOF 2
ENDMDL
MODEL 5
REMARK VINA RESULT:      -6.5      3.870      7.041
REMARK  Name = 
REMARK  2 active torsions:
REMARK  status: ('A' for Active; 'I' for Inactive)
REMARK    1  A    between atoms: S_1  and  C_2
REMARK    2  A    between atoms: C_8  and  C_9
REMARK                            x       y       z     vdW  Elec       q    Type
REMARK                         _______ _______ _______ _____ _____    ______ ____
ROOT
ATOM      1  C   UNL     1       3.607   3.915  17.193  0.00  0.00    +0.000 C 
ATOM      2  N   UNL     1       4.655   4.337  16.549  0.00  0.00    +0.000 NA
ATOM      3  N   UNL     1       4.864   5.671  16.492  0.00  0.00    +0.000 N 
ATOM      4  C   UNL     1       4.349   6.544  17.540  0.00  0.00    +0.000 C 
ATOM      5  C   UNL     1       3.080   5.935  18.086  0.00  0.00    +0.000 C 
ATOM      6  N   UNL     1       2.328   6.758  18.946  0.00  0.00    +0.000 N 
ATOM      7  C   UNL     1       1.647   6.329  20.089  0.00  0.00    +0.000 A 
ATOM      8  N   UNL     1       1.001   7.312  20.683  0.00  0.00    +0.000 NA
ATOM      9  C   UNL     1       1.281   8.429  19.957  0.00  0.00    +0.000 A 
ATOM     10  C   UNL     1       0.852   9.746  20.190  0.00  0.00    +0.000 A 
ATOM     11  C   UNL     1       1.225  10.756  19.299  0.00  0.00    +0.000 A 
ATOM     12  C   UNL     1       1.982  10.450  18.176  0.00  0.00    +0.000 A 
ATOM     13  C   UNL     1       2.401   9.137  17.920  0.00  0.00    +0.000 A 
ATOM     14  C   UNL     1       2.084   8.135  18.854  0.00  0.00    +0.000 A 
ATOM     15  N   UNL     1       2.735   4.698  17.898  0.00  0.00    +0.000 NA
ATOM     16  H   UNL     1       5.832   5.893  16.250  0.00  0.00    +0.000 HD
ENDROOT
BRANCH   7  17
ATOM     17  C   UNL     1       1.703   5.011  20.664  0.00  0.00    +0.000 A 
ATOM     18  C   UNL     1       0.842   3.948  20.445  0.00  0.00    +0.000 A 
ATOM     19  C   UNL     1       1.305   2.860  21.224  0.00  0.00    +0.000 A 
ATOM     20  C   UNL     1       2.401   3.326  21.906  0.00  0.00    +0.000 A 
ATOM     21  O   UNL     1       2.632   4.628  21.600  0.00  0.00    +0.000 OA
ENDBRANCH   7  17
BRANCH   1  22
ATOM     22  S   UNL     1       3.302   2.195  17.168  0.00  0.00    +0.000 S 
ATOM     23  H   UNL     1       2.967   2.142  18.463  0.00  0.00    +0.000 HD
ENDBRANCH   1  22
TORSDOF 2
ENDMDL
MODEL 6
REMARK VINA RESULT:      -5.6      3.178      6.650
REMARK  Name = 
REMARK  2 active torsions:
REMARK  status: ('A' for Active; 'I' for Inactive)
REMARK    1  A    between atoms: S_1  and  C_2
REMARK    2  A    between atoms: C_8  and  C_9
REMARK                            x       y       z     vdW  Elec       q    Type
REMARK                         _______ _______ _______ _____ _____    ______ ____
ROOT
ATOM      1  C   UNL     1       5.241   4.922  15.918  0.00  0.00    +0.000 C 
ATOM      2  N   UNL     1       6.038   5.901  15.606  0.00  0.00    +0.000 NA
ATOM      3  N   UNL     1       5.774   7.119  16.130  0.00  0.00    +0.000 N 
ATOM      4  C   UNL     1       5.060   7.238  17.396  0.00  0.00    +0.000 C 
ATOM      5  C   UNL     1       4.114   6.069  17.522  0.00  0.00    +0.000 C 
ATOM      6  N   UNL     1       3.183   6.145  18.574  0.00  0.00    +0.000 N 
ATOM      7  C   UNL     1       2.765   5.073  19.368  0.00  0.00    +0.000 A 
ATOM      8  N   UNL     1       1.862   5.433  20.257  0.00  0.00    +0.000 NA
ATOM      9  C   UNL     1       1.696   6.774  20.092  0.00  0.00    +0.000 A 
ATOM     10  C   UNL     1       0.858   7.641  20.813  0.00  0.00    +0.000 A 
ATOM     11  C   UNL     1       0.804   8.992  20.462  0.00  0.00    +0.000 A 
ATOM     12  C   UNL     1       1.546   9.463  19.387  0.00  0.00    +0.000 A 
ATOM     13  C   UNL     1       2.371   8.606  18.646  0.00  0.00    +0.000 A 
ATOM     14  C   UNL     1       2.477   7.261  19.044  0.00  0.00    +0.000 A 
ATOM     15  N   UNL     1       4.201   4.990  16.804  0.00  0.00    +0.000 NA
ATOM     16  H   UNL     1       6.589   7.733  16.091  0.00  0.00    +0.000 HD
ENDROOT
BRANCH   7  17
ATOM     17  C   UNL     1       3.306   3.740  19.343  0.00  0.00    +0.000 A 
ATOM     18  C   UNL     1       2.761   2.610  18.755  0.00  0.00    +0.000 A 
ATOM     19  C   UNL     1       3.658   1.537  18.987  0.00  0.00    +0.000 A 
ATOM     20  C   UNL     1       4.681   2.060  19.736  0.00  0.00    +0.000 A 
ATOM     21  O   UNL     1       4.466   3.377  19.982  0.00  0.00    +0.000 OA
ENDBRANCH   7  17
BRANCH   1  22
ATOM     22  S   UNL     1       5.542   3.381  15.150  0.00  0.00    +0.000 S 
ATOM     23  H   UNL     1       4.289   2.945  15.326  0.00  0.00    +0.000 HD
ENDBRANCH   1  22
TORSDOF 2
ENDMDL
MODEL 7
REMARK VINA RESULT:      -5.6     11.531     14.217
REMARK  Name = 
REMARK  2 active torsions:
REMARK  status: ('A' for Active; 'I' for Inactive)
REMARK    1  A    between atoms: S_1  and  C_2
REMARK    2  A    between atoms: C_8  and  C_9
REMARK                            x       y       z     vdW  Elec       q    Type
REMARK                         _______ _______ _______ _____ _____    ______ ____
ROOT
ATOM      1  C   UNL     1      -4.042  11.322  17.188  0.00  0.00    +0.000 C 
ATOM      2  N   UNL     1      -5.041  11.713  16.453  0.00  0.00    +0.000 NA
ATOM      3  N   UNL     1      -6.139  12.186  17.083  0.00  0.00    +0.000 N 
ATOM      4  C   UNL     1      -6.028  12.790  18.404  0.00  0.00    +0.000 C 
ATOM      5  C   UNL     1      -4.883  12.132  19.135  0.00  0.00    +0.000 C 
ATOM      6  N   UNL     1      -4.778  12.434  20.506  0.00  0.00    +0.000 N 
ATOM      7  C   UNL     1      -3.583  12.630  21.204  0.00  0.00    +0.000 A 
ATOM      8  N   UNL     1      -3.787  12.868  22.484  0.00  0.00    +0.000 NA
ATOM      9  C   UNL     1      -5.139  12.874  22.647  0.00  0.00    +0.000 A 
ATOM     10  C   UNL     1      -5.870  13.106  23.824  0.00  0.00    +0.000 A 
ATOM     11  C   UNL     1      -7.265  13.034  23.789  0.00  0.00    +0.000 A 
ATOM     12  C   UNL     1      -7.916  12.700  22.610  0.00  0.00    +0.000 A 
ATOM     13  C   UNL     1      -7.199  12.446  21.433  0.00  0.00    +0.000 A 
ATOM     14  C   UNL     1      -5.800  12.588  21.453  0.00  0.00    +0.000 A 
ATOM     15  N   UNL     1      -3.964  11.426  18.549  0.00  0.00    +0.000 NA
ATOM     16  H   UNL     1      -6.726  12.739  16.456  0.00  0.00    +0.000 HD
ENDROOT
BRANCH   7  17
ATOM     17  C   UNL     1      -2.266  12.693  20.629  0.00  0.00    +0.000 A 
ATOM     18  C   UNL     1      -1.246  11.762  20.730  0.00  0.00    +0.000 A 
ATOM     19  C   UNL     1      -0.143  12.259  19.991  0.00  0.00    +0.000 A 
ATOM     20  C   UNL     1      -0.536  13.483  19.511  0.00  0.00    +0.000 A 
ATOM     21  O   UNL     1      -1.800  13.768  19.912  0.00  0.00    +0.000 OA
ENDBRANCH   7  17
BRANCH   1  22
ATOM     22  S   UNL     1      -2.674  10.621  16.357  0.00  0.00    +0.000 S 
ATOM     23  H   UNL     1      -3.331   9.502  16.026  0.00  0.00    +0.000 HD
ENDBRANCH   1  22
TORSDOF 2
ENDMDL
MODEL 8
REMARK VINA RESULT:      -5.6      9.030     12.063
REMARK  Name = 
REMARK  2 active torsions:
REMARK  status: ('A' for Active; 'I' for Inactive)
REMARK    1  A    between atoms: S_1  and  C_2
REMARK    2  A    between atoms: C_8  and  C_9
REMARK                            x       y       z     vdW  Elec       q    Type
REMARK                         _______ _______ _______ _____ _____    ______ ____
ROOT
ATOM      1  C   UNL     1       1.045   9.390  19.383  0.00  0.00    +0.000 C 
ATOM      2  N   UNL     1       1.458   8.717  20.416  0.00  0.00    +0.000 NA
ATOM      3  N   UNL     1       1.044   9.122  21.638  0.00  0.00    +0.000 N 
ATOM      4  C   UNL     1      -0.217   9.838  21.789  0.00  0.00    +0.000 C 
ATOM      5  C   UNL     1      -0.465  10.637  20.532  0.00  0.00    +0.000 C 
ATOM      6  N   UNL     1      -1.520  11.566  20.596  0.00  0.00    +0.000 N 
ATOM      7  C   UNL     1      -2.416  11.849  19.560  0.00  0.00    +0.000 A 
ATOM      8  N   UNL     1      -3.282  12.785  19.892  0.00  0.00    +0.000 NA
ATOM      9  C   UNL     1      -2.997  13.110  21.183  0.00  0.00    +0.000 A 
ATOM     10  C   UNL     1      -3.650  14.042  22.008  0.00  0.00    +0.000 A 
ATOM     11  C   UNL     1      -3.177  14.257  23.304  0.00  0.00    +0.000 A 
ATOM     12  C   UNL     1      -2.052  13.582  23.758  0.00  0.00    +0.000 A 
ATOM     13  C   UNL     1      -1.379  12.665  22.940  0.00  0.00    +0.000 A 
ATOM     14  C   UNL     1      -1.897  12.397  21.660  0.00  0.00    +0.000 A 
ATOM     15  N   UNL     1       0.153  10.426  19.410  0.00  0.00    +0.000 NA
ATOM     16  H   UNL     1       1.152   8.385  22.337  0.00  0.00    +0.000 HD
ENDROOT
BRANCH   7  17
ATOM     17  C   UNL     1      -2.504  11.154  18.304  0.00  0.00    +0.000 A 
ATOM     18  C   UNL     1      -2.999   9.882  18.066  0.00  0.00    +0.000 A 
ATOM     19  C   UNL     1      -2.886   9.635  16.676  0.00  0.00    +0.000 A 
ATOM     20  C   UNL     1      -2.293  10.753  16.144  0.00  0.00    +0.000 A 
ATOM     21  O   UNL     1      -2.032  11.661  17.118  0.00  0.00    +0.000 OA
ENDBRANCH   7  17
BRANCH   1  22
ATOM     22  S   UNL     1       1.673   8.911  17.824  0.00  0.00    +0.000 S 
ATOM     23  H   UNL     1       0.516   8.373  17.420  0.00  0.00    +0.000 HD
ENDBRANCH   1  22
TORSDOF 2
ENDMDL
MODEL 9
REMARK VINA RESULT:      -5.5      8.541     10.621
REMARK  Name = 
REMARK  2 active torsions:
REMARK  status: ('A' for Active; 'I' for Inactive)
REMARK    1  A    between atoms: S_1  and  C_2
REMARK    2  A    between atoms: C_8  and  C_9
REMARK                            x       y       z     vdW  Elec       q    Type
REMARK                         _______ _______ _______ _____ _____    ______ ____
ROOT
ATOM      1  C   UNL     1       0.924   9.287  20.993  0.00  0.00    +0.000 C 
ATOM      2  N   UNL     1       1.845   8.862  20.180  0.00  0.00    +0.000 NA
ATOM      3  N   UNL     1       1.560   8.845  18.858  0.00  0.00    +0.000 N 
ATOM      4  C   UNL     1       0.578   9.769  18.304  0.00  0.00    +0.000 C 
ATOM      5  C   UNL     1      -0.458  10.055  19.363  0.00  0.00    +0.000 C 
ATOM      6  N   UNL     1      -1.604  10.748  18.928  0.00  0.00    +0.000 N 
ATOM      7  C   UNL     1      -2.279  11.735  19.651  0.00  0.00    +0.000 A 
ATOM      8  N   UNL     1      -3.337  12.188  19.008  0.00  0.00    +0.000 NA
ATOM      9  C   UNL     1      -3.354  11.529  17.817  0.00  0.00    +0.000 A 
ATOM     10  C   UNL     1      -4.270  11.671  16.760  0.00  0.00    +0.000 A 
ATOM     11  C   UNL     1      -4.133  10.869  15.624  0.00  0.00    +0.000 A 
ATOM     12  C   UNL     1      -3.124   9.918  15.559  0.00  0.00    +0.000 A 
ATOM     13  C   UNL     1      -2.216   9.752  16.613  0.00  0.00    +0.000 A 
ATOM     14  C   UNL     1      -2.311  10.607  17.726  0.00  0.00    +0.000 A 
ATOM     15  N   UNL     1      -0.288   9.805  20.626  0.00  0.00    +0.000 NA
ATOM     16  H   UNL     1       2.407   8.798  18.289  0.00  0.00    +0.000 HD
ENDROOT
BRANCH   7  17
ATOM     17  C   UNL     1      -1.853  12.312  20.898  0.00  0.00    +0.000 A 
ATOM     18  C   UNL     1      -2.458  12.201  22.139  0.00  0.00    +0.000 A 
ATOM     19  C   UNL     1      -1.670  12.933  23.062  0.00  0.00    +0.000 A 
ATOM     20  C   UNL     1      -0.650  13.484  22.328  0.00  0.00    +0.000 A 
ATOM     21  O   UNL     1      -0.765  13.142  21.021  0.00  0.00    +0.000 OA
ENDBRANCH   7  17
BRANCH   1  22
ATOM     22  S   UNL     1       1.278   9.205  22.702  0.00  0.00    +0.000 S 
ATOM     23  H   UNL     1       1.816  10.430  22.743  0.00  0.00    +0.000 HD
ENDBRANCH   1  22
TORSDOF 2
ENDMDL
