MODEL 1
REMARK VINA RESULT:      -7.3      0.000      0.000
REMARK  Name = 
REMARK  6 active torsions:
REMARK  status: ('A' for Active; 'I' for Inactive)
REMARK    1  A    between atoms: C_2  and  C_3
REMARK    2  A    between atoms: C_2  and  C_17
REMARK    3  A    between atoms: C_3  and  C_4
REMARK    4  A    between atoms: C_4  and  C_5
REMARK    5  A    between atoms: C_4  and  C_12
REMARK    6  A    between atoms: C_5  and  C_7
REMARK                            x       y       z     vdW  Elec       q    Type
REMARK                         _______ _______ _______ _____ _____    ______ ____
ROOT
ATOM      1  C   UNL     1       4.051   4.951  17.900  0.00  0.00    +0.000 C 
ENDROOT
BRANCH   1   2
ATOM      2  C   UNL     1       3.268   6.184  18.314  0.00  0.00    +0.000 A 
ATOM      3  C   UNL     1       2.664   6.401  19.600  0.00  0.00    +0.000 A 
ATOM      4  C   UNL     1       2.044   7.628  19.697  0.00  0.00    +0.000 A 
ATOM      5  S   UNL     1       2.153   8.518  18.245  0.00  0.00    +0.000 S 
ATOM      6  C   UNL     1       3.035   7.268  17.484  0.00  0.00    +0.000 A 
ENDBRANCH   1   2
BRANCH   1   7
ATOM      7  C   UNL     1       5.167   5.322  16.914  0.00  0.00    +0.000 C 
ATOM      8  O   UNL     1       5.107   4.964  15.734  0.00  0.00    +0.000 OA
BRANCH   7   9
ATOM      9  C   UNL     1       6.286   6.086  17.430  0.00  0.00    +0.000 A 
ATOM     10  C   UNL     1       7.147   5.828  18.482  0.00  0.00    +0.000 A 
ATOM     11  C   UNL     1       8.045   6.920  18.553  0.00  0.00    +0.000 A 
ATOM     12  C   UNL     1       7.687   7.773  17.537  0.00  0.00    +0.000 A 
ATOM     13  O   UNL     1       6.622   7.280  16.854  0.00  0.00    +0.000 OA
ENDBRANCH   7   9
ENDBRANCH   1   7
BRANCH   1  14
ATOM     14  C   UNL     1       3.140   3.873  17.282  0.00  0.00    +0.000 C 
BRANCH  14  16
ATOM     15  O   UNL     1       3.653   1.587  17.751  0.00  0.00    +0.000 OA
ATOM     16  C   UNL     1       3.124   2.625  18.151  0.00  0.00    +0.000 C 
BRANCH  16  17
ATOM     17  C   UNL     1       2.513   2.720  19.462  0.00  0.00    +0.000 A 
ATOM     18  C   UNL     1       1.187   2.878  19.823  0.00  0.00    +0.000 A 
ATOM     19  C   UNL     1       1.150   2.938  21.236  0.00  0.00    +0.000 A 
ATOM     20  C   UNL     1       2.454   2.812  21.655  0.00  0.00    +0.000 A 
ATOM     21  O   UNL     1       3.286   2.666  20.590  0.00  0.00    +0.000 OA
ENDBRANCH  16  17
ENDBRANCH  14  16
ENDBRANCH   1  14
TORSDOF 6
ENDMDL
MODEL 2
REMARK VINA RESULT:      -7.1      0.862      1.247
REMARK  Name = 
REMARK  6 active torsions:
REMARK  status: ('A' for Active; 'I' for Inactive)
REMARK    1  A    between atoms: C_2  and  C_3
REMARK    2  A    between atoms: C_2  and  C_17
REMARK    3  A    between atoms: C_3  and  C_4
REMARK    4  A    between atoms: C_4  and  C_5
REMARK    5  A    between atoms: C_4  and  C_12
REMARK    6  A    between atoms: C_5  and  C_7
REMARK                            x       y       z     vdW  Elec       q    Type
REMARK                         _______ _______ _______ _____ _____    ______ ____
ROOT
ATOM      1  C   UNL     1       3.956   5.027  18.062  0.00  0.00    +0.000 C 
ENDROOT
BRANCH   1   2
ATOM      2  C   UNL     1       3.186   6.257  18.510  0.00  0.00    +0.000 A 
ATOM      3  C   UNL     1       2.967   7.441  17.726  0.00  0.00    +0.000 A 
ATOM      4  C   UNL     1       2.205   8.382  18.384  0.00  0.00    +0.000 A 
ATOM      5  S   UNL     1       1.771   7.872  19.954  0.00  0.00    +0.000 S 
ATOM      6  C   UNL     1       2.595   6.388  19.756  0.00  0.00    +0.000 A 
ENDBRANCH   1   2
BRANCH   1   7
ATOM      7  C   UNL     1       5.097   5.418  17.113  0.00  0.00    +0.000 C 
ATOM      8  O   UNL     1       5.000   5.216  15.899  0.00  0.00    +0.000 OA
BRANCH   7   9
ATOM      9  C   UNL     1       6.282   6.010  17.701  0.00  0.00    +0.000 A 
ATOM     10  C   UNL     1       6.964   7.171  17.384  0.00  0.00    +0.000 A 
ATOM     11  C   UNL     1       8.062   7.256  18.273  0.00  0.00    +0.000 A 
ATOM     12  C   UNL     1       7.981   6.150  19.086  0.00  0.00    +0.000 A 
ATOM     13  O   UNL     1       6.910   5.388  18.746  0.00  0.00    +0.000 OA
ENDBRANCH   7   9
ENDBRANCH   1   7
BRANCH   1  14
ATOM     14  C   UNL     1       3.040   3.991  17.385  0.00  0.00    +0.000 C 
BRANCH  14  16
ATOM     15  O   UNL     1       3.496   1.667  17.707  0.00  0.00    +0.000 OA
ATOM     16  C   UNL     1       3.016   2.697  18.184  0.00  0.00    +0.000 C 
BRANCH  16  17
ATOM     17  C   UNL     1       2.459   2.736  19.521  0.00  0.00    +0.000 A 
ATOM     18  C   UNL     1       1.151   2.893  19.942  0.00  0.00    +0.000 A 
ATOM     19  C   UNL     1       1.171   2.884  21.356  0.00  0.00    +0.000 A 
ATOM     20  C   UNL     1       2.487   2.720  21.717  0.00  0.00    +0.000 A 
ATOM     21  O   UNL     1       3.274   2.616  20.614  0.00  0.00    +0.000 OA
ENDBRANCH  16  17
ENDBRANCH  14  16
ENDBRANCH   1  14
TORSDOF 6
ENDMDL
MODEL 3
REMARK VINA RESULT:      -7.0      0.762      1.204
REMARK  Name = 
REMARK  6 active torsions:
REMARK  status: ('A' for Active; 'I' for Inactive)
REMARK    1  A    between atoms: C_2  and  C_3
REMARK    2  A    between atoms: C_2  and  C_17
REMARK    3  A    between atoms: C_3  and  C_4
REMARK    4  A    between atoms: C_4  and  C_5
REMARK    5  A    between atoms: C_4  and  C_12
REMARK    6  A    between atoms: C_5  and  C_7
REMARK                            x       y       z     vdW  Elec       q    Type
REMARK                         _______ _______ _______ _____ _____    ______ ____
ROOT
ATOM      1  C   UNL     1       4.045   5.074  17.942  0.00  0.00    +0.000 C 
ENDROOT
BRANCH   1   2
ATOM      2  C   UNL     1       3.270   6.301  18.387  0.00  0.00    +0.000 A 
ATOM      3  C   UNL     1       3.092   7.505  17.622  0.00  0.00    +0.000 A 
ATOM      4  C   UNL     1       2.314   8.439  18.270  0.00  0.00    +0.000 A 
ATOM      5  S   UNL     1       1.813   7.899  19.810  0.00  0.00    +0.000 S 
ATOM      6  C   UNL     1       2.631   6.411  19.611  0.00  0.00    +0.000 A 
ENDBRANCH   1   2
BRANCH   1   7
ATOM      7  C   UNL     1       5.142   5.459  16.940  0.00  0.00    +0.000 C 
ATOM      8  O   UNL     1       5.048   5.136  15.752  0.00  0.00    +0.000 OA
BRANCH   7   9
ATOM      9  C   UNL     1       6.283   6.194  17.449  0.00  0.00    +0.000 A 
ATOM     10  C   UNL     1       7.159   5.901  18.479  0.00  0.00    +0.000 A 
ATOM     11  C   UNL     1       8.076   6.976  18.554  0.00  0.00    +0.000 A 
ATOM     12  C   UNL     1       7.715   7.855  17.561  0.00  0.00    +0.000 A 
ATOM     13  O   UNL     1       6.630   7.393  16.889  0.00  0.00    +0.000 OA
ENDBRANCH   7   9
ENDBRANCH   1   7
BRANCH   1  14
ATOM     14  C   UNL     1       3.123   4.004  17.328  0.00  0.00    +0.000 C 
BRANCH  14  16
ATOM     15  O   UNL     1       3.645   1.702  17.703  0.00  0.00    +0.000 OA
ATOM     16  C   UNL     1       3.151   2.732  18.163  0.00  0.00    +0.000 C 
BRANCH  16  17
ATOM     17  C   UNL     1       2.625   2.795  19.512  0.00  0.00    +0.000 A 
ATOM     18  C   UNL     1       3.269   2.675  20.730  0.00  0.00    +0.000 A 
ATOM     19  C   UNL     1       2.277   2.788  21.732  0.00  0.00    +0.000 A 
ATOM     20  C   UNL     1       1.087   2.973  21.068  0.00  0.00    +0.000 A 
ATOM     21  O   UNL     1       1.288   2.992  19.724  0.00  0.00    +0.000 OA
ENDBRANCH  16  17
ENDBRANCH  14  16
ENDBRANCH   1  14
TORSDOF 6
ENDMDL
MODEL 4
REMARK VINA RESULT:      -7.0      1.978      5.549
REMARK  Name = 
REMARK  6 active torsions:
REMARK  status: ('A' for Active; 'I' for Inactive)
REMARK    1  A    between atoms: C_2  and  C_3
REMARK    2  A    between atoms: C_2  and  C_17
REMARK    3  A    between atoms: C_3  and  C_4
REMARK    4  A    between atoms: C_4  and  C_5
REMARK    5  A    between atoms: C_4  and  C_12
REMARK    6  A    between atoms: C_5  and  C_7
REMARK                            x       y       z     vdW  Elec       q    Type
REMARK                         _______ _______ _______ _____ _____    ______ ____
ROOT
ATOM      1  C   UNL     1       4.882   5.163  17.934  0.00  0.00    +0.000 C 
ENDROOT
BRANCH   1   2
ATOM      2  C   UNL     1       3.891   6.275  18.232  0.00  0.00    +0.000 A 
ATOM      3  C   UNL     1       3.616   7.403  17.385  0.00  0.00    +0.000 A 
ATOM      4  C   UNL     1       2.646   8.233  17.901  0.00  0.00    +0.000 A 
ATOM      5  S   UNL     1       2.076   7.690  19.415  0.00  0.00    +0.000 S 
ATOM      6  C   UNL     1       3.121   6.338  19.381  0.00  0.00    +0.000 A 
ENDBRANCH   1   2
BRANCH   1   7
ATOM      7  C   UNL     1       4.692   3.992  18.907  0.00  0.00    +0.000 C 
ATOM      8  O   UNL     1       5.585   3.687  19.704  0.00  0.00    +0.000 OA
BRANCH   7   9
ATOM      9  C   UNL     1       3.442   3.261  18.838  0.00  0.00    +0.000 A 
ATOM     10  C   UNL     1       2.704   2.837  17.747  0.00  0.00    +0.000 A 
ATOM     11  C   UNL     1       1.557   2.184  18.259  0.00  0.00    +0.000 A 
ATOM     12  C   UNL     1       1.667   2.238  19.627  0.00  0.00    +0.000 A 
ATOM     13  O   UNL     1       2.801   2.891  19.988  0.00  0.00    +0.000 OA
ENDBRANCH   7   9
ENDBRANCH   1   7
BRANCH   1  14
ATOM     14  C   UNL     1       6.338   5.662  17.988  0.00  0.00    +0.000 C 
BRANCH  14  16
ATOM     15  O   UNL     1       8.185   4.172  17.704  0.00  0.00    +0.000 OA
ATOM     16  C   UNL     1       7.243   4.756  17.167  0.00  0.00    +0.000 C 
BRANCH  16  17
ATOM     17  C   UNL     1       6.929   4.577  15.763  0.00  0.00    +0.000 A 
ATOM     18  C   UNL     1       6.011   3.743  15.151  0.00  0.00    +0.000 A 
ATOM     19  C   UNL     1       6.136   3.948  13.757  0.00  0.00    +0.000 A 
ATOM     20  C   UNL     1       7.120   4.895  13.599  0.00  0.00    +0.000 A 
ATOM     21  O   UNL     1       7.598   5.292  14.808  0.00  0.00    +0.000 OA
ENDBRANCH  16  17
ENDBRANCH  14  16
ENDBRANCH   1  14
TORSDOF 6
ENDMDL
MODEL 5
REMARK VINA RESULT:      -6.9      1.760      5.117
REMARK  Name = 
REMARK  6 active torsions:
REMARK  status: ('A' for Active; 'I' for Inactive)
REMARK    1  A    between atoms: C_2  and  C_3
REMARK    2  A    between atoms: C_2  and  C_17
REMARK    3  A    between atoms: C_3  and  C_4
REMARK    4  A    between atoms: C_4  and  C_5
REMARK    5  A    between atoms: C_4  and  C_12
REMARK    6  A    between atoms: C_5  and  C_7
REMARK                            x       y       z     vdW  Elec       q    Type
REMARK                         _______ _______ _______ _____ _____    ______ ____
ROOT
ATOM      1  C   UNL     1       3.145   5.805  18.384  0.00  0.00    +0.000 C 
ENDROOT
BRANCH   1   2
ATOM      2  C   UNL     1       2.491   7.158  18.599  0.00  0.00    +0.000 A 
ATOM      3  C   UNL     1       2.336   8.183  17.603  0.00  0.00    +0.000 A 
ATOM      4  C   UNL     1       1.676   9.294  18.080  0.00  0.00    +0.000 A 
ATOM      5  S   UNL     1       1.262   9.136  19.728  0.00  0.00    +0.000 S 
ATOM      6  C   UNL     1       1.959   7.578  19.807  0.00  0.00    +0.000 A 
ENDBRANCH   1   2
BRANCH   1   7
ATOM      7  C   UNL     1       2.095   4.685  18.406  0.00  0.00    +0.000 C 
ATOM      8  O   UNL     1       1.371   4.485  17.426  0.00  0.00    +0.000 OA
BRANCH   7   9
ATOM      9  C   UNL     1       1.984   3.898  19.618  0.00  0.00    +0.000 A 
ATOM     10  C   UNL     1       1.076   3.966  20.659  0.00  0.00    +0.000 A 
ATOM     11  C   UNL     1       1.448   2.968  21.592  0.00  0.00    +0.000 A 
ATOM     12  C   UNL     1       2.551   2.343  21.061  0.00  0.00    +0.000 A 
ATOM     13  O   UNL     1       2.885   2.900  19.869  0.00  0.00    +0.000 OA
ENDBRANCH   7   9
ENDBRANCH   1   7
BRANCH   1  14
ATOM     14  C   UNL     1       4.238   5.522  19.431  0.00  0.00    +0.000 C 
BRANCH  14  16
ATOM     15  O   UNL     1       6.527   4.836  19.427  0.00  0.00    +0.000 OA
ATOM     16  C   UNL     1       5.543   5.137  18.751  0.00  0.00    +0.000 C 
BRANCH  16  17
ATOM     17  C   UNL     1       5.565   5.096  17.302  0.00  0.00    +0.000 A 
ATOM     18  C   UNL     1       5.722   6.114  16.380  0.00  0.00    +0.000 A 
ATOM     19  C   UNL     1       5.638   5.524  15.097  0.00  0.00    +0.000 A 
ATOM     20  C   UNL     1       5.436   4.181  15.311  0.00  0.00    +0.000 A 
ATOM     21  O   UNL     1       5.403   3.909  16.642  0.00  0.00    +0.000 OA
ENDBRANCH  16  17
ENDBRANCH  14  16
ENDBRANCH   1  14
TORSDOF 6
ENDMDL
MODEL 6
REMARK VINA RESULT:      -6.8      1.063      1.350
REMARK  Name = 
REMARK  6 active torsions:
REMARK  status: ('A' for Active; 'I' for Inactive)
REMARK    1  A    between atoms: C_2  and  C_3
REMARK    2  A    between atoms: C_2  and  C_17
REMARK    3  A    between atoms: C_3  and  C_4
REMARK    4  A    between atoms: C_4  and  C_5
REMARK    5  A    between atoms: C_4  and  C_12
REMARK    6  A    between atoms: C_5  and  C_7
REMARK                            x       y       z     vdW  Elec       q    Type
REMARK                         _______ _______ _______ _____ _____    ______ ____
ROOT
ATOM      1  C   UNL     1       3.305   5.447  18.285  0.00  0.00    +0.000 C 
ENDROOT
BRANCH   1   2
ATOM      2  C   UNL     1       2.650   6.705  18.828  0.00  0.00    +0.000 A 
ATOM      3  C   UNL     1       2.420   7.916  18.089  0.00  0.00    +0.000 A 
ATOM      4  C   UNL     1       1.778   8.881  18.834  0.00  0.00    +0.000 A 
ATOM      5  S   UNL     1       1.471   8.360  20.430  0.00  0.00    +0.000 S 
ATOM      6  C   UNL     1       2.191   6.840  20.127  0.00  0.00    +0.000 A 
ENDBRANCH   1   2
BRANCH   1   7
ATOM      7  C   UNL     1       4.533   5.798  17.433  0.00  0.00    +0.000 C 
ATOM      8  O   UNL     1       4.423   5.971  16.216  0.00  0.00    +0.000 OA
BRANCH   7   9
ATOM      9  C   UNL     1       5.809   5.901  18.112  0.00  0.00    +0.000 A 
ATOM     10  C   UNL     1       6.278   5.273  19.253  0.00  0.00    +0.000 A 
ATOM     11  C   UNL     1       7.590   5.757  19.475  0.00  0.00    +0.000 A 
ATOM     12  C   UNL     1       7.848   6.640  18.455  0.00  0.00    +0.000 A 
ATOM     13  O   UNL     1       6.777   6.737  17.627  0.00  0.00    +0.000 OA
ENDBRANCH   7   9
ENDBRANCH   1   7
BRANCH   1  14
ATOM     14  C   UNL     1       2.320   4.595  17.462  0.00  0.00    +0.000 C 
BRANCH  14  16
ATOM     15  O   UNL     1       2.357   2.214  17.263  0.00  0.00    +0.000 OA
ATOM     16  C   UNL     1       2.244   3.181  18.018  0.00  0.00    +0.000 C 
BRANCH  16  17
ATOM     17  C   UNL     1       2.084   3.023  19.449  0.00  0.00    +0.000 A 
ATOM     18  C   UNL     1       0.984   3.247  20.257  0.00  0.00    +0.000 A 
ATOM     19  C   UNL     1       1.383   2.959  21.583  0.00  0.00    +0.000 A 
ATOM     20  C   UNL     1       2.701   2.575  21.508  0.00  0.00    +0.000 A 
ATOM     21  O   UNL     1       3.132   2.598  20.220  0.00  0.00    +0.000 OA
ENDBRANCH  16  17
ENDBRANCH  14  16
ENDBRANCH   1  14
TORSDOF 6
ENDMDL
MODEL 7
REMARK VINA RESULT:      -6.8      1.661      2.235
REMARK  Name = 
REMARK  6 active torsions:
REMARK  status: ('A' for Active; 'I' for Inactive)
REMARK    1  A    between atoms: C_2  and  C_3
REMARK    2  A    between atoms: C_2  and  C_17
REMARK    3  A    between atoms: C_3  and  C_4
REMARK    4  A    between atoms: C_4  and  C_5
REMARK    5  A    between atoms: C_4  and  C_12
REMARK    6  A    between atoms: C_5  and  C_7
REMARK                            x       y       z     vdW  Elec       q    Type
REMARK                         _______ _______ _______ _____ _____    ______ ____
ROOT
ATOM      1  C   UNL     1       2.994   5.536  18.749  0.00  0.00    +0.000 C 
ENDROOT
BRANCH   1   2
ATOM      2  C   UNL     1       2.496   6.969  18.793  0.00  0.00    +0.000 A 
ATOM      3  C   UNL     1       2.523   7.900  17.698  0.00  0.00    +0.000 A 
ATOM      4  C   UNL     1       1.974   9.121  18.024  0.00  0.00    +0.000 A 
ATOM      5  S   UNL     1       1.449   9.177  19.647  0.00  0.00    +0.000 S 
ATOM      6  C   UNL     1       1.949   7.565  19.917  0.00  0.00    +0.000 A 
ENDBRANCH   1   2
BRANCH   1   7
ATOM      7  C   UNL     1       4.508   5.494  18.497  0.00  0.00    +0.000 C 
ATOM      8  O   UNL     1       5.302   5.711  19.417  0.00  0.00    +0.000 OA
BRANCH   7   9
ATOM      9  C   UNL     1       4.952   5.210  17.147  0.00  0.00    +0.000 A 
ATOM     10  C   UNL     1       5.328   4.018  16.553  0.00  0.00    +0.000 A 
ATOM     11  C   UNL     1       5.687   4.323  15.218  0.00  0.00    +0.000 A 
ATOM     12  C   UNL     1       5.500   5.677  15.073  0.00  0.00    +0.000 A 
ATOM     13  O   UNL     1       5.059   6.223  16.234  0.00  0.00    +0.000 OA
ENDBRANCH   7   9
ENDBRANCH   1   7
BRANCH   1  14
ATOM     14  C   UNL     1       2.260   4.705  17.680  0.00  0.00    +0.000 C 
BRANCH  14  16
ATOM     15  O   UNL     1       2.127   2.348  17.311  0.00  0.00    +0.000 OA
ATOM     16  C   UNL     1       2.109   3.262  18.136  0.00  0.00    +0.000 C 
BRANCH  16  17
ATOM     17  C   UNL     1       1.991   3.009  19.558  0.00  0.00    +0.000 A 
ATOM     18  C   UNL     1       0.896   3.107  20.398  0.00  0.00    +0.000 A 
ATOM     19  C   UNL     1       1.343   2.772  21.697  0.00  0.00    +0.000 A 
ATOM     20  C   UNL     1       2.683   2.488  21.576  0.00  0.00    +0.000 A 
ATOM     21  O   UNL     1       3.083   2.616  20.283  0.00  0.00    +0.000 OA
ENDBRANCH  16  17
ENDBRANCH  14  16
ENDBRANCH   1  14
TORSDOF 6
ENDMDL
MODEL 8
REMARK VINA RESULT:      -6.8      2.919      5.819
REMARK  Name = 
REMARK  6 active torsions:
REMARK  status: ('A' for Active; 'I' for Inactive)
REMARK    1  A    between atoms: C_2  and  C_3
REMARK    2  A    between atoms: C_2  and  C_17
REMARK    3  A    between atoms: C_3  and  C_4
REMARK    4  A    between atoms: C_4  and  C_5
REMARK    5  A    between atoms: C_4  and  C_12
REMARK    6  A    between atoms: C_5  and  C_7
REMARK                            x       y       z     vdW  Elec       q    Type
REMARK                         _______ _______ _______ _____ _____    ______ ____
ROOT
ATOM      1  C   UNL     1       5.092   4.095  17.871  0.00  0.00    +0.000 C 
ENDROOT
BRANCH   1   2
ATOM      2  C   UNL     1       3.818   3.380  18.286  0.00  0.00    +0.000 A 
ATOM      3  C   UNL     1       2.645   3.215  17.471  0.00  0.00    +0.000 A 
ATOM      4  C   UNL     1       1.655   2.495  18.103  0.00  0.00    +0.000 A 
ATOM      5  S   UNL     1       2.106   2.034  19.683  0.00  0.00    +0.000 S 
ATOM      6  C   UNL     1       3.629   2.791  19.525  0.00  0.00    +0.000 A 
ENDBRANCH   1   2
BRANCH   1   7
ATOM      7  C   UNL     1       5.227   5.434  18.609  0.00  0.00    +0.000 C 
ATOM      8  O   UNL     1       6.256   5.703  19.236  0.00  0.00    +0.000 OA
BRANCH   7   9
ATOM      9  C   UNL     1       4.102   6.345  18.550  0.00  0.00    +0.000 A 
ATOM     10  C   UNL     1       3.738   7.269  17.587  0.00  0.00    +0.000 A 
ATOM     11  C   UNL     1       2.559   7.900  18.050  0.00  0.00    +0.000 A 
ATOM     12  C   UNL     1       2.266   7.318  19.260  0.00  0.00    +0.000 A 
ATOM     13  O   UNL     1       3.195   6.380  19.574  0.00  0.00    +0.000 OA
ENDBRANCH   7   9
ENDBRANCH   1   7
BRANCH   1  14
ATOM     14  C   UNL     1       5.152   4.325  16.349  0.00  0.00    +0.000 C 
BRANCH  14  16
ATOM     15  O   UNL     1       7.517   4.323  16.691  0.00  0.00    +0.000 OA
ATOM     16  C   UNL     1       6.596   4.388  15.875  0.00  0.00    +0.000 C 
BRANCH  16  17
ATOM     17  C   UNL     1       6.838   4.479  14.449  0.00  0.00    +0.000 A 
ATOM     18  C   UNL     1       6.278   3.774  13.399  0.00  0.00    +0.000 A 
ATOM     19  C   UNL     1       6.894   4.243  12.215  0.00  0.00    +0.000 A 
ATOM     20  C   UNL     1       7.792   5.206  12.610  0.00  0.00    +0.000 A 
ATOM     21  O   UNL     1       7.757   5.367  13.959  0.00  0.00    +0.000 OA
ENDBRANCH  16  17
ENDBRANCH  14  16
ENDBRANCH   1  14
TORSDOF 6
ENDMDL
MODEL 9
REMARK VINA RESULT:      -6.8      1.615      2.311
REMARK  Name = 
REMARK  6 active torsions:
REMARK  status: ('A' for Active; 'I' for Inactive)
REMARK    1  A    between atoms: C_2  and  C_3
REMARK    2  A    between atoms: C_2  and  C_17
REMARK    3  A    between atoms: C_3  and  C_4
REMARK    4  A    between atoms: C_4  and  C_5
REMARK    5  A    between atoms: C_4  and  C_12
REMARK    6  A    between atoms: C_5  and  C_7
REMARK                            x       y       z     vdW  Elec       q    Type
REMARK                         _______ _______ _______ _____ _____    ______ ____
ROOT
ATOM      1  C   UNL     1       4.762   4.316  18.336  0.00  0.00    +0.000 C 
ENDROOT
BRANCH   1   2
ATOM      2  C   UNL     1       4.021   5.642  18.315  0.00  0.00    +0.000 A 
ATOM      3  C   UNL     1       4.209   6.693  17.353  0.00  0.00    +0.000 A 
ATOM      4  C   UNL     1       3.375   7.768  17.568  0.00  0.00    +0.000 A 
ATOM      5  S   UNL     1       2.380   7.544  18.936  0.00  0.00    +0.000 S 
ATOM      6  C   UNL     1       3.059   6.006  19.242  0.00  0.00    +0.000 A 
ENDBRANCH   1   2
BRANCH   1   7
ATOM      7  C   UNL     1       6.187   4.482  17.791  0.00  0.00    +0.000 C 
ATOM      8  O   UNL     1       7.139   4.636  18.562  0.00  0.00    +0.000 OA
BRANCH   7   9
ATOM      9  C   UNL     1       6.357   4.466  16.352  0.00  0.00    +0.000 A 
ATOM     10  C   UNL     1       5.846   3.612  15.392  0.00  0.00    +0.000 A 
ATOM     11  C   UNL     1       6.350   4.050  14.144  0.00  0.00    +0.000 A 
ATOM     12  C   UNL     1       7.129   5.149  14.413  0.00  0.00    +0.000 A 
ATOM     13  O   UNL     1       7.143   5.408  15.746  0.00  0.00    +0.000 OA
ENDBRANCH   7   9
ENDBRANCH   1   7
BRANCH   1  14
ATOM     14  C   UNL     1       4.016   3.230  17.539  0.00  0.00    +0.000 C 
BRANCH  14  16
ATOM     15  O   UNL     1       3.931   0.955  18.265  0.00  0.00    +0.000 OA
ATOM     16  C   UNL     1       3.556   2.112  18.462  0.00  0.00    +0.000 C 
BRANCH  16  17
ATOM     17  C   UNL     1       2.713   2.465  19.586  0.00  0.00    +0.000 A 
ATOM     18  C   UNL     1       1.357   2.735  19.638  0.00  0.00    +0.000 A 
ATOM     19  C   UNL     1       1.053   3.050  20.983  0.00  0.00    +0.000 A 
ATOM     20  C   UNL     1       2.238   2.952  21.674  0.00  0.00    +0.000 A 
ATOM     21  O   UNL     1       3.247   2.586  20.840  0.00  0.00    +0.000 OA
ENDBRANCH  16  17
ENDBRANCH  14  16
ENDBRANCH   1  14
TORSDOF 6
ENDMDL
