MODEL 1
REMARK VINA RESULT:      -7.4      0.000      0.000
REMARK  Name = 
REMARK  4 active torsions:
REMARK  status: ('A' for Active; 'I' for Inactive)
REMARK    1  A    between atoms: N_5  and  C_6
REMARK    2  A    between atoms: C_11  and  C_12
REMARK    3  A    between atoms: N_18  and  C_19
REMARK    4  A    between atoms: C_19  and  C_20
REMARK                            x       y       z     vdW  Elec       q    Type
REMARK                         _______ _______ _______ _____ _____    ______ ____
ROOT
ATOM      1  O   UNL     1       7.698   4.315  17.890  0.00  0.00    +0.000 OA
ATOM      2  C   UNL     1       6.557   4.678  17.626  0.00  0.00    +0.000 C 
ATOM      3  C   UNL     1       5.407   4.429  18.661  0.00  0.00    +0.000 C 
ATOM      4  O   UNL     1       5.673   3.952  19.757  0.00  0.00    +0.000 OA
ATOM      5  N   UNL     1       4.106   4.776  18.259  0.00  0.00    +0.000 N 
ATOM      6  C   UNL     1       3.829   5.105  16.865  0.00  0.00    +0.000 C 
ATOM      7  C   UNL     1       4.942   5.983  16.314  0.00  0.00    +0.000 C 
ATOM      8  N   UNL     1       6.217   5.295  16.417  0.00  0.00    +0.000 N 
ENDROOT
BRANCH   5   9
ATOM      9  C   UNL     1       3.010   4.649  19.165  0.00  0.00    +0.000 A 
ATOM     10  C   UNL     1       2.685   5.754  19.961  0.00  0.00    +0.000 A 
ATOM     11  C   UNL     1       1.660   5.678  20.911  0.00  0.00    +0.000 A 
ATOM     12  C   UNL     1       0.954   4.488  21.073  0.00  0.00    +0.000 A 
ATOM     13  C   UNL     1       1.257   3.391  20.278  0.00  0.00    +0.000 A 
ATOM     14  C   UNL     1       2.291   3.446  19.308  0.00  0.00    +0.000 A 
BRANCH  14  15
ATOM     15  C   UNL     1       2.614   2.154  18.599  0.00  0.00    +0.000 C 
ATOM     16  F   UNL     1       3.866   1.653  18.814  0.00  0.00    +0.000 F 
ATOM     17  F   UNL     1       1.776   1.150  19.001  0.00  0.00    +0.000 F 
ATOM     18  F   UNL     1       2.459   2.226  17.247  0.00  0.00    +0.000 F 
ENDBRANCH  14  15
ENDBRANCH   5   9
BRANCH   8  19
ATOM     19  C   UNL     1       7.239   5.556  15.402  0.00  0.00    +0.000 C 
BRANCH  19  20
ATOM     20  C   UNL     1       7.019   4.741  14.140  0.00  0.00    +0.000 A 
ATOM     21  C   UNL     1       6.048   3.718  14.148  0.00  0.00    +0.000 A 
ATOM     22  C   UNL     1       5.766   2.984  12.992  0.00  0.00    +0.000 A 
ATOM     23  C   UNL     1       6.448   3.264  11.815  0.00  0.00    +0.000 A 
ATOM     24  F   UNL     1       6.152   2.592  10.698  0.00  0.00    +0.000 F 
ATOM     25  C   UNL     1       7.443   4.233  11.787  0.00  0.00    +0.000 A 
ATOM     26  C   UNL     1       7.737   4.958  12.948  0.00  0.00    +0.000 A 
ATOM     27 CL   UNL     1       9.008   6.123  12.833  0.00  0.00    +0.000 Cl
ENDBRANCH  19  20
ENDBRANCH   8  19
TORSDOF 4
ENDMDL
MODEL 2
REMARK VINA RESULT:      -7.3      1.868      2.324
REMARK  Name = 
REMARK  4 active torsions:
REMARK  status: ('A' for Active; 'I' for Inactive)
REMARK    1  A    between atoms: N_5  and  C_6
REMARK    2  A    between atoms: C_11  and  C_12
REMARK    3  A    between atoms: N_18  and  C_19
REMARK    4  A    between atoms: C_19  and  C_20
REMARK                            x       y       z     vdW  Elec       q    Type
REMARK                         _______ _______ _______ _____ _____    ______ ____
ROOT
ATOM      1  O   UNL     1       7.800   4.799  18.115  0.00  0.00    +0.000 OA
ATOM      2  C   UNL     1       6.612   4.787  17.807  0.00  0.00    +0.000 C 
ATOM      3  C   UNL     1       5.540   4.398  18.881  0.00  0.00    +0.000 C 
ATOM      4  O   UNL     1       5.888   4.192  20.036  0.00  0.00    +0.000 OA
ATOM      5  N   UNL     1       4.208   4.305  18.442  0.00  0.00    +0.000 N 
ATOM      6  C   UNL     1       3.899   4.320  17.016  0.00  0.00    +0.000 C 
ATOM      7  C   UNL     1       4.748   5.372  16.319  0.00  0.00    +0.000 C 
ATOM      8  N   UNL     1       6.158   5.087  16.519  0.00  0.00    +0.000 N 
ENDROOT
BRANCH   5   9
ATOM      9  C   UNL     1       3.157   4.025  19.368  0.00  0.00    +0.000 A 
ATOM     10  C   UNL     1       2.931   2.690  19.720  0.00  0.00    +0.000 A 
ATOM     11  C   UNL     1       1.882   2.341  20.578  0.00  0.00    +0.000 A 
ATOM     12  C   UNL     1       1.045   3.332  21.086  0.00  0.00    +0.000 A 
ATOM     13  C   UNL     1       1.269   4.662  20.755  0.00  0.00    +0.000 A 
ATOM     14  C   UNL     1       2.329   5.038  19.889  0.00  0.00    +0.000 A 
BRANCH  14  15
ATOM     15  C   UNL     1       2.391   6.495  19.501  0.00  0.00    +0.000 C 
ATOM     16  F   UNL     1       3.636   7.056  19.494  0.00  0.00    +0.000 F 
ATOM     17  F   UNL     1       1.929   6.684  18.227  0.00  0.00    +0.000 F 
ATOM     18  F   UNL     1       1.615   7.296  20.283  0.00  0.00    +0.000 F 
ENDBRANCH  14  15
ENDBRANCH   5   9
BRANCH   8  19
ATOM     19  C   UNL     1       7.104   5.456  15.463  0.00  0.00    +0.000 C 
BRANCH  19  20
ATOM     20  C   UNL     1       6.886   4.659  14.190  0.00  0.00    +0.000 A 
ATOM     21  C   UNL     1       5.917   3.633  14.183  0.00  0.00    +0.000 A 
ATOM     22  C   UNL     1       5.637   2.916  13.016  0.00  0.00    +0.000 A 
ATOM     23  C   UNL     1       6.318   3.215  11.843  0.00  0.00    +0.000 A 
ATOM     24  F   UNL     1       6.023   2.558  10.717  0.00  0.00    +0.000 F 
ATOM     25  C   UNL     1       7.311   4.186  11.829  0.00  0.00    +0.000 A 
ATOM     26  C   UNL     1       7.603   4.895  13.000  0.00  0.00    +0.000 A 
ATOM     27 CL   UNL     1       8.872   6.064  12.903  0.00  0.00    +0.000 Cl
ENDBRANCH  19  20
ENDBRANCH   8  19
TORSDOF 4
ENDMDL
MODEL 3
REMARK VINA RESULT:      -7.2      5.474      8.190
REMARK  Name = 
REMARK  4 active torsions:
REMARK  status: ('A' for Active; 'I' for Inactive)
REMARK    1  A    between atoms: N_5  and  C_6
REMARK    2  A    between atoms: C_11  and  C_12
REMARK    3  A    between atoms: N_18  and  C_19
REMARK    4  A    between atoms: C_19  and  C_20
REMARK                            x       y       z     vdW  Elec       q    Type
REMARK                         _______ _______ _______ _____ _____    ______ ____
ROOT
ATOM      1  O   UNL     1       1.302   8.575  21.298  0.00  0.00    +0.000 OA
ATOM      2  C   UNL     1       1.627   8.210  20.173  0.00  0.00    +0.000 C 
ATOM      3  C   UNL     1       1.974   6.704  19.918  0.00  0.00    +0.000 C 
ATOM      4  O   UNL     1       1.837   5.891  20.823  0.00  0.00    +0.000 OA
ATOM      5  N   UNL     1       2.435   6.368  18.634  0.00  0.00    +0.000 N 
ATOM      6  C   UNL     1       2.807   7.414  17.688  0.00  0.00    +0.000 C 
ATOM      7  C   UNL     1       1.789   8.543  17.745  0.00  0.00    +0.000 C 
ATOM      8  N   UNL     1       1.725   9.089  19.089  0.00  0.00    +0.000 N 
ENDROOT
BRANCH   5   9
ATOM      9  C   UNL     1       2.707   5.008  18.295  0.00  0.00    +0.000 A 
ATOM     10  C   UNL     1       1.619   4.161  18.055  0.00  0.00    +0.000 A 
ATOM     11  C   UNL     1       1.812   2.804  17.774  0.00  0.00    +0.000 A 
ATOM     12  C   UNL     1       3.104   2.283  17.738  0.00  0.00    +0.000 A 
ATOM     13  C   UNL     1       4.192   3.116  17.960  0.00  0.00    +0.000 A 
ATOM     14  C   UNL     1       4.019   4.496  18.244  0.00  0.00    +0.000 A 
BRANCH  14  15
ATOM     15  C   UNL     1       5.265   5.269  18.595  0.00  0.00    +0.000 C 
ATOM     16  F   UNL     1       5.270   5.865  19.824  0.00  0.00    +0.000 F 
ATOM     17  F   UNL     1       6.362   4.451  18.614  0.00  0.00    +0.000 F 
ATOM     18  F   UNL     1       5.566   6.247  17.696  0.00  0.00    +0.000 F 
ENDBRANCH  14  15
ENDBRANCH   5   9
BRANCH   8  19
ATOM     19  C   UNL     1       1.419  10.512  19.254  0.00  0.00    +0.000 C 
BRANCH  19  20
ATOM     20  C   UNL     1      -0.044  10.820  18.988  0.00  0.00    +0.000 A 
ATOM     21  C   UNL     1      -0.709  10.137  17.948  0.00  0.00    +0.000 A 
ATOM     22  C   UNL     1      -2.071  10.341  17.707  0.00  0.00    +0.000 A 
ATOM     23  C   UNL     1      -2.785  11.226  18.503  0.00  0.00    +0.000 A 
ATOM     24  F   UNL     1      -4.096  11.393  18.302  0.00  0.00    +0.000 F 
ATOM     25  C   UNL     1      -2.149  11.949  19.505  0.00  0.00    +0.000 A 
ATOM     26  C   UNL     1      -0.782  11.757  19.736  0.00  0.00    +0.000 A 
ATOM     27 CL   UNL     1      -0.064  12.718  20.980  0.00  0.00    +0.000 Cl
ENDBRANCH  19  20
ENDBRANCH   8  19
TORSDOF 4
ENDMDL
MODEL 4
REMARK VINA RESULT:      -7.0      5.748      7.076
REMARK  Name = 
REMARK  4 active torsions:
REMARK  status: ('A' for Active; 'I' for Inactive)
REMARK    1  A    between atoms: N_5  and  C_6
REMARK    2  A    between atoms: C_11  and  C_12
REMARK    3  A    between atoms: N_18  and  C_19
REMARK    4  A    between atoms: C_19  and  C_20
REMARK                            x       y       z     vdW  Elec       q    Type
REMARK                         _______ _______ _______ _____ _____    ______ ____
ROOT
ATOM      1  O   UNL     1       1.646   7.041  21.233  0.00  0.00    +0.000 OA
ATOM      2  C   UNL     1       1.769   7.682  20.194  0.00  0.00    +0.000 C 
ATOM      3  C   UNL     1       1.177   9.130  20.105  0.00  0.00    +0.000 C 
ATOM      4  O   UNL     1       0.671   9.639  21.097  0.00  0.00    +0.000 OA
ATOM      5  N   UNL     1       1.261   9.774  18.858  0.00  0.00    +0.000 N 
ATOM      6  C   UNL     1       1.647   9.025  17.667  0.00  0.00    +0.000 C 
ATOM      7  C   UNL     1       2.797   8.088  18.001  0.00  0.00    +0.000 C 
ATOM      8  N   UNL     1       2.403   7.172  19.057  0.00  0.00    +0.000 N 
ENDROOT
BRANCH   5   9
ATOM      9  C   UNL     1       0.810  11.120  18.706  0.00  0.00    +0.000 A 
ATOM     10  C   UNL     1       1.722  12.150  18.964  0.00  0.00    +0.000 A 
ATOM     11  C   UNL     1       1.331  13.492  18.890  0.00  0.00    +0.000 A 
ATOM     12  C   UNL     1       0.015  13.811  18.562  0.00  0.00    +0.000 A 
ATOM     13  C   UNL     1      -0.895  12.798  18.290  0.00  0.00    +0.000 A 
ATOM     14  C   UNL     1      -0.518  11.431  18.356  0.00  0.00    +0.000 A 
BRANCH  14  15
ATOM     15  C   UNL     1      -1.624  10.422  18.168  0.00  0.00    +0.000 C 
ATOM     16  F   UNL     1      -1.830   9.564  19.211  0.00  0.00    +0.000 F 
ATOM     17  F   UNL     1      -2.832  11.042  17.999  0.00  0.00    +0.000 F 
ATOM     18  F   UNL     1      -1.464   9.645  17.061  0.00  0.00    +0.000 F 
ENDBRANCH  14  15
ENDBRANCH   5   9
BRANCH   8  19
ATOM     19  C   UNL     1       2.978   5.825  19.067  0.00  0.00    +0.000 C 
BRANCH  19  20
ATOM     20  C   UNL     1       3.987   5.620  17.950  0.00  0.00    +0.000 A 
ATOM     21  C   UNL     1       5.039   6.548  17.801  0.00  0.00    +0.000 A 
ATOM     22  C   UNL     1       6.026   6.366  16.829  0.00  0.00    +0.000 A 
ATOM     23  C   UNL     1       5.977   5.256  15.996  0.00  0.00    +0.000 A 
ATOM     24  F   UNL     1       6.942   5.058  15.093  0.00  0.00    +0.000 F 
ATOM     25  C   UNL     1       4.928   4.350  16.087  0.00  0.00    +0.000 A 
ATOM     26  C   UNL     1       3.930   4.539  17.050  0.00  0.00    +0.000 A 
ATOM     27 CL   UNL     1       2.647   3.382  17.074  0.00  0.00    +0.000 Cl
ENDBRANCH  19  20
ENDBRANCH   8  19
TORSDOF 4
ENDMDL
MODEL 5
REMARK VINA RESULT:      -7.0      5.662      8.323
REMARK  Name = 
REMARK  4 active torsions:
REMARK  status: ('A' for Active; 'I' for Inactive)
REMARK    1  A    between atoms: N_5  and  C_6
REMARK    2  A    between atoms: C_11  and  C_12
REMARK    3  A    between atoms: N_18  and  C_19
REMARK    4  A    between atoms: C_19  and  C_20
REMARK                            x       y       z     vdW  Elec       q    Type
REMARK                         _______ _______ _______ _____ _____    ______ ____
ROOT
ATOM      1  O   UNL     1       1.131   8.041  21.438  0.00  0.00    +0.000 OA
ATOM      2  C   UNL     1       1.447   8.102  20.254  0.00  0.00    +0.000 C 
ATOM      3  C   UNL     1       2.516   7.106  19.688  0.00  0.00    +0.000 C 
ATOM      4  O   UNL     1       2.963   6.224  20.410  0.00  0.00    +0.000 OA
ATOM      5  N   UNL     1       2.909   7.291  18.351  0.00  0.00    +0.000 N 
ATOM      6  C   UNL     1       2.526   8.500  17.631  0.00  0.00    +0.000 C 
ATOM      7  C   UNL     1       1.079   8.845  17.942  0.00  0.00    +0.000 C 
ATOM      8  N   UNL     1       0.910   9.044  19.371  0.00  0.00    +0.000 N 
ENDROOT
BRANCH   5   9
ATOM      9  C   UNL     1       3.825   6.385  17.734  0.00  0.00    +0.000 A 
ATOM     10  C   UNL     1       5.087   6.873  17.373  0.00  0.00    +0.000 A 
ATOM     11  C   UNL     1       6.011   6.055  16.713  0.00  0.00    +0.000 A 
ATOM     12  C   UNL     1       5.673   4.739  16.404  0.00  0.00    +0.000 A 
ATOM     13  C   UNL     1       4.430   4.240  16.771  0.00  0.00    +0.000 A 
ATOM     14  C   UNL     1       3.479   5.051  17.443  0.00  0.00    +0.000 A 
BRANCH  14  15
ATOM     15  C   UNL     1       2.120   4.439  17.672  0.00  0.00    +0.000 C 
ATOM     16  F   UNL     1       1.051   5.226  17.351  0.00  0.00    +0.000 F 
ATOM     17  F   UNL     1       1.952   3.316  16.909  0.00  0.00    +0.000 F 
ATOM     18  F   UNL     1       1.921   4.030  18.956  0.00  0.00    +0.000 F 
ENDBRANCH  14  15
ENDBRANCH   5   9
BRANCH   8  19
ATOM     19  C   UNL     1      -0.092  10.009  19.831  0.00  0.00    +0.000 C 
BRANCH  19  20
ATOM     20  C   UNL     1       0.277  11.437  19.472  0.00  0.00    +0.000 A 
ATOM     21  C   UNL     1       1.467  11.987  19.991  0.00  0.00    +0.000 A 
ATOM     22  C   UNL     1       1.880  13.276  19.637  0.00  0.00    +0.000 A 
ATOM     23  C   UNL     1       1.109  14.028  18.759  0.00  0.00    +0.000 A 
ATOM     24  F   UNL     1       1.522  15.244  18.387  0.00  0.00    +0.000 F 
ATOM     25  C   UNL     1      -0.092  13.533  18.269  0.00  0.00    +0.000 A 
ATOM     26  C   UNL     1      -0.513  12.249  18.635  0.00  0.00    +0.000 A 
ATOM     27 CL   UNL     1      -2.033  11.722  18.004  0.00  0.00    +0.000 Cl
ENDBRANCH  19  20
ENDBRANCH   8  19
TORSDOF 4
ENDMDL
MODEL 6
REMARK VINA RESULT:      -6.9      5.886      8.105
REMARK  Name = 
REMARK  4 active torsions:
REMARK  status: ('A' for Active; 'I' for Inactive)
REMARK    1  A    between atoms: N_5  and  C_6
REMARK    2  A    between atoms: C_11  and  C_12
REMARK    3  A    between atoms: N_18  and  C_19
REMARK    4  A    between atoms: C_19  and  C_20
REMARK                            x       y       z     vdW  Elec       q    Type
REMARK                         _______ _______ _______ _____ _____    ______ ____
ROOT
ATOM      1  O   UNL     1       3.211   7.733  17.600  0.00  0.00    +0.000 OA
ATOM      2  C   UNL     1       2.446   8.048  18.506  0.00  0.00    +0.000 C 
ATOM      3  C   UNL     1       1.528   9.307  18.341  0.00  0.00    +0.000 C 
ATOM      4  O   UNL     1       1.522   9.915  17.278  0.00  0.00    +0.000 OA
ATOM      5  N   UNL     1       0.748   9.673  19.451  0.00  0.00    +0.000 N 
ATOM      6  C   UNL     1       0.986   9.059  20.753  0.00  0.00    +0.000 C 
ATOM      7  C   UNL     1       1.223   7.567  20.580  0.00  0.00    +0.000 C 
ATOM      8  N   UNL     1       2.363   7.340  19.709  0.00  0.00    +0.000 N 
ENDROOT
BRANCH   5   9
ATOM      9  C   UNL     1      -0.168  10.764  19.364  0.00  0.00    +0.000 A 
ATOM     10  C   UNL     1      -1.486  10.486  18.983  0.00  0.00    +0.000 A 
ATOM     11  C   UNL     1      -2.421  11.515  18.822  0.00  0.00    +0.000 A 
ATOM     12  C   UNL     1      -2.037  12.837  19.038  0.00  0.00    +0.000 A 
ATOM     13  C   UNL     1      -0.736  13.124  19.431  0.00  0.00    +0.000 A 
ATOM     14  C   UNL     1       0.226  12.095  19.602  0.00  0.00    +0.000 A 
BRANCH  14  15
ATOM     15  C   UNL     1       1.636  12.541  19.903  0.00  0.00    +0.000 C 
ATOM     16  F   UNL     1       2.561  12.286  18.931  0.00  0.00    +0.000 F 
ATOM     17  F   UNL     1       1.696  13.896  20.076  0.00  0.00    +0.000 F 
ATOM     18  F   UNL     1       2.136  12.012  21.054  0.00  0.00    +0.000 F 
ENDBRANCH  14  15
ENDBRANCH   5   9
BRANCH   8  19
ATOM     19  C   UNL     1       3.193   6.155  19.935  0.00  0.00    +0.000 C 
BRANCH  19  20
ATOM     20  C   UNL     1       2.479   4.871  19.550  0.00  0.00    +0.000 A 
ATOM     21  C   UNL     1       1.516   4.334  20.429  0.00  0.00    +0.000 A 
ATOM     22  C   UNL     1       0.789   3.189  20.089  0.00  0.00    +0.000 A 
ATOM     23  C   UNL     1       1.013   2.570  18.866  0.00  0.00    +0.000 A 
ATOM     24  F   UNL     1       0.290   1.500  18.520  0.00  0.00    +0.000 F 
ATOM     25  C   UNL     1       1.987   3.047  17.999  0.00  0.00    +0.000 A 
ATOM     26  C   UNL     1       2.727   4.183  18.345  0.00  0.00    +0.000 A 
ATOM     27 CL   UNL     1       3.939   4.692  17.224  0.00  0.00    +0.000 Cl
ENDBRANCH  19  20
ENDBRANCH   8  19
TORSDOF 4
ENDMDL
MODEL 7
REMARK VINA RESULT:      -6.9      5.704      8.380
REMARK  Name = 
REMARK  4 active torsions:
REMARK  status: ('A' for Active; 'I' for Inactive)
REMARK    1  A    between atoms: N_5  and  C_6
REMARK    2  A    between atoms: C_11  and  C_12
REMARK    3  A    between atoms: N_18  and  C_19
REMARK    4  A    between atoms: C_19  and  C_20
REMARK                            x       y       z     vdW  Elec       q    Type
REMARK                         _______ _______ _______ _____ _____    ______ ____
ROOT
ATOM      1  O   UNL     1       1.242   8.282  21.348  0.00  0.00    +0.000 OA
ATOM      2  C   UNL     1       1.548   8.206  20.162  0.00  0.00    +0.000 C 
ATOM      3  C   UNL     1       2.523   7.075  19.687  0.00  0.00    +0.000 C 
ATOM      4  O   UNL     1       2.902   6.229  20.486  0.00  0.00    +0.000 OA
ATOM      5  N   UNL     1       2.915   7.102  18.338  0.00  0.00    +0.000 N 
ATOM      6  C   UNL     1       2.626   8.268  17.510  0.00  0.00    +0.000 C 
ATOM      7  C   UNL     1       1.216   8.762  17.794  0.00  0.00    +0.000 C 
ATOM      8  N   UNL     1       1.082   9.106  19.198  0.00  0.00    +0.000 N 
ENDROOT
BRANCH   5   9
ATOM      9  C   UNL     1       3.744   6.069  17.804  0.00  0.00    +0.000 A 
ATOM     10  C   UNL     1       5.060   6.397  17.458  0.00  0.00    +0.000 A 
ATOM     11  C   UNL     1       5.908   5.448  16.877  0.00  0.00    +0.000 A 
ATOM     12  C   UNL     1       5.438   4.159  16.632  0.00  0.00    +0.000 A 
ATOM     13  C   UNL     1       4.139   3.818  16.984  0.00  0.00    +0.000 A 
ATOM     14  C   UNL     1       3.263   4.765  17.577  0.00  0.00    +0.000 A 
BRANCH  14  15
ATOM     15  C   UNL     1       1.840   4.315  17.794  0.00  0.00    +0.000 C 
ATOM     16  F   UNL     1       0.884   5.016  17.116  0.00  0.00    +0.000 F 
ATOM     17  F   UNL     1       1.664   3.023  17.382  0.00  0.00    +0.000 F 
ATOM     18  F   UNL     1       1.464   4.325  19.103  0.00  0.00    +0.000 F 
ENDBRANCH  14  15
ENDBRANCH   5   9
BRANCH   8  19
ATOM     19  C   UNL     1       0.170  10.190  19.571  0.00  0.00    +0.000 C 
BRANCH  19  20
ATOM     20  C   UNL     1       0.894  11.512  19.757  0.00  0.00    +0.000 A 
ATOM     21  C   UNL     1       1.810  11.935  18.772  0.00  0.00    +0.000 A 
ATOM     22  C   UNL     1       2.451  13.174  18.869  0.00  0.00    +0.000 A 
ATOM     23  C   UNL     1       2.184  14.004  19.950  0.00  0.00    +0.000 A 
ATOM     24  F   UNL     1       2.765  15.206  20.024  0.00  0.00    +0.000 F 
ATOM     25  C   UNL     1       1.323  13.596  20.960  0.00  0.00    +0.000 A 
ATOM     26  C   UNL     1       0.693  12.350  20.872  0.00  0.00    +0.000 A 
ATOM     27 CL   UNL     1      -0.339  11.907  22.186  0.00  0.00    +0.000 Cl
ENDBRANCH  19  20
ENDBRANCH   8  19
TORSDOF 4
ENDMDL
MODEL 8
REMARK VINA RESULT:      -6.9      5.881      8.019
REMARK  Name = 
REMARK  4 active torsions:
REMARK  status: ('A' for Active; 'I' for Inactive)
REMARK    1  A    between atoms: N_5  and  C_6
REMARK    2  A    between atoms: C_11  and  C_12
REMARK    3  A    between atoms: N_18  and  C_19
REMARK    4  A    between atoms: C_19  and  C_20
REMARK                            x       y       z     vdW  Elec       q    Type
REMARK                         _______ _______ _______ _____ _____    ______ ____
ROOT
ATOM      1  O   UNL     1       1.662   7.261  21.423  0.00  0.00    +0.000 OA
ATOM      2  C   UNL     1       1.788   7.876  20.368  0.00  0.00    +0.000 C 
ATOM      3  C   UNL     1       1.051   9.244  20.178  0.00  0.00    +0.000 C 
ATOM      4  O   UNL     1       0.424   9.728  21.112  0.00  0.00    +0.000 OA
ATOM      5  N   UNL     1       1.154   9.850  18.914  0.00  0.00    +0.000 N 
ATOM      6  C   UNL     1       1.703   9.108  17.785  0.00  0.00    +0.000 C 
ATOM      7  C   UNL     1       2.921   8.317  18.234  0.00  0.00    +0.000 C 
ATOM      8  N   UNL     1       2.554   7.399  19.299  0.00  0.00    +0.000 N 
ENDROOT
BRANCH   5   9
ATOM      9  C   UNL     1       0.572  11.132  18.676  0.00  0.00    +0.000 A 
ATOM     10  C   UNL     1       1.348  12.266  18.946  0.00  0.00    +0.000 A 
ATOM     11  C   UNL     1       0.820  13.552  18.789  0.00  0.00    +0.000 A 
ATOM     12  C   UNL     1      -0.497  13.712  18.365  0.00  0.00    +0.000 A 
ATOM     13  C   UNL     1      -1.272  12.595  18.079  0.00  0.00    +0.000 A 
ATOM     14  C   UNL     1      -0.756  11.282  18.229  0.00  0.00    +0.000 A 
BRANCH  14  15
ATOM     15  C   UNL     1      -1.731  10.150  18.015  0.00  0.00    +0.000 C 
ATOM     16  F   UNL     1      -2.996  10.516  17.654  0.00  0.00    +0.000 F 
ATOM     17  F   UNL     1      -1.316   9.329  17.003  0.00  0.00    +0.000 F 
ATOM     18  F   UNL     1      -1.863   9.338  19.101  0.00  0.00    +0.000 F 
ENDBRANCH  14  15
ENDBRANCH   5   9
BRANCH   8  19
ATOM     19  C   UNL     1       3.269   6.125  19.405  0.00  0.00    +0.000 C 
BRANCH  19  20
ATOM     20  C   UNL     1       2.360   4.933  19.164  0.00  0.00    +0.000 A 
ATOM     21  C   UNL     1       1.855   4.709  17.866  0.00  0.00    +0.000 A 
ATOM     22  C   UNL     1       1.066   3.590  17.584  0.00  0.00    +0.000 A 
ATOM     23  C   UNL     1       0.775   2.681  18.592  0.00  0.00    +0.000 A 
ATOM     24  F   UNL     1       0.056   1.588  18.316  0.00  0.00    +0.000 F 
ATOM     25  C   UNL     1       1.218   2.898  19.890  0.00  0.00    +0.000 A 
ATOM     26  C   UNL     1       1.994   4.026  20.178  0.00  0.00    +0.000 A 
ATOM     27 CL   UNL     1       2.478   4.236  21.824  0.00  0.00    +0.000 Cl
ENDBRANCH  19  20
ENDBRANCH   8  19
TORSDOF 4
ENDMDL
MODEL 9
REMARK VINA RESULT:      -6.8      5.284      7.974
REMARK  Name = 
REMARK  4 active torsions:
REMARK  status: ('A' for Active; 'I' for Inactive)
REMARK    1  A    between atoms: N_5  and  C_6
REMARK    2  A    between atoms: C_11  and  C_12
REMARK    3  A    between atoms: N_18  and  C_19
REMARK    4  A    between atoms: C_19  and  C_20
REMARK                            x       y       z     vdW  Elec       q    Type
REMARK                         _______ _______ _______ _____ _____    ______ ____
ROOT
ATOM      1  O   UNL     1       1.274   8.060  21.562  0.00  0.00    +0.000 OA
ATOM      2  C   UNL     1       1.598   8.064  20.379  0.00  0.00    +0.000 C 
ATOM      3  C   UNL     1       2.506   6.915  19.823  0.00  0.00    +0.000 C 
ATOM      4  O   UNL     1       2.814   5.981  20.552  0.00  0.00    +0.000 OA
ATOM      5  N   UNL     1       2.925   7.029  18.486  0.00  0.00    +0.000 N 
ATOM      6  C   UNL     1       2.729   8.277  17.756  0.00  0.00    +0.000 C 
ATOM      7  C   UNL     1       1.349   8.838  18.062  0.00  0.00    +0.000 C 
ATOM      8  N   UNL     1       1.210   9.070  19.488  0.00  0.00    +0.000 N 
ENDROOT
BRANCH   5   9
ATOM      9  C   UNL     1       3.695   5.991  17.877  0.00  0.00    +0.000 A 
ATOM     10  C   UNL     1       5.019   6.279  17.522  0.00  0.00    +0.000 A 
ATOM     11  C   UNL     1       5.811   5.327  16.871  0.00  0.00    +0.000 A 
ATOM     12  C   UNL     1       5.278   4.077  16.564  0.00  0.00    +0.000 A 
ATOM     13  C   UNL     1       3.971   3.775  16.925  0.00  0.00    +0.000 A 
ATOM     14  C   UNL     1       3.151   4.725  17.588  0.00  0.00    +0.000 A 
BRANCH  14  15
ATOM     15  C   UNL     1       1.713   4.328  17.811  0.00  0.00    +0.000 C 
ATOM     16  F   UNL     1       1.268   4.400  19.100  0.00  0.00    +0.000 F 
ATOM     17  F   UNL     1       0.864   5.147  17.116  0.00  0.00    +0.000 F 
ATOM     18  F   UNL     1       1.426   3.069  17.378  0.00  0.00    +0.000 F 
ENDBRANCH  14  15
ENDBRANCH   5   9
BRANCH   8  19
ATOM     19  C   UNL     1       0.364  10.177  19.940  0.00  0.00    +0.000 C 
BRANCH  19  20
ATOM     20  C   UNL     1      -0.698  10.544  18.918  0.00  0.00    +0.000 A 
ATOM     21  C   UNL     1      -1.665   9.580  18.562  0.00  0.00    +0.000 A 
ATOM     22  C   UNL     1      -2.699   9.892  17.674  0.00  0.00    +0.000 A 
ATOM     23  C   UNL     1      -2.781  11.169  17.134  0.00  0.00    +0.000 A 
ATOM     24  F   UNL     1      -3.792  11.482  16.318  0.00  0.00    +0.000 F 
ATOM     25  C   UNL     1      -1.818  12.125  17.429  0.00  0.00    +0.000 A 
ATOM     26  C   UNL     1      -0.774  11.810  18.305  0.00  0.00    +0.000 A 
ATOM     27 CL   UNL     1       0.398  13.047  18.594  0.00  0.00    +0.000 Cl
ENDBRANCH  19  20
ENDBRANCH   8  19
TORSDOF 4
ENDMDL
