MODEL 1
REMARK VINA RESULT:      -6.9      0.000      0.000
REMARK  Name = 
REMARK  14 active torsions:
REMARK  status: ('A' for Active; 'I' for Inactive)
REMARK    1  A    between atoms: C_1  and  O_2
REMARK    2  A    between atoms: O_2  and  C_3
REMARK    3  A    between atoms: C_3  and  C_4
REMARK    4  A    between atoms: C_4  and  O_5
REMARK    5  A    between atoms: O_5  and  C_6
REMARK    6  A    between atoms: C_6  and  C_8
REMARK    7  A    between atoms: C_9  and  C_10
REMARK    8  A    between atoms: C_15  and  O_16
REMARK    9  A    between atoms: O_16  and  C_17
REMARK   10  A    between atoms: C_17  and  C_19
REMARK   11  A    between atoms: C_20  and  O_21
REMARK   12  A    between atoms: O_21  and  C_22
REMARK   13  A    between atoms: C_26  and  O_27
REMARK   14  A    between atoms: O_27  and  C_28
REMARK                            x       y       z     vdW  Elec       q    Type
REMARK                         _______ _______ _______ _____ _____    ______ ____
ROOT
ATOM      1  C   UNL     1       0.347  10.440  20.665  0.00  0.00    +0.000 A 
ATOM      2  C   UNL     1       0.311  11.400  19.663  0.00  0.00    +0.000 A 
ATOM      3  C   UNL     1      -0.163  12.800  19.561  0.00  0.00    +0.000 C 
ATOM      4  O   UNL     1       0.892  10.923  18.529  0.00  0.00    +0.000 OA
ATOM      5  C   UNL     1       1.350   9.677  18.801  0.00  0.00    +0.000 A 
ATOM      6  C   UNL     1       2.026   8.871  17.893  0.00  0.00    +0.000 A 
ATOM      7  C   UNL     1       2.460   7.628  18.359  0.00  0.00    +0.000 A 
ATOM      8  C   UNL     1       2.263   7.243  19.685  0.00  0.00    +0.000 A 
ATOM      9  C   UNL     1       1.537   8.064  20.569  0.00  0.00    +0.000 A 
ATOM     10  C   UNL     1       1.066   9.323  20.111  0.00  0.00    +0.000 A 
ENDROOT
BRANCH   1  11
ATOM     11  C   UNL     1      -0.159  10.616  22.012  0.00  0.00    +0.000 C 
ATOM     12  O   UNL     1       0.434  10.277  23.029  0.00  0.00    +0.000 OA
BRANCH  11  13
ATOM     13  O   UNL     1      -1.421  11.126  22.016  0.00  0.00    +0.000 OA
BRANCH  13  14
ATOM     14  C   UNL     1      -1.616  12.126  23.012  0.00  0.00    +0.000 C 
BRANCH  14  15
ATOM     15  C   UNL     1      -3.062  12.210  23.463  0.00  0.00    +0.000 C 
BRANCH  15  17
ATOM     16  C   UNL     1      -3.648  14.300  24.392  0.00  0.00    +0.000 C 
ATOM     17  O   UNL     1      -3.509  13.540  23.203  0.00  0.00    +0.000 OA
ENDBRANCH  15  17
ENDBRANCH  14  15
ENDBRANCH  13  14
ENDBRANCH  11  13
ENDBRANCH   1  11
BRANCH   8  18
ATOM     18  O   UNL     1       2.744   6.013  20.220  0.00  0.00    +0.000 OA
BRANCH  18  19
ATOM     19  C   UNL     1       3.865   5.375  19.689  0.00  0.00    +0.000 C 
ATOM     20  O   UNL     1       5.024   5.767  19.771  0.00  0.00    +0.000 OA
BRANCH  19  21
ATOM     21  C   UNL     1       3.543   4.106  19.007  0.00  0.00    +0.000 A 
ATOM     22  C   UNL     1       3.701   3.997  17.608  0.00  0.00    +0.000 A 
ATOM     23  C   UNL     1       3.136   2.908  16.930  0.00  0.00    +0.000 A 
ATOM     24  C   UNL     1       2.447   1.918  17.619  0.00  0.00    +0.000 A 
ATOM     25  C   UNL     1       2.312   2.004  19.001  0.00  0.00    +0.000 A 
ATOM     26  C   UNL     1       2.834   3.100  19.705  0.00  0.00    +0.000 A 
BRANCH  22  27
ATOM     27  O   UNL     1       4.248   4.913  16.746  0.00  0.00    +0.000 OA
ATOM     28  C   UNL     1       5.023   4.416  15.662  0.00  0.00    +0.000 C 
ENDBRANCH  22  27
BRANCH  26  29
ATOM     29  O   UNL     1       2.670   3.243  21.062  0.00  0.00    +0.000 OA
ATOM     30  C   UNL     1       1.452   2.756  21.618  0.00  0.00    +0.000 C 
ENDBRANCH  26  29
ENDBRANCH  19  21
ENDBRANCH  18  19
ENDBRANCH   8  18
TORSDOF 10
ENDMDL
MODEL 2
REMARK VINA RESULT:      -6.9      0.481      2.442
REMARK  Name = 
REMARK  14 active torsions:
REMARK  status: ('A' for Active; 'I' for Inactive)
REMARK    1  A    between atoms: C_1  and  O_2
REMARK    2  A    between atoms: O_2  and  C_3
REMARK    3  A    between atoms: C_3  and  C_4
REMARK    4  A    between atoms: C_4  and  O_5
REMARK    5  A    between atoms: O_5  and  C_6
REMARK    6  A    between atoms: C_6  and  C_8
REMARK    7  A    between atoms: C_9  and  C_10
REMARK    8  A    between atoms: C_15  and  O_16
REMARK    9  A    between atoms: O_16  and  C_17
REMARK   10  A    between atoms: C_17  and  C_19
REMARK   11  A    between atoms: C_20  and  O_21
REMARK   12  A    between atoms: O_21  and  C_22
REMARK   13  A    between atoms: C_26  and  O_27
REMARK   14  A    between atoms: O_27  and  C_28
REMARK                            x       y       z     vdW  Elec       q    Type
REMARK                         _______ _______ _______ _____ _____    ______ ____
ROOT
ATOM      1  C   UNL     1       0.273  10.463  20.666  0.00  0.00    +0.000 A 
ATOM      2  C   UNL     1       0.241  11.431  19.672  0.00  0.00    +0.000 A 
ATOM      3  C   UNL     1      -0.242  12.828  19.574  0.00  0.00    +0.000 C 
ATOM      4  O   UNL     1       0.838  10.966  18.541  0.00  0.00    +0.000 OA
ATOM      5  C   UNL     1       1.302   9.722  18.808  0.00  0.00    +0.000 A 
ATOM      6  C   UNL     1       1.994   8.928  17.902  0.00  0.00    +0.000 A 
ATOM      7  C   UNL     1       2.431   7.684  18.362  0.00  0.00    +0.000 A 
ATOM      8  C   UNL     1       2.222   7.287  19.683  0.00  0.00    +0.000 A 
ATOM      9  C   UNL     1       1.480   8.096  20.565  0.00  0.00    +0.000 A 
ATOM     10  C   UNL     1       1.005   9.355  20.112  0.00  0.00    +0.000 A 
ENDROOT
BRANCH   1  11
ATOM     11  C   UNL     1      -0.250  10.625  22.009  0.00  0.00    +0.000 C 
ATOM     12  O   UNL     1       0.324  10.262  23.028  0.00  0.00    +0.000 OA
BRANCH  11  13
ATOM     13  O   UNL     1      -1.504  11.153  22.004  0.00  0.00    +0.000 OA
BRANCH  13  14
ATOM     14  C   UNL     1      -1.848  11.789  23.232  0.00  0.00    +0.000 C 
BRANCH  14  15
ATOM     15  C   UNL     1      -1.542  13.275  23.212  0.00  0.00    +0.000 C 
BRANCH  15  17
ATOM     16  C   UNL     1      -3.704  13.112  24.147  0.00  0.00    +0.000 C 
ATOM     17  O   UNL     1      -2.755  13.960  23.522  0.00  0.00    +0.000 OA
ENDBRANCH  15  17
ENDBRANCH  14  15
ENDBRANCH  13  14
ENDBRANCH  11  13
ENDBRANCH   1  11
BRANCH   8  18
ATOM     18  O   UNL     1       2.706   6.057  20.214  0.00  0.00    +0.000 OA
BRANCH  18  19
ATOM     19  C   UNL     1       3.815   5.411  19.667  0.00  0.00    +0.000 C 
ATOM     20  O   UNL     1       4.979   5.785  19.749  0.00  0.00    +0.000 OA
BRANCH  19  21
ATOM     21  C   UNL     1       3.470   4.159  18.965  0.00  0.00    +0.000 A 
ATOM     22  C   UNL     1       3.094   3.017  19.705  0.00  0.00    +0.000 A 
ATOM     23  C   UNL     1       3.044   1.767  19.072  0.00  0.00    +0.000 A 
ATOM     24  C   UNL     1       3.330   1.641  17.719  0.00  0.00    +0.000 A 
ATOM     25  C   UNL     1       3.674   2.767  16.977  0.00  0.00    +0.000 A 
ATOM     26  C   UNL     1       3.769   4.026  17.588  0.00  0.00    +0.000 A 
BRANCH  22  27
ATOM     27  O   UNL     1       2.879   2.918  21.057  0.00  0.00    +0.000 OA
ATOM     28  C   UNL     1       1.532   2.891  21.510  0.00  0.00    +0.000 C 
ENDBRANCH  22  27
BRANCH  26  29
ATOM     29  O   UNL     1       4.159   5.147  16.897  0.00  0.00    +0.000 OA
ATOM     30  C   UNL     1       5.249   4.998  15.992  0.00  0.00    +0.000 C 
ENDBRANCH  26  29
ENDBRANCH  19  21
ENDBRANCH  18  19
ENDBRANCH   8  18
TORSDOF 10
ENDMDL
MODEL 3
REMARK VINA RESULT:      -6.7      2.364      9.177
REMARK  Name = 
REMARK  14 active torsions:
REMARK  status: ('A' for Active; 'I' for Inactive)
REMARK    1  A    between atoms: C_1  and  O_2
REMARK    2  A    between atoms: O_2  and  C_3
REMARK    3  A    between atoms: C_3  and  C_4
REMARK    4  A    between atoms: C_4  and  O_5
REMARK    5  A    between atoms: O_5  and  C_6
REMARK    6  A    between atoms: C_6  and  C_8
REMARK    7  A    between atoms: C_9  and  C_10
REMARK    8  A    between atoms: C_15  and  O_16
REMARK    9  A    between atoms: O_16  and  C_17
REMARK   10  A    between atoms: C_17  and  C_19
REMARK   11  A    between atoms: C_20  and  O_21
REMARK   12  A    between atoms: O_21  and  C_22
REMARK   13  A    between atoms: C_26  and  O_27
REMARK   14  A    between atoms: O_27  and  C_28
REMARK                            x       y       z     vdW  Elec       q    Type
REMARK                         _______ _______ _______ _____ _____    ______ ____
ROOT
ATOM      1  C   UNL     1       4.214   5.939  17.847  0.00  0.00    +0.000 A 
ATOM      2  C   UNL     1       4.306   4.948  18.814  0.00  0.00    +0.000 A 
ATOM      3  C   UNL     1       5.131   3.732  19.004  0.00  0.00    +0.000 C 
ATOM      4  O   UNL     1       3.444   5.204  19.836  0.00  0.00    +0.000 OA
ATOM      5  C   UNL     1       2.830   6.380  19.565  0.00  0.00    +0.000 A 
ATOM      6  C   UNL     1       1.892   6.988  20.390  0.00  0.00    +0.000 A 
ATOM      7  C   UNL     1       1.389   8.220  19.969  0.00  0.00    +0.000 A 
ATOM      8  C   UNL     1       1.847   8.828  18.800  0.00  0.00    +0.000 A 
ATOM      9  C   UNL     1       2.767   8.167  17.962  0.00  0.00    +0.000 A 
ATOM     10  C   UNL     1       3.275   6.902  18.359  0.00  0.00    +0.000 A 
ENDROOT
BRANCH   1  11
ATOM     11  C   UNL     1       5.006   6.000  16.633  0.00  0.00    +0.000 C 
ATOM     12  O   UNL     1       5.048   5.118  15.785  0.00  0.00    +0.000 OA
BRANCH  11  13
ATOM     13  O   UNL     1       5.772   7.123  16.584  0.00  0.00    +0.000 OA
BRANCH  13  14
ATOM     14  C   UNL     1       6.946   7.034  17.387  0.00  0.00    +0.000 C 
BRANCH  14  15
ATOM     15  C   UNL     1       7.707   8.345  17.436  0.00  0.00    +0.000 C 
BRANCH  15  17
ATOM     16  C   UNL     1       9.002   9.618  18.945  0.00  0.00    +0.000 C 
ATOM     17  O   UNL     1       8.490   8.334  18.629  0.00  0.00    +0.000 OA
ENDBRANCH  15  17
ENDBRANCH  14  15
ENDBRANCH  13  14
ENDBRANCH  11  13
ENDBRANCH   1  11
BRANCH   8  18
ATOM     18  O   UNL     1       1.411  10.112  18.364  0.00  0.00    +0.000 OA
BRANCH  18  19
ATOM     19  C   UNL     1       0.181  10.638  18.760  0.00  0.00    +0.000 C 
ATOM     20  O   UNL     1      -0.917  10.307  18.327  0.00  0.00    +0.000 OA
BRANCH  19  21
ATOM     21  C   UNL     1       0.299  11.660  19.818  0.00  0.00    +0.000 A 
ATOM     22  C   UNL     1      -0.211  11.402  21.109  0.00  0.00    +0.000 A 
ATOM     23  C   UNL     1      -0.355  12.457  22.020  0.00  0.00    +0.000 A 
ATOM     24  C   UNL     1       0.026  13.749  21.682  0.00  0.00    +0.000 A 
ATOM     25  C   UNL     1       0.557  14.006  20.422  0.00  0.00    +0.000 A 
ATOM     26  C   UNL     1       0.680  12.979  19.474  0.00  0.00    +0.000 A 
BRANCH  22  27
ATOM     27  O   UNL     1      -0.736  10.230  21.591  0.00  0.00    +0.000 OA
ATOM     28  C   UNL     1      -0.381   9.844  22.913  0.00  0.00    +0.000 C 
ENDBRANCH  22  27
BRANCH  26  29
ATOM     29  O   UNL     1       1.148  13.210  18.203  0.00  0.00    +0.000 OA
ATOM     30  C   UNL     1       2.522  13.565  18.077  0.00  0.00    +0.000 C 
ENDBRANCH  26  29
ENDBRANCH  19  21
ENDBRANCH  18  19
ENDBRANCH   8  18
TORSDOF 10
ENDMDL
MODEL 4
REMARK VINA RESULT:      -6.7      1.273      1.877
REMARK  Name = 
REMARK  14 active torsions:
REMARK  status: ('A' for Active; 'I' for Inactive)
REMARK    1  A    between atoms: C_1  and  O_2
REMARK    2  A    between atoms: O_2  and  C_3
REMARK    3  A    between atoms: C_3  and  C_4
REMARK    4  A    between atoms: C_4  and  O_5
REMARK    5  A    between atoms: O_5  and  C_6
REMARK    6  A    between atoms: C_6  and  C_8
REMARK    7  A    between atoms: C_9  and  C_10
REMARK    8  A    between atoms: C_15  and  O_16
REMARK    9  A    between atoms: O_16  and  C_17
REMARK   10  A    between atoms: C_17  and  C_19
REMARK   11  A    between atoms: C_20  and  O_21
REMARK   12  A    between atoms: O_21  and  C_22
REMARK   13  A    between atoms: C_26  and  O_27
REMARK   14  A    between atoms: O_27  and  C_28
REMARK                            x       y       z     vdW  Elec       q    Type
REMARK                         _______ _______ _______ _____ _____    ______ ____
ROOT
ATOM      1  C   UNL     1      -0.053  10.538  20.516  0.00  0.00    +0.000 A 
ATOM      2  C   UNL     1      -0.352  11.320  19.409  0.00  0.00    +0.000 A 
ATOM      3  C   UNL     1      -1.059  12.601  19.182  0.00  0.00    +0.000 C 
ATOM      4  O   UNL     1       0.179  10.768  18.284  0.00  0.00    +0.000 OA
ATOM      5  C   UNL     1       0.863   9.661  18.658  0.00  0.00    +0.000 A 
ATOM      6  C   UNL     1       1.565   8.836  17.788  0.00  0.00    +0.000 A 
ATOM      7  C   UNL     1       2.245   7.757  18.355  0.00  0.00    +0.000 A 
ATOM      8  C   UNL     1       2.254   7.552  19.734  0.00  0.00    +0.000 A 
ATOM      9  C   UNL     1       1.498   8.379  20.587  0.00  0.00    +0.000 A 
ATOM     10  C   UNL     1       0.780   9.470  20.030  0.00  0.00    +0.000 A 
ENDROOT
BRANCH   1  11
ATOM     11  C   UNL     1      -0.438  10.839  21.882  0.00  0.00    +0.000 C 
ATOM     12  O   UNL     1       0.177  10.473  22.876  0.00  0.00    +0.000 OA
BRANCH  11  13
ATOM     13  O   UNL     1      -1.623  11.506  21.938  0.00  0.00    +0.000 OA
BRANCH  13  14
ATOM     14  C   UNL     1      -1.851  12.133  23.197  0.00  0.00    +0.000 C 
BRANCH  14  15
ATOM     15  C   UNL     1      -3.061  13.048  23.169  0.00  0.00    +0.000 C 
BRANCH  15  17
ATOM     16  C   UNL     1      -5.312  12.918  22.470  0.00  0.00    +0.000 C 
ATOM     17  O   UNL     1      -4.215  12.219  23.030  0.00  0.00    +0.000 OA
ENDBRANCH  15  17
ENDBRANCH  14  15
ENDBRANCH  13  14
ENDBRANCH  11  13
ENDBRANCH   1  11
BRANCH   8  18
ATOM     18  O   UNL     1       2.985   6.503  20.363  0.00  0.00    +0.000 OA
BRANCH  18  19
ATOM     19  C   UNL     1       2.608   5.166  20.227  0.00  0.00    +0.000 C 
ATOM     20  O   UNL     1       1.795   4.573  20.927  0.00  0.00    +0.000 OA
BRANCH  19  21
ATOM     21  C   UNL     1       3.273   4.486  19.098  0.00  0.00    +0.000 A 
ATOM     22  C   UNL     1       4.656   4.668  18.882  0.00  0.00    +0.000 A 
ATOM     23  C   UNL     1       5.225   4.262  17.667  0.00  0.00    +0.000 A 
ATOM     24  C   UNL     1       4.454   3.655  16.684  0.00  0.00    +0.000 A 
ATOM     25  C   UNL     1       3.095   3.447  16.903  0.00  0.00    +0.000 A 
ATOM     26  C   UNL     1       2.487   3.875  18.092  0.00  0.00    +0.000 A 
BRANCH  22  27
ATOM     27  O   UNL     1       5.556   5.334  19.675  0.00  0.00    +0.000 OA
ATOM     28  C   UNL     1       6.831   5.629  19.120  0.00  0.00    +0.000 C 
ENDBRANCH  22  27
BRANCH  26  29
ATOM     29  O   UNL     1       1.139   3.736  18.316  0.00  0.00    +0.000 OA
ATOM     30  C   UNL     1       0.671   2.428  18.634  0.00  0.00    +0.000 C 
ENDBRANCH  26  29
ENDBRANCH  19  21
ENDBRANCH  18  19
ENDBRANCH   8  18
TORSDOF 10
ENDMDL
MODEL 5
REMARK VINA RESULT:      -6.6      2.014      9.184
REMARK  Name = 
REMARK  14 active torsions:
REMARK  status: ('A' for Active; 'I' for Inactive)
REMARK    1  A    between atoms: C_1  and  O_2
REMARK    2  A    between atoms: O_2  and  C_3
REMARK    3  A    between atoms: C_3  and  C_4
REMARK    4  A    between atoms: C_4  and  O_5
REMARK    5  A    between atoms: O_5  and  C_6
REMARK    6  A    between atoms: C_6  and  C_8
REMARK    7  A    between atoms: C_9  and  C_10
REMARK    8  A    between atoms: C_15  and  O_16
REMARK    9  A    between atoms: O_16  and  C_17
REMARK   10  A    between atoms: C_17  and  C_19
REMARK   11  A    between atoms: C_20  and  O_21
REMARK   12  A    between atoms: O_21  and  C_22
REMARK   13  A    between atoms: C_26  and  O_27
REMARK   14  A    between atoms: O_27  and  C_28
REMARK                            x       y       z     vdW  Elec       q    Type
REMARK                         _______ _______ _______ _____ _____    ______ ____
ROOT
ATOM      1  C   UNL     1       3.456   5.218  18.352  0.00  0.00    +0.000 A 
ATOM      2  C   UNL     1       3.407   4.258  19.353  0.00  0.00    +0.000 A 
ATOM      3  C   UNL     1       3.977   2.905  19.546  0.00  0.00    +0.000 C 
ATOM      4  O   UNL     1       2.686   4.717  20.412  0.00  0.00    +0.000 OA
ATOM      5  C   UNL     1       2.308   5.987  20.127  0.00  0.00    +0.000 A 
ATOM      6  C   UNL     1       1.572   6.800  20.980  0.00  0.00    +0.000 A 
ATOM      7  C   UNL     1       1.305   8.096  20.536  0.00  0.00    +0.000 A 
ATOM      8  C   UNL     1       1.799   8.561  19.317  0.00  0.00    +0.000 A 
ATOM      9  C   UNL     1       2.506   7.699  18.456  0.00  0.00    +0.000 A 
ATOM     10  C   UNL     1       2.770   6.369  18.876  0.00  0.00    +0.000 A 
ENDROOT
BRANCH   1  11
ATOM     11  C   UNL     1       4.161   5.078  17.092  0.00  0.00    +0.000 C 
ATOM     12  O   UNL     1       4.127   4.080  16.382  0.00  0.00    +0.000 OA
BRANCH  11  13
ATOM     13  O   UNL     1       4.943   6.159  16.826  0.00  0.00    +0.000 OA
BRANCH  13  14
ATOM     14  C   UNL     1       6.217   6.096  17.460  0.00  0.00    +0.000 C 
BRANCH  14  15
ATOM     15  C   UNL     1       7.132   5.077  16.807  0.00  0.00    +0.000 C 
BRANCH  15  17
ATOM     16  C   UNL     1       7.058   4.864  14.457  0.00  0.00    +0.000 C 
ATOM     17  O   UNL     1       7.543   5.620  15.553  0.00  0.00    +0.000 OA
ENDBRANCH  15  17
ENDBRANCH  14  15
ENDBRANCH  13  14
ENDBRANCH  11  13
ENDBRANCH   1  11
BRANCH   8  18
ATOM     18  O   UNL     1       1.607   9.894  18.854  0.00  0.00    +0.000 OA
BRANCH  18  19
ATOM     19  C   UNL     1       0.347  10.495  18.860  0.00  0.00    +0.000 C 
ATOM     20  O   UNL     1      -0.654  10.074  18.292  0.00  0.00    +0.000 OA
BRANCH  19  21
ATOM     21  C   UNL     1       0.296  11.728  19.669  0.00  0.00    +0.000 A 
ATOM     22  C   UNL     1       0.984  12.883  19.238  0.00  0.00    +0.000 A 
ATOM     23  C   UNL     1       1.171  13.949  20.129  0.00  0.00    +0.000 A 
ATOM     24  C   UNL     1       0.662  13.899  21.420  0.00  0.00    +0.000 A 
ATOM     25  C   UNL     1      -0.042  12.776  21.842  0.00  0.00    +0.000 A 
ATOM     26  C   UNL     1      -0.215  11.676  20.987  0.00  0.00    +0.000 A 
BRANCH  22  27
ATOM     27  O   UNL     1       1.645  13.080  18.053  0.00  0.00    +0.000 OA
ATOM     28  C   UNL     1       3.001  13.505  18.117  0.00  0.00    +0.000 C 
ENDBRANCH  22  27
BRANCH  26  29
ATOM     29  O   UNL     1      -0.857  10.531  21.391  0.00  0.00    +0.000 OA
ATOM     30  C   UNL     1      -0.738  10.176  22.766  0.00  0.00    +0.000 C 
ENDBRANCH  26  29
ENDBRANCH  19  21
ENDBRANCH  18  19
ENDBRANCH   8  18
TORSDOF 10
ENDMDL
MODEL 6
REMARK VINA RESULT:      -6.6      1.523      2.900
REMARK  Name = 
REMARK  14 active torsions:
REMARK  status: ('A' for Active; 'I' for Inactive)
REMARK    1  A    between atoms: C_1  and  O_2
REMARK    2  A    between atoms: O_2  and  C_3
REMARK    3  A    between atoms: C_3  and  C_4
REMARK    4  A    between atoms: C_4  and  O_5
REMARK    5  A    between atoms: O_5  and  C_6
REMARK    6  A    between atoms: C_6  and  C_8
REMARK    7  A    between atoms: C_9  and  C_10
REMARK    8  A    between atoms: C_15  and  O_16
REMARK    9  A    between atoms: O_16  and  C_17
REMARK   10  A    between atoms: C_17  and  C_19
REMARK   11  A    between atoms: C_20  and  O_21
REMARK   12  A    between atoms: O_21  and  C_22
REMARK   13  A    between atoms: C_26  and  O_27
REMARK   14  A    between atoms: O_27  and  C_28
REMARK                            x       y       z     vdW  Elec       q    Type
REMARK                         _______ _______ _______ _____ _____    ______ ____
ROOT
ATOM      1  C   UNL     1       0.333   9.675  20.565  0.00  0.00    +0.000 A 
ATOM      2  C   UNL     1       0.202  10.797  19.758  0.00  0.00    +0.000 A 
ATOM      3  C   UNL     1      -0.442  12.124  19.892  0.00  0.00    +0.000 C 
ATOM      4  O   UNL     1       0.870  10.616  18.586  0.00  0.00    +0.000 OA
ATOM      5  C   UNL     1       1.475   9.406  18.645  0.00  0.00    +0.000 A 
ATOM      6  C   UNL     1       2.272   8.873  17.640  0.00  0.00    +0.000 A 
ATOM      7  C   UNL     1       2.848   7.626  17.888  0.00  0.00    +0.000 A 
ATOM      8  C   UNL     1       2.665   6.975  19.108  0.00  0.00    +0.000 A 
ATOM      9  C   UNL     1       1.817   7.520  20.091  0.00  0.00    +0.000 A 
ATOM     10  C   UNL     1       1.203   8.778  19.852  0.00  0.00    +0.000 A 
ENDROOT
BRANCH   1  11
ATOM     11  C   UNL     1      -0.227   9.531  21.894  0.00  0.00    +0.000 C 
ATOM     12  O   UNL     1      -0.790   8.524  22.308  0.00  0.00    +0.000 OA
BRANCH  11  13
ATOM     13  O   UNL     1      -0.135  10.684  22.611  0.00  0.00    +0.000 OA
BRANCH  13  14
ATOM     14  C   UNL     1      -1.348  11.028  23.273  0.00  0.00    +0.000 C 
BRANCH  14  15
ATOM     15  C   UNL     1      -1.676  12.504  23.137  0.00  0.00    +0.000 C 
BRANCH  15  17
ATOM     16  C   UNL     1      -3.820  12.710  22.173  0.00  0.00    +0.000 C 
ATOM     17  O   UNL     1      -3.075  12.650  23.377  0.00  0.00    +0.000 OA
ENDBRANCH  15  17
ENDBRANCH  14  15
ENDBRANCH  13  14
ENDBRANCH  11  13
ENDBRANCH   1  11
BRANCH   8  18
ATOM     18  O   UNL     1       3.284   5.733  19.431  0.00  0.00    +0.000 OA
BRANCH  18  19
ATOM     19  C   UNL     1       4.601   5.456  19.064  0.00  0.00    +0.000 C 
ATOM     20  O   UNL     1       5.565   5.412  19.819  0.00  0.00    +0.000 OA
BRANCH  19  21
ATOM     21  C   UNL     1       4.756   5.175  17.623  0.00  0.00    +0.000 A 
ATOM     22  C   UNL     1       4.189   4.008  17.067  0.00  0.00    +0.000 A 
ATOM     23  C   UNL     1       4.569   3.598  15.782  0.00  0.00    +0.000 A 
ATOM     24  C   UNL     1       5.474   4.341  15.034  0.00  0.00    +0.000 A 
ATOM     25  C   UNL     1       6.016   5.507  15.565  0.00  0.00    +0.000 A 
ATOM     26  C   UNL     1       5.684   5.925  16.862  0.00  0.00    +0.000 A 
BRANCH  22  27
ATOM     27  O   UNL     1       3.369   3.093  17.678  0.00  0.00    +0.000 OA
ATOM     28  C   UNL     1       3.987   2.011  18.364  0.00  0.00    +0.000 C 
ENDBRANCH  22  27
BRANCH  26  29
ATOM     29  O   UNL     1       6.243   7.041  17.436  0.00  0.00    +0.000 OA
ATOM     30  C   UNL     1       7.663   7.059  17.561  0.00  0.00    +0.000 C 
ENDBRANCH  26  29
ENDBRANCH  19  21
ENDBRANCH  18  19
ENDBRANCH   8  18
TORSDOF 10
ENDMDL
MODEL 7
REMARK VINA RESULT:      -6.6      2.115      9.083
REMARK  Name = 
REMARK  14 active torsions:
REMARK  status: ('A' for Active; 'I' for Inactive)
REMARK    1  A    between atoms: C_1  and  O_2
REMARK    2  A    between atoms: O_2  and  C_3
REMARK    3  A    between atoms: C_3  and  C_4
REMARK    4  A    between atoms: C_4  and  O_5
REMARK    5  A    between atoms: O_5  and  C_6
REMARK    6  A    between atoms: C_6  and  C_8
REMARK    7  A    between atoms: C_9  and  C_10
REMARK    8  A    between atoms: C_15  and  O_16
REMARK    9  A    between atoms: O_16  and  C_17
REMARK   10  A    between atoms: C_17  and  C_19
REMARK   11  A    between atoms: C_20  and  O_21
REMARK   12  A    between atoms: O_21  and  C_22
REMARK   13  A    between atoms: C_26  and  O_27
REMARK   14  A    between atoms: O_27  and  C_28
REMARK                            x       y       z     vdW  Elec       q    Type
REMARK                         _______ _______ _______ _____ _____    ______ ____
ROOT
ATOM      1  C   UNL     1       3.694   4.238  17.803  0.00  0.00    +0.000 A 
ATOM      2  C   UNL     1       3.354   3.048  18.432  0.00  0.00    +0.000 A 
ATOM      3  C   UNL     1       3.727   1.624  18.269  0.00  0.00    +0.000 C 
ATOM      4  O   UNL     1       2.502   3.287  19.467  0.00  0.00    +0.000 OA
ATOM      5  C   UNL     1       2.325   4.628  19.546  0.00  0.00    +0.000 A 
ATOM      6  C   UNL     1       1.535   5.264  20.495  0.00  0.00    +0.000 A 
ATOM      7  C   UNL     1       1.499   6.659  20.450  0.00  0.00    +0.000 A 
ATOM      8  C   UNL     1       2.259   7.373  19.524  0.00  0.00    +0.000 A 
ATOM      9  C   UNL     1       3.016   6.699  18.547  0.00  0.00    +0.000 A 
ATOM     10  C   UNL     1       3.051   5.280  18.559  0.00  0.00    +0.000 A 
ENDROOT
BRANCH   1  11
ATOM     11  C   UNL     1       4.602   4.360  16.679  0.00  0.00    +0.000 C 
ATOM     12  O   UNL     1       4.947   3.432  15.958  0.00  0.00    +0.000 OA
BRANCH  11  13
ATOM     13  O   UNL     1       5.101   5.621  16.567  0.00  0.00    +0.000 OA
BRANCH  13  14
ATOM     14  C   UNL     1       6.519   5.673  16.689  0.00  0.00    +0.000 C 
BRANCH  14  15
ATOM     15  C   UNL     1       6.967   6.679  17.733  0.00  0.00    +0.000 C 
BRANCH  15  17
ATOM     16  C   UNL     1       8.109   8.740  17.878  0.00  0.00    +0.000 C 
ATOM     17  O   UNL     1       7.402   7.846  17.036  0.00  0.00    +0.000 OA
ENDBRANCH  15  17
ENDBRANCH  14  15
ENDBRANCH  13  14
ENDBRANCH  11  13
ENDBRANCH   1  11
BRANCH   8  18
ATOM     18  O   UNL     1       2.303   8.796  19.483  0.00  0.00    +0.000 OA
BRANCH  18  19
ATOM     19  C   UNL     1       1.261   9.544  18.933  0.00  0.00    +0.000 C 
ATOM     20  O   UNL     1       0.669   9.295  17.890  0.00  0.00    +0.000 OA
BRANCH  19  21
ATOM     21  C   UNL     1       0.880  10.706  19.760  0.00  0.00    +0.000 A 
ATOM     22  C   UNL     1      -0.037  10.546  20.821  0.00  0.00    +0.000 A 
ATOM     23  C   UNL     1      -0.610  11.678  21.416  0.00  0.00    +0.000 A 
ATOM     24  C   UNL     1      -0.266  12.957  20.997  0.00  0.00    +0.000 A 
ATOM     25  C   UNL     1       0.659  13.122  19.971  0.00  0.00    +0.000 A 
ATOM     26  C   UNL     1       1.224  12.009  19.330  0.00  0.00    +0.000 A 
BRANCH  22  27
ATOM     27  O   UNL     1      -0.580   9.381  21.302  0.00  0.00    +0.000 OA
ATOM     28  C   UNL     1      -0.437   9.112  22.691  0.00  0.00    +0.000 C 
ENDBRANCH  22  27
BRANCH  26  29
ATOM     29  O   UNL     1       2.097  12.137  18.277  0.00  0.00    +0.000 OA
ATOM     30  C   UNL     1       2.849  13.345  18.207  0.00  0.00    +0.000 C 
ENDBRANCH  26  29
ENDBRANCH  19  21
ENDBRANCH  18  19
ENDBRANCH   8  18
TORSDOF 10
ENDMDL
MODEL 8
REMARK VINA RESULT:      -6.5      1.841      8.980
REMARK  Name = 
REMARK  14 active torsions:
REMARK  status: ('A' for Active; 'I' for Inactive)
REMARK    1  A    between atoms: C_1  and  O_2
REMARK    2  A    between atoms: O_2  and  C_3
REMARK    3  A    between atoms: C_3  and  C_4
REMARK    4  A    between atoms: C_4  and  O_5
REMARK    5  A    between atoms: O_5  and  C_6
REMARK    6  A    between atoms: C_6  and  C_8
REMARK    7  A    between atoms: C_9  and  C_10
REMARK    8  A    between atoms: C_15  and  O_16
REMARK    9  A    between atoms: O_16  and  C_17
REMARK   10  A    between atoms: C_17  and  C_19
REMARK   11  A    between atoms: C_20  and  O_21
REMARK   12  A    between atoms: O_21  and  C_22
REMARK   13  A    between atoms: C_26  and  O_27
REMARK   14  A    between atoms: O_27  and  C_28
REMARK                            x       y       z     vdW  Elec       q    Type
REMARK                         _______ _______ _______ _____ _____    ______ ____
ROOT
ATOM      1  C   UNL     1       2.366   6.412  19.472  0.00  0.00    +0.000 A 
ATOM      2  C   UNL     1       3.164   6.412  18.336  0.00  0.00    +0.000 A 
ATOM      3  C   UNL     1       3.990   5.409  17.627  0.00  0.00    +0.000 C 
ATOM      4  O   UNL     1       3.125   7.631  17.732  0.00  0.00    +0.000 OA
ATOM      5  C   UNL     1       2.269   8.408  18.439  0.00  0.00    +0.000 A 
ATOM      6  C   UNL     1       1.948   9.721  18.118  0.00  0.00    +0.000 A 
ATOM      7  C   UNL     1       1.016  10.359  18.939  0.00  0.00    +0.000 A 
ATOM      8  C   UNL     1       0.405   9.687  19.998  0.00  0.00    +0.000 A 
ATOM      9  C   UNL     1       0.783   8.371  20.324  0.00  0.00    +0.000 A 
ATOM     10  C   UNL     1       1.746   7.709  19.518  0.00  0.00    +0.000 A 
ENDROOT
BRANCH   1  11
ATOM     11  C   UNL     1       2.153   5.273  20.344  0.00  0.00    +0.000 C 
ATOM     12  O   UNL     1       3.013   4.772  21.059  0.00  0.00    +0.000 OA
BRANCH  11  13
ATOM     13  O   UNL     1       0.899   4.762  20.212  0.00  0.00    +0.000 OA
BRANCH  13  14
ATOM     14  C   UNL     1       0.878   3.338  20.165  0.00  0.00    +0.000 C 
BRANCH  14  15
ATOM     15  C   UNL     1       1.286   2.805  18.804  0.00  0.00    +0.000 C 
BRANCH  15  17
ATOM     16  C   UNL     1       3.337   1.864  18.109  0.00  0.00    +0.000 C 
ATOM     17  O   UNL     1       2.258   1.783  19.025  0.00  0.00    +0.000 OA
ENDBRANCH  15  17
ENDBRANCH  14  15
ENDBRANCH  13  14
ENDBRANCH  11  13
ENDBRANCH   1  11
BRANCH   8  18
ATOM     18  O   UNL     1      -0.597  10.276  20.821  0.00  0.00    +0.000 OA
BRANCH  18  19
ATOM     19  C   UNL     1      -0.271  10.966  21.989  0.00  0.00    +0.000 C 
ATOM     20  O   UNL     1       0.165  10.469  23.021  0.00  0.00    +0.000 OA
BRANCH  19  21
ATOM     21  C   UNL     1      -0.471  12.425  21.878  0.00  0.00    +0.000 A 
ATOM     22  C   UNL     1       0.624  13.267  21.589  0.00  0.00    +0.000 A 
ATOM     23  C   UNL     1       0.497  14.652  21.763  0.00  0.00    +0.000 A 
ATOM     24  C   UNL     1      -0.703  15.211  22.185  0.00  0.00    +0.000 A 
ATOM     25  C   UNL     1      -1.795  14.389  22.444  0.00  0.00    +0.000 A 
ATOM     26  C   UNL     1      -1.689  12.996  22.316  0.00  0.00    +0.000 A 
BRANCH  22  27
ATOM     27  O   UNL     1       1.908  12.904  21.268  0.00  0.00    +0.000 OA
ATOM     28  C   UNL     1       2.591  13.689  20.298  0.00  0.00    +0.000 C 
ENDBRANCH  22  27
BRANCH  26  29
ATOM     29  O   UNL     1      -2.732  12.153  22.617  0.00  0.00    +0.000 OA
ATOM     30  C   UNL     1      -3.471  12.439  23.800  0.00  0.00    +0.000 C 
ENDBRANCH  26  29
ENDBRANCH  19  21
ENDBRANCH  18  19
ENDBRANCH   8  18
TORSDOF 10
ENDMDL
MODEL 9
REMARK VINA RESULT:      -6.5      5.774      9.605
REMARK  Name = 
REMARK  14 active torsions:
REMARK  status: ('A' for Active; 'I' for Inactive)
REMARK    1  A    between atoms: C_1  and  O_2
REMARK    2  A    between atoms: O_2  and  C_3
REMARK    3  A    between atoms: C_3  and  C_4
REMARK    4  A    between atoms: C_4  and  O_5
REMARK    5  A    between atoms: O_5  and  C_6
REMARK    6  A    between atoms: C_6  and  C_8
REMARK    7  A    between atoms: C_9  and  C_10
REMARK    8  A    between atoms: C_15  and  O_16
REMARK    9  A    between atoms: O_16  and  C_17
REMARK   10  A    between atoms: C_17  and  C_19
REMARK   11  A    between atoms: C_20  and  O_21
REMARK   12  A    between atoms: O_21  and  C_22
REMARK   13  A    between atoms: C_26  and  O_27
REMARK   14  A    between atoms: O_27  and  C_28
REMARK                            x       y       z     vdW  Elec       q    Type
REMARK                         _______ _______ _______ _____ _____    ______ ____
ROOT
ATOM      1  C   UNL     1      -3.522  11.266  17.609  0.00  0.00    +0.000 A 
ATOM      2  C   UNL     1      -2.966  10.447  16.636  0.00  0.00    +0.000 A 
ATOM      3  C   UNL     1      -3.432   9.860  15.359  0.00  0.00    +0.000 C 
ATOM      4  O   UNL     1      -1.669  10.167  16.940  0.00  0.00    +0.000 OA
ATOM      5  C   UNL     1      -1.363  10.837  18.076  0.00  0.00    +0.000 A 
ATOM      6  C   UNL     1      -0.118  10.819  18.691  0.00  0.00    +0.000 A 
ATOM      7  C   UNL     1       0.029  11.602  19.838  0.00  0.00    +0.000 A 
ATOM      8  C   UNL     1      -1.015  12.398  20.309  0.00  0.00    +0.000 A 
ATOM      9  C   UNL     1      -2.279  12.362  19.689  0.00  0.00    +0.000 A 
ATOM     10  C   UNL     1      -2.458  11.556  18.534  0.00  0.00    +0.000 A 
ENDROOT
BRANCH   1  11
ATOM     11  C   UNL     1      -4.878  11.782  17.594  0.00  0.00    +0.000 C 
ATOM     12  O   UNL     1      -5.412  12.306  16.626  0.00  0.00    +0.000 OA
BRANCH  11  13
ATOM     13  O   UNL     1      -5.465  11.695  18.819  0.00  0.00    +0.000 OA
BRANCH  13  14
ATOM     14  C   UNL     1      -6.420  10.642  18.907  0.00  0.00    +0.000 C 
BRANCH  14  15
ATOM     15  C   UNL     1      -7.339  10.801  20.104  0.00  0.00    +0.000 C 
BRANCH  15  17
ATOM     16  C   UNL     1      -7.006   8.477  19.859  0.00  0.00    +0.000 C 
ATOM     17  O   UNL     1      -7.481   9.513  20.701  0.00  0.00    +0.000 OA
ENDBRANCH  15  17
ENDBRANCH  14  15
ENDBRANCH  13  14
ENDBRANCH  11  13
ENDBRANCH   1  11
BRANCH   8  18
ATOM     18  O   UNL     1      -0.892  13.261  21.436  0.00  0.00    +0.000 OA
BRANCH  18  19
ATOM     19  C   UNL     1      -1.099  12.798  22.736  0.00  0.00    +0.000 C 
ATOM     20  O   UNL     1      -0.637  11.770  23.216  0.00  0.00    +0.000 OA
BRANCH  19  21
ATOM     21  C   UNL     1      -1.940  13.701  23.547  0.00  0.00    +0.000 A 
ATOM     22  C   UNL     1      -3.327  13.465  23.655  0.00  0.00    +0.000 A 
ATOM     23  C   UNL     1      -4.160  14.463  24.179  0.00  0.00    +0.000 A 
ATOM     24  C   UNL     1      -3.636  15.670  24.622  0.00  0.00    +0.000 A 
ATOM     25  C   UNL     1      -2.266  15.899  24.545  0.00  0.00    +0.000 A 
ATOM     26  C   UNL     1      -1.409  14.935  23.992  0.00  0.00    +0.000 A 
BRANCH  22  27
ATOM     27  O   UNL     1      -4.042  12.394  23.181  0.00  0.00    +0.000 OA
ATOM     28  C   UNL     1      -5.019  12.645  22.179  0.00  0.00    +0.000 C 
ENDBRANCH  22  27
BRANCH  26  29
ATOM     29  O   UNL     1      -0.060  15.151  23.850  0.00  0.00    +0.000 OA
ATOM     30  C   UNL     1       0.338  16.406  23.305  0.00  0.00    +0.000 C 
ENDBRANCH  26  29
ENDBRANCH  19  21
ENDBRANCH  18  19
ENDBRANCH   8  18
TORSDOF 10
ENDMDL
