MODEL 1
REMARK VINA RESULT:      -7.2      0.000      0.000
REMARK  Name = 
REMARK  6 active torsions:
REMARK  status: ('A' for Active; 'I' for Inactive)
REMARK    1  A    between atoms: C_2  and  C_4
REMARK    2  A    between atoms: N_8  and  C_9
REMARK    3  A    between atoms: C_9  and  C_10
REMARK    4  A    between atoms: C_10  and  O_11
REMARK    5  A    between atoms: O_11  and  C_12
REMARK    6  A    between atoms: C_12  and  C_14
REMARK                            x       y       z     vdW  Elec       q    Type
REMARK                         _______ _______ _______ _____ _____    ______ ____
ROOT
ATOM      1  C   UNL     1       6.289   4.936  18.502  0.00  0.00    +0.000 C 
ENDROOT
BRANCH   1   2
ATOM      2  C   UNL     1       4.882   5.471  18.226  0.00  0.00    +0.000 C 
BRANCH   2   7
ATOM      3  C   UNL     1       2.575   3.006  19.825  0.00  0.00    +0.000 A 
ATOM      4  C   UNL     1       2.115   2.294  18.719  0.00  0.00    +0.000 A 
ATOM      5  C   UNL     1       2.530   2.661  17.446  0.00  0.00    +0.000 A 
ATOM      6  C   UNL     1       3.404   3.732  17.303  0.00  0.00    +0.000 A 
ATOM      7  N   UNL     1       3.858   4.409  18.384  0.00  0.00    +0.000 N 
ATOM      8  C   UNL     1       3.453   4.061  19.626  0.00  0.00    +0.000 A 
BRANCH   3  10
ATOM      9  O   UNL     1       3.114   2.229  21.956  0.00  0.00    +0.000 OA
ATOM     10  C   UNL     1       2.177   2.672  21.228  0.00  0.00    +0.000 C 
ATOM     11  O   UNL     1       0.971   2.859  21.541  0.00  0.00    +0.000 OA
ENDBRANCH   3  10
ENDBRANCH   2   7
ENDBRANCH   1   2
BRANCH   1  12
ATOM     12  O   UNL     1       6.971   4.514  17.305  0.00  0.00    +0.000 OA
BRANCH  12  13
ATOM     13  C   UNL     1       7.260   5.526  16.437  0.00  0.00    +0.000 C 
ATOM     14  O   UNL     1       7.646   6.630  16.794  0.00  0.00    +0.000 OA
BRANCH  13  15
ATOM     15  C   UNL     1       7.111   5.084  15.077  0.00  0.00    +0.000 A 
ATOM     16  C   UNL     1       6.226   4.133  14.592  0.00  0.00    +0.000 A 
ATOM     17  C   UNL     1       6.428   4.037  13.205  0.00  0.00    +0.000 A 
ATOM     18 BR   UNL     1       5.468   2.892  12.078  0.00  0.00    +0.000 Br
ATOM     19  C   UNL     1       7.422   4.907  12.849  0.00  0.00    +0.000 A 
ATOM     20  N   UNL     1       7.842   5.535  13.995  0.00  0.00    +0.000 N 
ATOM     21  H   UNL     1       8.579   6.229  14.043  0.00  0.00    +0.000 HD
ENDBRANCH  13  15
ENDBRANCH  12  13
ENDBRANCH   1  12
TORSDOF 6
ENDMDL
MODEL 2
REMARK VINA RESULT:      -7.2      2.217      2.755
REMARK  Name = 
REMARK  6 active torsions:
REMARK  status: ('A' for Active; 'I' for Inactive)
REMARK    1  A    between atoms: C_2  and  C_4
REMARK    2  A    between atoms: N_8  and  C_9
REMARK    3  A    between atoms: C_9  and  C_10
REMARK    4  A    between atoms: C_10  and  O_11
REMARK    5  A    between atoms: O_11  and  C_12
REMARK    6  A    between atoms: C_12  and  C_14
REMARK                            x       y       z     vdW  Elec       q    Type
REMARK                         _______ _______ _______ _____ _____    ______ ____
ROOT
ATOM      1  C   UNL     1       5.835   4.683  18.861  0.00  0.00    +0.000 C 
ENDROOT
BRANCH   1   2
ATOM      2  C   UNL     1       4.791   3.564  18.915  0.00  0.00    +0.000 C 
BRANCH   2   7
ATOM      3  C   UNL     1       2.112   5.889  20.085  0.00  0.00    +0.000 A 
ATOM      4  C   UNL     1       1.204   5.002  20.661  0.00  0.00    +0.000 A 
ATOM      5  C   UNL     1       1.455   3.639  20.618  0.00  0.00    +0.000 A 
ATOM      6  C   UNL     1       2.616   3.185  20.004  0.00  0.00    +0.000 A 
ATOM      7  N   UNL     1       3.501   4.053  19.460  0.00  0.00    +0.000 N 
ATOM      8  C   UNL     1       3.259   5.383  19.492  0.00  0.00    +0.000 A 
BRANCH   3  10
ATOM      9  O   UNL     1       1.425   7.839  21.162  0.00  0.00    +0.000 OA
ATOM     10  C   UNL     1       1.914   7.372  20.092  0.00  0.00    +0.000 C 
ATOM     11  O   UNL     1       2.247   7.999  19.050  0.00  0.00    +0.000 OA
ENDBRANCH   3  10
ENDBRANCH   2   7
ENDBRANCH   1   2
BRANCH   1  12
ATOM     12  O   UNL     1       6.077   5.158  17.524  0.00  0.00    +0.000 OA
BRANCH  12  13
ATOM     13  C   UNL     1       7.182   4.622  16.929  0.00  0.00    +0.000 C 
ATOM     14  O   UNL     1       8.153   4.217  17.552  0.00  0.00    +0.000 OA
BRANCH  13  15
ATOM     15  C   UNL     1       7.001   4.543  15.504  0.00  0.00    +0.000 A 
ATOM     16  C   UNL     1       6.090   3.760  14.813  0.00  0.00    +0.000 A 
ATOM     17  C   UNL     1       6.266   4.019  13.442  0.00  0.00    +0.000 A 
ATOM     18 BR   UNL     1       5.265   3.213  12.082  0.00  0.00    +0.000 Br
ATOM     19  C   UNL     1       7.269   4.938  13.299  0.00  0.00    +0.000 A 
ATOM     20  N   UNL     1       7.721   5.247  14.557  0.00  0.00    +0.000 N 
ATOM     21  H   UNL     1       8.471   5.895  14.765  0.00  0.00    +0.000 HD
ENDBRANCH  13  15
ENDBRANCH  12  13
ENDBRANCH   1  12
TORSDOF 6
ENDMDL
MODEL 3
REMARK VINA RESULT:      -7.1      1.010      1.364
REMARK  Name = 
REMARK  6 active torsions:
REMARK  status: ('A' for Active; 'I' for Inactive)
REMARK    1  A    between atoms: C_2  and  C_4
REMARK    2  A    between atoms: N_8  and  C_9
REMARK    3  A    between atoms: C_9  and  C_10
REMARK    4  A    between atoms: C_10  and  O_11
REMARK    5  A    between atoms: O_11  and  C_12
REMARK    6  A    between atoms: C_12  and  C_14
REMARK                            x       y       z     vdW  Elec       q    Type
REMARK                         _______ _______ _______ _____ _____    ______ ____
ROOT
ATOM      1  C   UNL     1       5.230   5.422  17.860  0.00  0.00    +0.000 C 
ENDROOT
BRANCH   1   2
ATOM      2  C   UNL     1       3.772   5.465  17.394  0.00  0.00    +0.000 C 
BRANCH   2   7
ATOM      3  C   UNL     1       2.721   2.994  19.991  0.00  0.00    +0.000 A 
ATOM      4  C   UNL     1       1.441   2.657  19.554  0.00  0.00    +0.000 A 
ATOM      5  C   UNL     1       0.911   3.282  18.434  0.00  0.00    +0.000 A 
ATOM      6  C   UNL     1       1.675   4.230  17.765  0.00  0.00    +0.000 A 
ATOM      7  N   UNL     1       2.924   4.541  18.186  0.00  0.00    +0.000 N 
ATOM      8  C   UNL     1       3.444   3.941  19.280  0.00  0.00    +0.000 A 
BRANCH   3  10
ATOM      9  O   UNL     1       2.634   2.321  22.221  0.00  0.00    +0.000 OA
ATOM     10  C   UNL     1       3.363   2.365  21.187  0.00  0.00    +0.000 C 
ATOM     11  O   UNL     1       4.545   1.949  21.049  0.00  0.00    +0.000 OA
ENDBRANCH   3  10
ENDBRANCH   2   7
ENDBRANCH   1   2
BRANCH   1  12
ATOM     12  O   UNL     1       6.146   5.944  16.879  0.00  0.00    +0.000 OA
BRANCH  12  13
ATOM     13  C   UNL     1       7.120   5.068  16.498  0.00  0.00    +0.000 C 
ATOM     14  O   UNL     1       7.918   4.567  17.277  0.00  0.00    +0.000 OA
BRANCH  13  15
ATOM     15  C   UNL     1       7.018   4.778  15.092  0.00  0.00    +0.000 A 
ATOM     16  C   UNL     1       6.171   3.867  14.480  0.00  0.00    +0.000 A 
ATOM     17  C   UNL     1       6.410   3.933  13.096  0.00  0.00    +0.000 A 
ATOM     18 BR   UNL     1       5.511   2.900  11.822  0.00  0.00    +0.000 Br
ATOM     19  C   UNL     1       7.388   4.863  12.869  0.00  0.00    +0.000 A 
ATOM     20  N   UNL     1       7.762   5.367  14.089  0.00  0.00    +0.000 N 
ATOM     21  H   UNL     1       8.478   6.069  14.236  0.00  0.00    +0.000 HD
ENDBRANCH  13  15
ENDBRANCH  12  13
ENDBRANCH   1  12
TORSDOF 6
ENDMDL
MODEL 4
REMARK VINA RESULT:      -7.0      1.838      2.457
REMARK  Name = 
REMARK  6 active torsions:
REMARK  status: ('A' for Active; 'I' for Inactive)
REMARK    1  A    between atoms: C_2  and  C_4
REMARK    2  A    between atoms: N_8  and  C_9
REMARK    3  A    between atoms: C_9  and  C_10
REMARK    4  A    between atoms: C_10  and  O_11
REMARK    5  A    between atoms: O_11  and  C_12
REMARK    6  A    between atoms: C_12  and  C_14
REMARK                            x       y       z     vdW  Elec       q    Type
REMARK                         _______ _______ _______ _____ _____    ______ ____
ROOT
ATOM      1  C   UNL     1       4.873   6.119  16.956  0.00  0.00    +0.000 C 
ENDROOT
BRANCH   1   2
ATOM      2  C   UNL     1       3.801   6.881  17.739  0.00  0.00    +0.000 C 
BRANCH   2   7
ATOM      3  C   UNL     1       1.788   3.934  18.843  0.00  0.00    +0.000 A 
ATOM      4  C   UNL     1       1.358   4.345  20.104  0.00  0.00    +0.000 A 
ATOM      5  C   UNL     1       1.774   5.570  20.604  0.00  0.00    +0.000 A 
ATOM      6  C   UNL     1       2.609   6.368  19.831  0.00  0.00    +0.000 A 
ATOM      7  N   UNL     1       3.010   5.969  18.601  0.00  0.00    +0.000 N 
ATOM      8  C   UNL     1       2.613   4.773  18.109  0.00  0.00    +0.000 A 
BRANCH   3  10
ATOM      9  O   UNL     1       0.242   2.208  18.585  0.00  0.00    +0.000 OA
ATOM     10  C   UNL     1       1.383   2.630  18.232  0.00  0.00    +0.000 C 
ATOM     11  O   UNL     1       2.202   2.089  17.442  0.00  0.00    +0.000 OA
ENDBRANCH   3  10
ENDBRANCH   2   7
ENDBRANCH   1   2
BRANCH   1  12
ATOM     12  O   UNL     1       5.475   5.058  17.721  0.00  0.00    +0.000 OA
BRANCH  12  13
ATOM     13  C   UNL     1       6.726   4.705  17.305  0.00  0.00    +0.000 C 
ATOM     14  O   UNL     1       7.644   4.449  18.071  0.00  0.00    +0.000 OA
BRANCH  13  15
ATOM     15  C   UNL     1       6.774   4.613  15.870  0.00  0.00    +0.000 A 
ATOM     16  C   UNL     1       6.022   3.782  15.054  0.00  0.00    +0.000 A 
ATOM     17  C   UNL     1       6.397   4.046  13.725  0.00  0.00    +0.000 A 
ATOM     18 BR   UNL     1       5.662   3.186  12.234  0.00  0.00    +0.000 Br
ATOM     19  C   UNL     1       7.363   5.015  13.730  0.00  0.00    +0.000 A 
ATOM     20  N   UNL     1       7.596   5.350  15.040  0.00  0.00    +0.000 N 
ATOM     21  H   UNL     1       8.272   6.037  15.355  0.00  0.00    +0.000 HD
ENDBRANCH  13  15
ENDBRANCH  12  13
ENDBRANCH   1  12
TORSDOF 6
ENDMDL
MODEL 5
REMARK VINA RESULT:      -7.0      3.288      7.038
REMARK  Name = 
REMARK  6 active torsions:
REMARK  status: ('A' for Active; 'I' for Inactive)
REMARK    1  A    between atoms: C_2  and  C_4
REMARK    2  A    between atoms: N_8  and  C_9
REMARK    3  A    between atoms: C_9  and  C_10
REMARK    4  A    between atoms: C_10  and  O_11
REMARK    5  A    between atoms: O_11  and  C_12
REMARK    6  A    between atoms: C_12  and  C_14
REMARK                            x       y       z     vdW  Elec       q    Type
REMARK                         _______ _______ _______ _____ _____    ______ ____
ROOT
ATOM      1  C   UNL     1       5.442   4.955  16.570  0.00  0.00    +0.000 C 
ENDROOT
BRANCH   1   2
ATOM      2  C   UNL     1       6.778   4.416  16.052  0.00  0.00    +0.000 C 
BRANCH   2   7
ATOM      3  C   UNL     1       6.171   3.616  12.454  0.00  0.00    +0.000 A 
ATOM      4  C   UNL     1       7.113   4.428  11.824  0.00  0.00    +0.000 A 
ATOM      5  C   UNL     1       7.910   5.271  12.584  0.00  0.00    +0.000 A 
ATOM      6  C   UNL     1       7.756   5.283  13.965  0.00  0.00    +0.000 A 
ATOM      7  N   UNL     1       6.849   4.481  14.571  0.00  0.00    +0.000 N 
ATOM      8  C   UNL     1       6.064   3.661  13.835  0.00  0.00    +0.000 A 
BRANCH   3  10
ATOM      9  O   UNL     1       4.112   3.122  11.478  0.00  0.00    +0.000 OA
ATOM     10  C   UNL     1       5.277   2.679  11.705  0.00  0.00    +0.000 C 
ATOM     11  O   UNL     1       5.761   1.561  11.382  0.00  0.00    +0.000 OA
ENDBRANCH   3  10
ENDBRANCH   2   7
ENDBRANCH   1   2
BRANCH   1  12
ATOM     12  O   UNL     1       5.593   5.815  17.715  0.00  0.00    +0.000 OA
BRANCH  12  13
ATOM     13  C   UNL     1       5.964   5.169  18.859  0.00  0.00    +0.000 C 
ATOM     14  O   UNL     1       7.011   5.392  19.449  0.00  0.00    +0.000 OA
BRANCH  13  15
ATOM     15  C   UNL     1       4.931   4.265  19.286  0.00  0.00    +0.000 A 
ATOM     16  C   UNL     1       3.634   4.584  19.660  0.00  0.00    +0.000 A 
ATOM     17  C   UNL     1       2.982   3.382  19.987  0.00  0.00    +0.000 A 
ATOM     18 BR   UNL     1       1.200   3.270  20.547  0.00  0.00    +0.000 Br
ATOM     19  C   UNL     1       3.865   2.350  19.821  0.00  0.00    +0.000 A 
ATOM     20  N   UNL     1       5.053   2.894  19.404  0.00  0.00    +0.000 N 
ATOM     21  H   UNL     1       5.899   2.370  19.210  0.00  0.00    +0.000 HD
ENDBRANCH  13  15
ENDBRANCH  12  13
ENDBRANCH   1  12
TORSDOF 6
ENDMDL
MODEL 6
REMARK VINA RESULT:      -6.9      1.481      1.939
REMARK  Name = 
REMARK  6 active torsions:
REMARK  status: ('A' for Active; 'I' for Inactive)
REMARK    1  A    between atoms: C_2  and  C_4
REMARK    2  A    between atoms: N_8  and  C_9
REMARK    3  A    between atoms: C_9  and  C_10
REMARK    4  A    between atoms: C_10  and  O_11
REMARK    5  A    between atoms: O_11  and  C_12
REMARK    6  A    between atoms: C_12  and  C_14
REMARK                            x       y       z     vdW  Elec       q    Type
REMARK                         _______ _______ _______ _____ _____    ______ ____
ROOT
ATOM      1  C   UNL     1       5.919   5.036  18.698  0.00  0.00    +0.000 C 
ENDROOT
BRANCH   1   2
ATOM      2  C   UNL     1       4.678   5.914  18.515  0.00  0.00    +0.000 C 
BRANCH   2   7
ATOM      3  C   UNL     1       1.875   3.547  19.216  0.00  0.00    +0.000 A 
ATOM      4  C   UNL     1       1.148   4.250  20.176  0.00  0.00    +0.000 A 
ATOM      5  C   UNL     1       1.612   5.478  20.623  0.00  0.00    +0.000 A 
ATOM      6  C   UNL     1       2.793   5.987  20.097  0.00  0.00    +0.000 A 
ATOM      7  N   UNL     1       3.486   5.306  19.154  0.00  0.00    +0.000 N 
ATOM      8  C   UNL     1       3.043   4.105  18.718  0.00  0.00    +0.000 A 
BRANCH   3  10
ATOM      9  O   UNL     1       2.383   1.403  18.453  0.00  0.00    +0.000 OA
ATOM     10  C   UNL     1       1.442   2.218  18.682  0.00  0.00    +0.000 C 
ATOM     11  O   UNL     1       0.205   2.046  18.513  0.00  0.00    +0.000 OA
ENDBRANCH   3  10
ENDBRANCH   2   7
ENDBRANCH   1   2
BRANCH   1  12
ATOM     12  O   UNL     1       6.411   4.498  17.456  0.00  0.00    +0.000 OA
BRANCH  12  13
ATOM     13  C   UNL     1       7.062   5.405  16.670  0.00  0.00    +0.000 C 
ATOM     14  O   UNL     1       7.664   6.371  17.114  0.00  0.00    +0.000 OA
BRANCH  13  15
ATOM     15  C   UNL     1       6.991   5.017  15.287  0.00  0.00    +0.000 A 
ATOM     16  C   UNL     1       6.101   4.127  14.706  0.00  0.00    +0.000 A 
ATOM     17  C   UNL     1       6.397   4.070  13.333  0.00  0.00    +0.000 A 
ATOM     18 BR   UNL     1       5.470   3.012  12.099  0.00  0.00    +0.000 Br
ATOM     19  C   UNL     1       7.451   4.906  13.081  0.00  0.00    +0.000 A 
ATOM     20  N   UNL     1       7.816   5.473  14.276  0.00  0.00    +0.000 N 
ATOM     21  H   UNL     1       8.577   6.129  14.403  0.00  0.00    +0.000 HD
ENDBRANCH  13  15
ENDBRANCH  12  13
ENDBRANCH   1  12
TORSDOF 6
ENDMDL
MODEL 7
REMARK VINA RESULT:      -6.9      1.166      1.546
REMARK  Name = 
REMARK  6 active torsions:
REMARK  status: ('A' for Active; 'I' for Inactive)
REMARK    1  A    between atoms: C_2  and  C_4
REMARK    2  A    between atoms: N_8  and  C_9
REMARK    3  A    between atoms: C_9  and  C_10
REMARK    4  A    between atoms: C_10  and  O_11
REMARK    5  A    between atoms: O_11  and  C_12
REMARK    6  A    between atoms: C_12  and  C_14
REMARK                            x       y       z     vdW  Elec       q    Type
REMARK                         _______ _______ _______ _____ _____    ______ ____
ROOT
ATOM      1  C   UNL     1       4.346   6.229  18.497  0.00  0.00    +0.000 C 
ENDROOT
BRANCH   1   2
ATOM      2  C   UNL     1       3.097   5.744  17.757  0.00  0.00    +0.000 C 
BRANCH   2   7
ATOM      3  C   UNL     1       2.085   3.110  20.206  0.00  0.00    +0.000 A 
ATOM      4  C   UNL     1       1.912   2.005  19.374  0.00  0.00    +0.000 A 
ATOM      5  C   UNL     1       2.082   2.146  18.004  0.00  0.00    +0.000 A 
ATOM      6  C   UNL     1       2.429   3.389  17.490  0.00  0.00    +0.000 A 
ATOM      7  N   UNL     1       2.610   4.454  18.306  0.00  0.00    +0.000 N 
ATOM      8  C   UNL     1       2.440   4.326  19.642  0.00  0.00    +0.000 A 
BRANCH   3  10
ATOM      9  O   UNL     1       1.060   2.205  22.095  0.00  0.00    +0.000 OA
ATOM     10  C   UNL     1       1.922   3.041  21.692  0.00  0.00    +0.000 C 
ATOM     11  O   UNL     1       2.645   3.807  22.383  0.00  0.00    +0.000 OA
ENDBRANCH   3  10
ENDBRANCH   2   7
ENDBRANCH   1   2
BRANCH   1  12
ATOM     12  O   UNL     1       5.514   6.269  17.656  0.00  0.00    +0.000 OA
BRANCH  12  13
ATOM     13  C   UNL     1       6.103   5.055  17.455  0.00  0.00    +0.000 C 
ATOM     14  O   UNL     1       6.299   4.245  18.349  0.00  0.00    +0.000 OA
BRANCH  13  15
ATOM     15  C   UNL     1       6.383   4.854  16.058  0.00  0.00    +0.000 A 
ATOM     16  C   UNL     1       5.705   4.029  15.174  0.00  0.00    +0.000 A 
ATOM     17  C   UNL     1       6.320   4.162  13.917  0.00  0.00    +0.000 A 
ATOM     18 BR   UNL     1       5.769   3.258  12.375  0.00  0.00    +0.000 Br
ATOM     19  C   UNL     1       7.357   5.047  14.033  0.00  0.00    +0.000 A 
ATOM     20  N   UNL     1       7.397   5.458  15.342  0.00  0.00    +0.000 N 
ATOM     21  H   UNL     1       8.071   6.108  15.729  0.00  0.00    +0.000 HD
ENDBRANCH  13  15
ENDBRANCH  12  13
ENDBRANCH   1  12
TORSDOF 6
ENDMDL
MODEL 8
REMARK VINA RESULT:      -6.7      1.406      1.887
REMARK  Name = 
REMARK  6 active torsions:
REMARK  status: ('A' for Active; 'I' for Inactive)
REMARK    1  A    between atoms: C_2  and  C_4
REMARK    2  A    between atoms: N_8  and  C_9
REMARK    3  A    between atoms: C_9  and  C_10
REMARK    4  A    between atoms: C_10  and  O_11
REMARK    5  A    between atoms: O_11  and  C_12
REMARK    6  A    between atoms: C_12  and  C_14
REMARK                            x       y       z     vdW  Elec       q    Type
REMARK                         _______ _______ _______ _____ _____    ______ ____
ROOT
ATOM      1  C   UNL     1       4.958   6.097  16.249  0.00  0.00    +0.000 C 
ENDROOT
BRANCH   1   2
ATOM      2  C   UNL     1       4.463   6.309  17.681  0.00  0.00    +0.000 C 
BRANCH   2   7
ATOM      3  C   UNL     1       2.465   3.524  19.167  0.00  0.00    +0.000 A 
ATOM      4  C   UNL     1       3.464   2.732  19.730  0.00  0.00    +0.000 A 
ATOM      5  C   UNL     1       4.795   3.094  19.576  0.00  0.00    +0.000 A 
ATOM      6  C   UNL     1       5.103   4.247  18.865  0.00  0.00    +0.000 A 
ATOM      7  N   UNL     1       4.127   5.019  18.333  0.00  0.00    +0.000 N 
ATOM      8  C   UNL     1       2.828   4.669  18.475  0.00  0.00    +0.000 A 
BRANCH   3  10
ATOM      9  O   UNL     1       0.412   3.795  20.238  0.00  0.00    +0.000 OA
ATOM     10  C   UNL     1       1.009   3.204  19.290  0.00  0.00    +0.000 C 
ATOM     11  O   UNL     1       0.529   2.391  18.456  0.00  0.00    +0.000 OA
ENDBRANCH   3  10
ENDBRANCH   2   7
ENDBRANCH   1   2
BRANCH   1  12
ATOM     12  O   UNL     1       6.371   6.340  16.103  0.00  0.00    +0.000 OA
BRANCH  12  13
ATOM     13  C   UNL     1       7.114   5.216  15.888  0.00  0.00    +0.000 C 
ATOM     14  O   UNL     1       7.753   4.653  16.765  0.00  0.00    +0.000 OA
BRANCH  13  15
ATOM     15  C   UNL     1       6.976   4.771  14.527  0.00  0.00    +0.000 A 
ATOM     16  C   UNL     1       6.165   3.752  14.053  0.00  0.00    +0.000 A 
ATOM     17  C   UNL     1       6.346   3.683  12.660  0.00  0.00    +0.000 A 
ATOM     18 BR   UNL     1       5.463   2.468  11.544  0.00  0.00    +0.000 Br
ATOM     19  C   UNL     1       7.255   4.637  12.293  0.00  0.00    +0.000 A 
ATOM     20  N   UNL     1       7.643   5.291  13.435  0.00  0.00    +0.000 N 
ATOM     21  H   UNL     1       8.320   6.045  13.474  0.00  0.00    +0.000 HD
ENDBRANCH  13  15
ENDBRANCH  12  13
ENDBRANCH   1  12
TORSDOF 6
ENDMDL
MODEL 9
REMARK VINA RESULT:      -6.7      1.633      2.309
REMARK  Name = 
REMARK  6 active torsions:
REMARK  status: ('A' for Active; 'I' for Inactive)
REMARK    1  A    between atoms: C_2  and  C_4
REMARK    2  A    between atoms: N_8  and  C_9
REMARK    3  A    between atoms: C_9  and  C_10
REMARK    4  A    between atoms: C_10  and  O_11
REMARK    5  A    between atoms: O_11  and  C_12
REMARK    6  A    between atoms: C_12  and  C_14
REMARK                            x       y       z     vdW  Elec       q    Type
REMARK                         _______ _______ _______ _____ _____    ______ ____
ROOT
ATOM      1  C   UNL     1       4.893   6.681  17.231  0.00  0.00    +0.000 C 
ENDROOT
BRANCH   1   2
ATOM      2  C   UNL     1       3.795   5.624  17.370  0.00  0.00    +0.000 C 
BRANCH   2   7
ATOM      3  C   UNL     1       2.049   4.681  20.535  0.00  0.00    +0.000 A 
ATOM      4  C   UNL     1       1.593   5.919  20.983  0.00  0.00    +0.000 A 
ATOM      5  C   UNL     1       1.904   7.065  20.265  0.00  0.00    +0.000 A 
ATOM      6  C   UNL     1       2.663   6.952  19.107  0.00  0.00    +0.000 A 
ATOM      7  N   UNL     1       3.090   5.744  18.670  0.00  0.00    +0.000 N 
ATOM      8  C   UNL     1       2.795   4.623  19.367  0.00  0.00    +0.000 A 
BRANCH   3  10
ATOM      9  O   UNL     1       0.937   2.635  20.657  0.00  0.00    +0.000 OA
ATOM     10  C   UNL     1       1.754   3.400  21.249  0.00  0.00    +0.000 C 
ATOM     11  O   UNL     1       2.336   3.212  22.351  0.00  0.00    +0.000 OA
ENDBRANCH   3  10
ENDBRANCH   2   7
ENDBRANCH   1   2
BRANCH   1  12
ATOM     12  O   UNL     1       6.169   6.230  17.724  0.00  0.00    +0.000 OA
BRANCH  12  13
ATOM     13  C   UNL     1       6.467   4.936  17.409  0.00  0.00    +0.000 C 
ATOM     14  O   UNL     1       6.509   4.035  18.234  0.00  0.00    +0.000 OA
BRANCH  13  15
ATOM     15  C   UNL     1       6.647   4.789  15.990  0.00  0.00    +0.000 A 
ATOM     16  C   UNL     1       5.985   3.913  15.144  0.00  0.00    +0.000 A 
ATOM     17  C   UNL     1       6.474   4.131  13.844  0.00  0.00    +0.000 A 
ATOM     18 BR   UNL     1       5.891   3.200  12.329  0.00  0.00    +0.000 Br
ATOM     19  C   UNL     1       7.421   5.118  13.897  0.00  0.00    +0.000 A 
ATOM     20  N   UNL     1       7.529   5.509  15.207  0.00  0.00    +0.000 N 
ATOM     21  H   UNL     1       8.162   6.220  15.554  0.00  0.00    +0.000 HD
ENDBRANCH  13  15
ENDBRANCH  12  13
ENDBRANCH   1  12
TORSDOF 6
ENDMDL
