MODEL 1
REMARK VINA RESULT:      -7.5      0.000      0.000
REMARK  Name = 
REMARK  4 active torsions:
REMARK  status: ('A' for Active; 'I' for Inactive)
REMARK    1  A    between atoms: C_1  and  C_2
REMARK    2  A    between atoms: C_2  and  N_3
REMARK    3  A    between atoms: C_5  and  C_6
REMARK    4  A    between atoms: C_14  and  C_15
REMARK                            x       y       z     vdW  Elec       q    Type
REMARK                         _______ _______ _______ _____ _____    ______ ____
ROOT
ATOM      1  N   UNL     1       2.553   4.813  20.254  0.00  0.00    +0.000 N 
ATOM      2  C   UNL     1       3.191   3.971  19.347  0.00  0.00    +0.000 A 
ATOM      3  C   UNL     1       3.714   4.317  18.162  0.00  0.00    +0.000 A 
ATOM      4  C   UNL     1       3.617   5.740  17.780  0.00  0.00    +0.000 A 
ATOM      5  O   UNL     1       4.149   6.177  16.759  0.00  0.00    +0.000 OA
ATOM      6  C   UNL     1       2.843   6.638  18.664  0.00  0.00    +0.000 A 
ATOM      7  C   UNL     1       2.625   7.949  18.230  0.00  0.00    +0.000 A 
ATOM      8  C   UNL     1       1.909   8.829  19.028  0.00  0.00    +0.000 A 
ATOM      9  C   UNL     1       1.415   8.430  20.279  0.00  0.00    +0.000 A 
ATOM     10  C   UNL     1       1.654   7.096  20.691  0.00  0.00    +0.000 A 
ATOM     11  C   UNL     1       2.351   6.166  19.899  0.00  0.00    +0.000 A 
ENDROOT
BRANCH   9  12
ATOM     12  C   UNL     1       0.684   9.393  21.134  0.00  0.00    +0.000 A 
ATOM     13  C   UNL     1       0.579  10.748  20.788  0.00  0.00    +0.000 A 
ATOM     14  C   UNL     1      -0.052  11.630  21.651  0.00  0.00    +0.000 A 
ATOM     15  N   UNL     1      -0.608  11.259  22.820  0.00  0.00    +0.000 NA
ATOM     16  C   UNL     1      -0.525   9.954  23.139  0.00  0.00    +0.000 A 
ATOM     17  C   UNL     1       0.101   9.003  22.346  0.00  0.00    +0.000 A 
ENDBRANCH   9  12
BRANCH   3  18
ATOM     18  C   UNL     1       4.351   3.271  17.322  0.00  0.00    +0.000 C 
ATOM     19  N   UNL     1       5.457   3.657  16.630  0.00  0.00    +0.000 N 
ATOM     20  O   UNL     1       3.921   2.128  17.238  0.00  0.00    +0.000 OA
ATOM     21  H   UNL     1       5.829   4.603  16.714  0.00  0.00    +0.000 HD
ATOM     22  H   UNL     1       5.935   2.987  16.047  0.00  0.00    +0.000 HD
ENDBRANCH   3  18
BRANCH   1  24
ATOM     23  C   UNL     1       1.793   2.811  21.483  0.00  0.00    +0.000 C 
ATOM     24  C   UNL     1       2.124   4.295  21.567  0.00  0.00    +0.000 C 
ENDBRANCH   1  24
TORSDOF 3
ENDMDL
MODEL 2
REMARK VINA RESULT:      -7.5      0.222      1.008
REMARK  Name = 
REMARK  4 active torsions:
REMARK  status: ('A' for Active; 'I' for Inactive)
REMARK    1  A    between atoms: C_1  and  C_2
REMARK    2  A    between atoms: C_2  and  N_3
REMARK    3  A    between atoms: C_5  and  C_6
REMARK    4  A    between atoms: C_14  and  C_15
REMARK                            x       y       z     vdW  Elec       q    Type
REMARK                         _______ _______ _______ _____ _____    ______ ____
ROOT
ATOM      1  N   UNL     1       2.556   4.841  20.202  0.00  0.00    +0.000 N 
ATOM      2  C   UNL     1       3.228   4.018  19.303  0.00  0.00    +0.000 A 
ATOM      3  C   UNL     1       3.767   4.381  18.131  0.00  0.00    +0.000 A 
ATOM      4  C   UNL     1       3.649   5.803  17.755  0.00  0.00    +0.000 A 
ATOM      5  O   UNL     1       4.192   6.257  16.746  0.00  0.00    +0.000 OA
ATOM      6  C   UNL     1       2.841   6.681  18.628  0.00  0.00    +0.000 A 
ATOM      7  C   UNL     1       2.605   7.990  18.198  0.00  0.00    +0.000 A 
ATOM      8  C   UNL     1       1.857   8.852  18.986  0.00  0.00    +0.000 A 
ATOM      9  C   UNL     1       1.347   8.436  20.225  0.00  0.00    +0.000 A 
ATOM     10  C   UNL     1       1.605   7.104  20.635  0.00  0.00    +0.000 A 
ATOM     11  C   UNL     1       2.335   6.193  19.850  0.00  0.00    +0.000 A 
ENDROOT
BRANCH   9  12
ATOM     12  C   UNL     1       0.582   9.379  21.072  0.00  0.00    +0.000 A 
ATOM     13  C   UNL     1       0.196   9.045  22.378  0.00  0.00    +0.000 A 
ATOM     14  C   UNL     1      -0.580   9.928  23.112  0.00  0.00    +0.000 A 
ATOM     15  N   UNL     1      -0.978  11.129  22.652  0.00  0.00    +0.000 NA
ATOM     16  C   UNL     1      -0.587  11.458  21.406  0.00  0.00    +0.000 A 
ATOM     17  C   UNL     1       0.176  10.631  20.593  0.00  0.00    +0.000 A 
ENDBRANCH   9  12
BRANCH   3  18
ATOM     18  C   UNL     1       4.440   3.352  17.297  0.00  0.00    +0.000 C 
ATOM     19  N   UNL     1       5.570   3.755  16.655  0.00  0.00    +0.000 N 
ATOM     20  O   UNL     1       4.019   2.210  17.176  0.00  0.00    +0.000 OA
ATOM     21  H   UNL     1       5.934   4.700  16.770  0.00  0.00    +0.000 HD
ATOM     22  H   UNL     1       6.072   3.097  16.079  0.00  0.00    +0.000 HD
ENDBRANCH   3  18
BRANCH   1  24
ATOM     23  C   UNL     1       1.449   2.948  21.335  0.00  0.00    +0.000 C 
ATOM     24  C   UNL     1       2.113   4.307  21.504  0.00  0.00    +0.000 C 
ENDBRANCH   1  24
TORSDOF 3
ENDMDL
MODEL 3
REMARK VINA RESULT:      -7.1      1.438      1.680
REMARK  Name = 
REMARK  4 active torsions:
REMARK  status: ('A' for Active; 'I' for Inactive)
REMARK    1  A    between atoms: C_1  and  C_2
REMARK    2  A    between atoms: C_2  and  N_3
REMARK    3  A    between atoms: C_5  and  C_6
REMARK    4  A    between atoms: C_14  and  C_15
REMARK                            x       y       z     vdW  Elec       q    Type
REMARK                         _______ _______ _______ _____ _____    ______ ____
ROOT
ATOM      1  N   UNL     1       3.826   4.878  18.956  0.00  0.00    +0.000 N 
ATOM      2  C   UNL     1       4.676   4.306  18.014  0.00  0.00    +0.000 A 
ATOM      3  C   UNL     1       5.186   4.900  16.927  0.00  0.00    +0.000 A 
ATOM      4  C   UNL     1       4.822   6.314  16.707  0.00  0.00    +0.000 A 
ATOM      5  O   UNL     1       5.312   6.977  15.793  0.00  0.00    +0.000 OA
ATOM      6  C   UNL     1       3.830   6.919  17.622  0.00  0.00    +0.000 A 
ATOM      7  C   UNL     1       3.372   8.206  17.327  0.00  0.00    +0.000 A 
ATOM      8  C   UNL     1       2.445   8.816  18.159  0.00  0.00    +0.000 A 
ATOM      9  C   UNL     1       1.970   8.167  19.308  0.00  0.00    +0.000 A 
ATOM     10  C   UNL     1       2.454   6.863  19.580  0.00  0.00    +0.000 A 
ATOM     11  C   UNL     1       3.373   6.201  18.746  0.00  0.00    +0.000 A 
ENDROOT
BRANCH   9  12
ATOM     12  C   UNL     1       1.008   8.847  20.206  0.00  0.00    +0.000 A 
ATOM     13  C   UNL     1       0.266   9.957  19.778  0.00  0.00    +0.000 A 
ATOM     14  C   UNL     1      -0.571  10.608  20.671  0.00  0.00    +0.000 A 
ATOM     15  N   UNL     1      -0.743  10.220  21.949  0.00  0.00    +0.000 NA
ATOM     16  C   UNL     1      -0.047   9.140  22.350  0.00  0.00    +0.000 A 
ATOM     17  C   UNL     1       0.827   8.436  21.532  0.00  0.00    +0.000 A 
ENDBRANCH   9  12
BRANCH   3  18
ATOM     18  C   UNL     1       6.073   4.119  16.027  0.00  0.00    +0.000 C 
ATOM     19  N   UNL     1       7.329   4.614  15.855  0.00  0.00    +0.000 N 
ATOM     20  O   UNL     1       5.715   3.096  15.460  0.00  0.00    +0.000 OA
ATOM     21  H   UNL     1       7.636   5.455  16.342  0.00  0.00    +0.000 HD
ATOM     22  H   UNL     1       7.977   4.122  15.260  0.00  0.00    +0.000 HD
ENDBRANCH   3  18
BRANCH   1  24
ATOM     23  C   UNL     1       2.249   3.211  19.865  0.00  0.00    +0.000 C 
ATOM     24  C   UNL     1       3.436   4.118  20.159  0.00  0.00    +0.000 C 
ENDBRANCH   1  24
TORSDOF 3
ENDMDL
MODEL 4
REMARK VINA RESULT:      -7.1      2.146      3.272
REMARK  Name = 
REMARK  4 active torsions:
REMARK  status: ('A' for Active; 'I' for Inactive)
REMARK    1  A    between atoms: C_1  and  C_2
REMARK    2  A    between atoms: C_2  and  N_3
REMARK    3  A    between atoms: C_5  and  C_6
REMARK    4  A    between atoms: C_14  and  C_15
REMARK                            x       y       z     vdW  Elec       q    Type
REMARK                         _______ _______ _______ _____ _____    ______ ____
ROOT
ATOM      1  N   UNL     1       3.918   5.617  18.182  0.00  0.00    +0.000 N 
ATOM      2  C   UNL     1       4.318   4.313  18.456  0.00  0.00    +0.000 A 
ATOM      3  C   UNL     1       3.837   3.511  19.416  0.00  0.00    +0.000 A 
ATOM      4  C   UNL     1       2.763   4.060  20.267  0.00  0.00    +0.000 A 
ATOM      5  O   UNL     1       2.189   3.374  21.113  0.00  0.00    +0.000 OA
ATOM      6  C   UNL     1       2.396   5.480  20.081  0.00  0.00    +0.000 A 
ATOM      7  C   UNL     1       1.488   6.042  20.983  0.00  0.00    +0.000 A 
ATOM      8  C   UNL     1       1.110   7.370  20.845  0.00  0.00    +0.000 A 
ATOM      9  C   UNL     1       1.612   8.157  19.798  0.00  0.00    +0.000 A 
ATOM     10  C   UNL     1       2.530   7.559  18.900  0.00  0.00    +0.000 A 
ATOM     11  C   UNL     1       2.958   6.225  19.023  0.00  0.00    +0.000 A 
ENDROOT
BRANCH   9  12
ATOM     12  C   UNL     1       1.170   9.562  19.644  0.00  0.00    +0.000 A 
ATOM     13  C   UNL     1       1.598  10.351  18.566  0.00  0.00    +0.000 A 
ATOM     14  C   UNL     1       1.218  11.682  18.496  0.00  0.00    +0.000 A 
ATOM     15  N   UNL     1       0.424  12.279  19.404  0.00  0.00    +0.000 NA
ATOM     16  C   UNL     1      -0.004  11.513  20.426  0.00  0.00    +0.000 A 
ATOM     17  C   UNL     1       0.338  10.177  20.587  0.00  0.00    +0.000 A 
ENDBRANCH   9  12
BRANCH   3  18
ATOM     18  C   UNL     1       4.399   2.144  19.563  0.00  0.00    +0.000 C 
ATOM     19  N   UNL     1       4.061   1.256  18.589  0.00  0.00    +0.000 N 
ATOM     20  O   UNL     1       5.118   1.813  20.496  0.00  0.00    +0.000 OA
ATOM     21  H   UNL     1       3.479   1.534  17.799  0.00  0.00    +0.000 HD
ATOM     22  H   UNL     1       4.419   0.313  18.633  0.00  0.00    +0.000 HD
ENDBRANCH   3  18
BRANCH   1  24
ATOM     23  C   UNL     1       5.188   5.367  16.080  0.00  0.00    +0.000 C 
ATOM     24  C   UNL     1       4.475   6.332  17.017  0.00  0.00    +0.000 C 
ENDBRANCH   1  24
TORSDOF 3
ENDMDL
MODEL 5
REMARK VINA RESULT:      -7.1      2.681      6.878
REMARK  Name = 
REMARK  4 active torsions:
REMARK  status: ('A' for Active; 'I' for Inactive)
REMARK    1  A    between atoms: C_1  and  C_2
REMARK    2  A    between atoms: C_2  and  N_3
REMARK    3  A    between atoms: C_5  and  C_6
REMARK    4  A    between atoms: C_14  and  C_15
REMARK                            x       y       z     vdW  Elec       q    Type
REMARK                         _______ _______ _______ _____ _____    ______ ____
ROOT
ATOM      1  N   UNL     1       0.696   9.363  21.074  0.00  0.00    +0.000 N 
ATOM      2  C   UNL     1       0.537  10.674  20.633  0.00  0.00    +0.000 A 
ATOM      3  C   UNL     1       0.901  11.170  19.442  0.00  0.00    +0.000 A 
ATOM      4  C   UNL     1       1.523  10.229  18.490  0.00  0.00    +0.000 A 
ATOM      5  O   UNL     1       1.805  10.560  17.338  0.00  0.00    +0.000 OA
ATOM      6  C   UNL     1       1.813   8.859  18.967  0.00  0.00    +0.000 A 
ATOM      7  C   UNL     1       2.535   8.014  18.119  0.00  0.00    +0.000 A 
ATOM      8  C   UNL     1       2.826   6.718  18.521  0.00  0.00    +0.000 A 
ATOM      9  C   UNL     1       2.389   6.233  19.763  0.00  0.00    +0.000 A 
ATOM     10  C   UNL     1       1.659   7.114  20.598  0.00  0.00    +0.000 A 
ATOM     11  C   UNL     1       1.368   8.442  20.238  0.00  0.00    +0.000 A 
ENDROOT
BRANCH   9  12
ATOM     12  C   UNL     1       2.677   4.837  20.161  0.00  0.00    +0.000 A 
ATOM     13  C   UNL     1       1.969   4.209  21.196  0.00  0.00    +0.000 A 
ATOM     14  C   UNL     1       2.316   2.925  21.585  0.00  0.00    +0.000 A 
ATOM     15  N   UNL     1       3.299   2.210  21.004  0.00  0.00    +0.000 NA
ATOM     16  C   UNL     1       3.962   2.807  19.996  0.00  0.00    +0.000 A 
ATOM     17  C   UNL     1       3.694   4.094  19.550  0.00  0.00    +0.000 A 
ENDBRANCH   9  12
BRANCH   3  18
ATOM     18  C   UNL     1       0.659  12.606  19.155  0.00  0.00    +0.000 C 
ATOM     19  N   UNL     1      -0.022  12.876  18.008  0.00  0.00    +0.000 N 
ATOM     20  O   UNL     1       1.043  13.509  19.886  0.00  0.00    +0.000 OA
ATOM     21  H   UNL     1      -0.361  12.125  17.406  0.00  0.00    +0.000 HD
ATOM     22  H   UNL     1      -0.221  13.834  17.764  0.00  0.00    +0.000 HD
ENDBRANCH   3  18
BRANCH   1  24
ATOM     23  C   UNL     1      -0.616  10.096  23.032  0.00  0.00    +0.000 C 
ATOM     24  C   UNL     1       0.144   8.950  22.378  0.00  0.00    +0.000 C 
ENDBRANCH   1  24
TORSDOF 3
ENDMDL
MODEL 6
REMARK VINA RESULT:      -7.0      2.681      6.850
REMARK  Name = 
REMARK  4 active torsions:
REMARK  status: ('A' for Active; 'I' for Inactive)
REMARK    1  A    between atoms: C_1  and  C_2
REMARK    2  A    between atoms: C_2  and  N_3
REMARK    3  A    between atoms: C_5  and  C_6
REMARK    4  A    between atoms: C_14  and  C_15
REMARK                            x       y       z     vdW  Elec       q    Type
REMARK                         _______ _______ _______ _____ _____    ______ ____
ROOT
ATOM      1  N   UNL     1       0.568   9.377  20.983  0.00  0.00    +0.000 N 
ATOM      2  C   UNL     1       0.390  10.681  20.532  0.00  0.00    +0.000 A 
ATOM      3  C   UNL     1       0.795  11.187  19.359  0.00  0.00    +0.000 A 
ATOM      4  C   UNL     1       1.493  10.265  18.441  0.00  0.00    +0.000 A 
ATOM      5  O   UNL     1       1.821  10.604  17.303  0.00  0.00    +0.000 OA
ATOM      6  C   UNL     1       1.804   8.906  18.935  0.00  0.00    +0.000 A 
ATOM      7  C   UNL     1       2.593   8.084  18.126  0.00  0.00    +0.000 A 
ATOM      8  C   UNL     1       2.906   6.799  18.546  0.00  0.00    +0.000 A 
ATOM      9  C   UNL     1       2.425   6.302  19.766  0.00  0.00    +0.000 A 
ATOM     10  C   UNL     1       1.626   7.159  20.562  0.00  0.00    +0.000 A 
ATOM     11  C   UNL     1       1.310   8.477  20.184  0.00  0.00    +0.000 A 
ENDROOT
BRANCH   9  12
ATOM     12  C   UNL     1       2.737   4.916  20.182  0.00  0.00    +0.000 A 
ATOM     13  C   UNL     1       3.716   4.156  19.525  0.00  0.00    +0.000 A 
ATOM     14  C   UNL     1       3.929   2.839  19.900  0.00  0.00    +0.000 A 
ATOM     15  N   UNL     1       3.258   2.230  20.896  0.00  0.00    +0.000 NA
ATOM     16  C   UNL     1       2.335   2.968  21.540  0.00  0.00    +0.000 A 
ATOM     17  C   UNL     1       2.042   4.288  21.223  0.00  0.00    +0.000 A 
ENDBRANCH   9  12
BRANCH   3  18
ATOM     18  C   UNL     1       0.521  12.615  19.055  0.00  0.00    +0.000 C 
ATOM     19  N   UNL     1      -0.251  12.851  17.961  0.00  0.00    +0.000 N 
ATOM     20  O   UNL     1       0.957  13.537  19.731  0.00  0.00    +0.000 OA
ATOM     21  H   UNL     1      -0.633  12.084  17.408  0.00  0.00    +0.000 HD
ATOM     22  H   UNL     1      -0.476  13.802  17.710  0.00  0.00    +0.000 HD
ENDBRANCH   3  18
BRANCH   1  24
ATOM     23  C   UNL     1      -0.603  10.139  23.018  0.00  0.00    +0.000 C 
ATOM     24  C   UNL     1      -0.033   8.948  22.261  0.00  0.00    +0.000 C 
ENDBRANCH   1  24
TORSDOF 3
ENDMDL
MODEL 7
REMARK VINA RESULT:      -7.0      2.102      3.331
REMARK  Name = 
REMARK  4 active torsions:
REMARK  status: ('A' for Active; 'I' for Inactive)
REMARK    1  A    between atoms: C_1  and  C_2
REMARK    2  A    between atoms: C_2  and  N_3
REMARK    3  A    between atoms: C_5  and  C_6
REMARK    4  A    between atoms: C_14  and  C_15
REMARK                            x       y       z     vdW  Elec       q    Type
REMARK                         _______ _______ _______ _____ _____    ______ ____
ROOT
ATOM      1  N   UNL     1       3.952   5.602  18.259  0.00  0.00    +0.000 N 
ATOM      2  C   UNL     1       4.345   4.286  18.489  0.00  0.00    +0.000 A 
ATOM      3  C   UNL     1       3.847   3.449  19.409  0.00  0.00    +0.000 A 
ATOM      4  C   UNL     1       2.760   3.967  20.263  0.00  0.00    +0.000 A 
ATOM      5  O   UNL     1       2.171   3.250  21.072  0.00  0.00    +0.000 OA
ATOM      6  C   UNL     1       2.398   5.394  20.127  0.00  0.00    +0.000 A 
ATOM      7  C   UNL     1       1.476   5.922  21.034  0.00  0.00    +0.000 A 
ATOM      8  C   UNL     1       1.102   7.255  20.942  0.00  0.00    +0.000 A 
ATOM      9  C   UNL     1       1.623   8.082  19.935  0.00  0.00    +0.000 A 
ATOM     10  C   UNL     1       2.555   7.517  19.030  0.00  0.00    +0.000 A 
ATOM     11  C   UNL     1       2.979   6.178  19.108  0.00  0.00    +0.000 A 
ENDROOT
BRANCH   9  12
ATOM     12  C   UNL     1       1.186   9.492  19.828  0.00  0.00    +0.000 A 
ATOM     13  C   UNL     1       0.622  10.170  20.919  0.00  0.00    +0.000 A 
ATOM     14  C   UNL     1       0.161  11.467  20.757  0.00  0.00    +0.000 A 
ATOM     15  N   UNL     1       0.243  12.148  19.599  0.00  0.00    +0.000 NA
ATOM     16  C   UNL     1       0.805  11.503  18.559  0.00  0.00    +0.000 A 
ATOM     17  C   UNL     1       1.279  10.199  18.623  0.00  0.00    +0.000 A 
ENDBRANCH   9  12
BRANCH   3  18
ATOM     18  C   UNL     1       4.404   2.076  19.512  0.00  0.00    +0.000 C 
ATOM     19  N   UNL     1       4.074   1.224  18.504  0.00  0.00    +0.000 N 
ATOM     20  O   UNL     1       5.114   1.711  20.439  0.00  0.00    +0.000 OA
ATOM     21  H   UNL     1       3.499   1.532  17.720  0.00  0.00    +0.000 HD
ATOM     22  H   UNL     1       4.429   0.280  18.518  0.00  0.00    +0.000 HD
ENDBRANCH   3  18
BRANCH   1  24
ATOM     23  C   UNL     1       5.112   5.418  16.088  0.00  0.00    +0.000 C 
ATOM     24  C   UNL     1       4.529   6.360  17.133  0.00  0.00    +0.000 C 
ENDBRANCH   1  24
TORSDOF 3
ENDMDL
MODEL 8
REMARK VINA RESULT:      -6.9      4.397      6.289
REMARK  Name = 
REMARK  4 active torsions:
REMARK  status: ('A' for Active; 'I' for Inactive)
REMARK    1  A    between atoms: C_1  and  C_2
REMARK    2  A    between atoms: C_2  and  N_3
REMARK    3  A    between atoms: C_5  and  C_6
REMARK    4  A    between atoms: C_14  and  C_15
REMARK                            x       y       z     vdW  Elec       q    Type
REMARK                         _______ _______ _______ _____ _____    ______ ____
ROOT
ATOM      1  N   UNL     1       6.860   5.337  16.904  0.00  0.00    +0.000 N 
ATOM      2  C   UNL     1       7.479   5.431  15.661  0.00  0.00    +0.000 A 
ATOM      3  C   UNL     1       6.992   5.004  14.487  0.00  0.00    +0.000 A 
ATOM      4  C   UNL     1       5.654   4.380  14.508  0.00  0.00    +0.000 A 
ATOM      5  O   UNL     1       5.078   4.041  13.474  0.00  0.00    +0.000 OA
ATOM      6  C   UNL     1       5.019   4.158  15.825  0.00  0.00    +0.000 A 
ATOM      7  C   UNL     1       3.824   3.435  15.858  0.00  0.00    +0.000 A 
ATOM      8  C   UNL     1       3.189   3.206  17.070  0.00  0.00    +0.000 A 
ATOM      9  C   UNL     1       3.719   3.708  18.268  0.00  0.00    +0.000 A 
ATOM     10  C   UNL     1       4.931   4.438  18.201  0.00  0.00    +0.000 A 
ATOM     11  C   UNL     1       5.619   4.667  16.996  0.00  0.00    +0.000 A 
ENDROOT
BRANCH   9  12
ATOM     12  C   UNL     1       3.009   3.487  19.549  0.00  0.00    +0.000 A 
ATOM     13  C   UNL     1       3.499   2.594  20.513  0.00  0.00    +0.000 A 
ATOM     14  C   UNL     1       2.767   2.363  21.668  0.00  0.00    +0.000 A 
ATOM     15  N   UNL     1       1.600   2.973  21.945  0.00  0.00    +0.000 NA
ATOM     16  C   UNL     1       1.144   3.847  21.028  0.00  0.00    +0.000 A 
ATOM     17  C   UNL     1       1.799   4.129  19.837  0.00  0.00    +0.000 A 
ENDBRANCH   9  12
BRANCH   3  18
ATOM     18  C   UNL     1       7.808   5.183  13.260  0.00  0.00    +0.000 C 
ATOM     19  N   UNL     1       7.441   4.430  12.187  0.00  0.00    +0.000 N 
ATOM     20  O   UNL     1       8.760   5.949  13.195  0.00  0.00    +0.000 OA
ATOM     21  H   UNL     1       6.636   3.806  12.232  0.00  0.00    +0.000 HD
ATOM     22  H   UNL     1       7.955   4.514  11.324  0.00  0.00    +0.000 HD
ENDBRANCH   3  18
BRANCH   1  24
ATOM     23  C   UNL     1       7.749   7.434  17.856  0.00  0.00    +0.000 C 
ATOM     24  C   UNL     1       7.486   5.953  18.090  0.00  0.00    +0.000 C 
ENDBRANCH   1  24
TORSDOF 3
ENDMDL
MODEL 9
REMARK VINA RESULT:      -6.8      4.533      6.265
REMARK  Name = 
REMARK  4 active torsions:
REMARK  status: ('A' for Active; 'I' for Inactive)
REMARK    1  A    between atoms: C_1  and  C_2
REMARK    2  A    between atoms: C_2  and  N_3
REMARK    3  A    between atoms: C_5  and  C_6
REMARK    4  A    between atoms: C_14  and  C_15
REMARK                            x       y       z     vdW  Elec       q    Type
REMARK                         _______ _______ _______ _____ _____    ______ ____
ROOT
ATOM      1  N   UNL     1       6.936   4.989  16.948  0.00  0.00    +0.000 N 
ATOM      2  C   UNL     1       7.546   5.141  15.707  0.00  0.00    +0.000 A 
ATOM      3  C   UNL     1       7.000   4.891  14.508  0.00  0.00    +0.000 A 
ATOM      4  C   UNL     1       5.602   4.417  14.498  0.00  0.00    +0.000 A 
ATOM      5  O   UNL     1       4.980   4.250  13.449  0.00  0.00    +0.000 OA
ATOM      6  C   UNL     1       4.963   4.132  15.801  0.00  0.00    +0.000 A 
ATOM      7  C   UNL     1       3.696   3.543  15.790  0.00  0.00    +0.000 A 
ATOM      8  C   UNL     1       3.055   3.262  16.988  0.00  0.00    +0.000 A 
ATOM      9  C   UNL     1       3.652   3.579  18.217  0.00  0.00    +0.000 A 
ATOM     10  C   UNL     1       4.937   4.176  18.195  0.00  0.00    +0.000 A 
ATOM     11  C   UNL     1       5.630   4.451  17.002  0.00  0.00    +0.000 A 
ENDROOT
BRANCH   9  12
ATOM     12  C   UNL     1       2.939   3.306  19.485  0.00  0.00    +0.000 A 
ATOM     13  C   UNL     1       1.687   3.876  19.759  0.00  0.00    +0.000 A 
ATOM     14  C   UNL     1       1.085   3.652  20.988  0.00  0.00    +0.000 A 
ATOM     15  N   UNL     1       1.624   2.883  21.953  0.00  0.00    +0.000 NA
ATOM     16  C   UNL     1       2.815   2.319  21.678  0.00  0.00    +0.000 A 
ATOM     17  C   UNL     1       3.499   2.500  20.483  0.00  0.00    +0.000 A 
ENDBRANCH   9  12
BRANCH   3  18
ATOM     18  C   UNL     1       7.816   5.105  13.286  0.00  0.00    +0.000 C 
ATOM     19  N   UNL     1       7.456   4.374  12.196  0.00  0.00    +0.000 N 
ATOM     20  O   UNL     1       8.760   5.882  13.239  0.00  0.00    +0.000 OA
ATOM     21  H   UNL     1       6.656   3.741  12.226  0.00  0.00    +0.000 HD
ATOM     22  H   UNL     1       7.970   4.482  11.335  0.00  0.00    +0.000 HD
ENDBRANCH   3  18
BRANCH   1  24
ATOM     23  C   UNL     1       7.819   6.921  18.206  0.00  0.00    +0.000 C 
ATOM     24  C   UNL     1       7.641   5.409  18.175  0.00  0.00    +0.000 C 
ENDBRANCH   1  24
TORSDOF 3
ENDMDL
