MODEL 1
REMARK VINA RESULT:      -7.2      0.000      0.000
REMARK  Name = 
REMARK  12 active torsions:
REMARK  status: ('A' for Active; 'I' for Inactive)
REMARK    1  A    between atoms: C_1  and  C_2
REMARK    2  A    between atoms: C_2  and  C_3
REMARK    3  A    between atoms: C_2  and  C_4
REMARK    4  A    between atoms: C_2  and  C_5
REMARK    5  A    between atoms: C_5  and  C_7
REMARK    6  A    between atoms: C_7  and  C_8
REMARK    7  A    between atoms: C_13  and  C_14
REMARK    8  A    between atoms: C_14  and  O_16
REMARK    9  A    between atoms: C_21  and  C_22
REMARK   10  A    between atoms: C_22  and  C_23
REMARK   11  A    between atoms: C_22  and  C_24
REMARK   12  A    between atoms: C_22  and  C_25
REMARK                            x       y       z     vdW  Elec       q    Type
REMARK                         _______ _______ _______ _____ _____    ______ ____
ROOT
ATOM      1  C   UNL     1       2.952   7.025  18.102  0.00  0.00    +0.000 A 
ATOM      2  C   UNL     1       2.327   8.275  17.875  0.00  0.00    +0.000 A 
ATOM      3  C   UNL     1       1.631   8.949  18.884  0.00  0.00    +0.000 A 
ATOM      4  C   UNL     1       1.558   8.351  20.123  0.00  0.00    +0.000 A 
ATOM      5  C   UNL     1       2.203   7.145  20.405  0.00  0.00    +0.000 A 
ATOM      6  C   UNL     1       2.937   6.486  19.409  0.00  0.00    +0.000 A 
ATOM      7  S   UNL     1       0.642   9.111  21.396  0.00  0.00    +0.000 S 
ATOM      8  O   UNL     1      -0.576   8.354  21.550  0.00  0.00    +0.000 OA
ATOM      9  O   UNL     1       1.553   9.303  22.508  0.00  0.00    +0.000 OA
ATOM     10  N   UNL     1       0.222  10.623  20.830  0.00  0.00    +0.000 N 
ATOM     11  C   UNL     1       0.252  10.984  19.444  0.00  0.00    +0.000 C 
ATOM     12  C   UNL     1       0.947  10.207  18.599  0.00  0.00    +0.000 C 
ATOM     13  H   UNL     1      -0.552  11.009  21.369  0.00  0.00    +0.000 HD
ENDROOT
BRANCH  11  14
ATOM     14  C   UNL     1      -0.444  12.304  19.061  0.00  0.00    +0.000 C 
ATOM     15  C   UNL     1       0.612  13.282  18.508  0.00  0.00    +0.000 C 
ATOM     16  C   UNL     1      -1.534  12.109  17.983  0.00  0.00    +0.000 C 
ATOM     17  C   UNL     1      -1.125  12.954  20.284  0.00  0.00    +0.000 C 
ENDBRANCH  11  14
BRANCH   6  18
ATOM     18  C   UNL     1       3.605   5.203  19.783  0.00  0.00    +0.000 C 
ATOM     19  O   UNL     1       2.997   4.157  19.930  0.00  0.00    +0.000 OA
BRANCH  18  20
ATOM     20  O   UNL     1       4.937   5.277  19.965  0.00  0.00    +0.000 OA
ATOM     21  H   UNL     1       5.411   5.991  19.494  0.00  0.00    +0.000 HD
ENDBRANCH  18  20
ENDBRANCH   6  18
BRANCH   1  22
ATOM     22  C   UNL     1       3.594   6.358  16.894  0.00  0.00    +0.000 C 
BRANCH  22  23
ATOM     23  C   UNL     1       5.113   6.258  16.970  0.00  0.00    +0.000 C 
ATOM     24  O   UNL     1       5.782   7.182  17.442  0.00  0.00    +0.000 OA
BRANCH  23  26
ATOM     25  C   UNL     1       4.880   3.774  16.656  0.00  0.00    +0.000 C 
ATOM     26  C   UNL     1       5.793   4.989  16.399  0.00  0.00    +0.000 C 
ATOM     27  C   UNL     1       7.141   4.729  17.094  0.00  0.00    +0.000 C 
ATOM     28  C   UNL     1       6.002   5.140  14.891  0.00  0.00    +0.000 C 
ENDBRANCH  23  26
ENDBRANCH  22  23
ENDBRANCH   1  22
TORSDOF 6
ENDMDL
MODEL 2
REMARK VINA RESULT:      -7.2      0.052      1.200
REMARK  Name = 
REMARK  12 active torsions:
REMARK  status: ('A' for Active; 'I' for Inactive)
REMARK    1  A    between atoms: C_1  and  C_2
REMARK    2  A    between atoms: C_2  and  C_3
REMARK    3  A    between atoms: C_2  and  C_4
REMARK    4  A    between atoms: C_2  and  C_5
REMARK    5  A    between atoms: C_5  and  C_7
REMARK    6  A    between atoms: C_7  and  C_8
REMARK    7  A    between atoms: C_13  and  C_14
REMARK    8  A    between atoms: C_14  and  O_16
REMARK    9  A    between atoms: C_21  and  C_22
REMARK   10  A    between atoms: C_22  and  C_23
REMARK   11  A    between atoms: C_22  and  C_24
REMARK   12  A    between atoms: C_22  and  C_25
REMARK                            x       y       z     vdW  Elec       q    Type
REMARK                         _______ _______ _______ _____ _____    ______ ____
ROOT
ATOM      1  C   UNL     1       2.922   7.062  18.106  0.00  0.00    +0.000 A 
ATOM      2  C   UNL     1       2.298   8.313  17.884  0.00  0.00    +0.000 A 
ATOM      3  C   UNL     1       1.601   8.983  18.896  0.00  0.00    +0.000 A 
ATOM      4  C   UNL     1       1.528   8.380  20.132  0.00  0.00    +0.000 A 
ATOM      5  C   UNL     1       2.172   7.172  20.409  0.00  0.00    +0.000 A 
ATOM      6  C   UNL     1       2.905   6.517  19.411  0.00  0.00    +0.000 A 
ATOM      7  S   UNL     1       0.612   9.135  21.409  0.00  0.00    +0.000 S 
ATOM      8  O   UNL     1      -0.607   8.378  21.558  0.00  0.00    +0.000 OA
ATOM      9  O   UNL     1       1.522   9.321  22.521  0.00  0.00    +0.000 OA
ATOM     10  N   UNL     1       0.193  10.650  20.849  0.00  0.00    +0.000 N 
ATOM     11  C   UNL     1       0.224  11.017  19.465  0.00  0.00    +0.000 C 
ATOM     12  C   UNL     1       0.919  10.243  18.616  0.00  0.00    +0.000 C 
ATOM     13  H   UNL     1      -0.581  11.034  21.389  0.00  0.00    +0.000 HD
ENDROOT
BRANCH  11  14
ATOM     14  C   UNL     1      -0.470  12.339  19.087  0.00  0.00    +0.000 C 
ATOM     15  C   UNL     1      -1.540  12.052  18.015  0.00  0.00    +0.000 C 
ATOM     16  C   UNL     1      -1.163  13.013  20.294  0.00  0.00    +0.000 C 
ATOM     17  C   UNL     1       0.538  13.359  18.516  0.00  0.00    +0.000 C 
ENDBRANCH  11  14
BRANCH   6  18
ATOM     18  C   UNL     1       3.572   5.232  19.779  0.00  0.00    +0.000 C 
ATOM     19  O   UNL     1       2.963   4.186  19.922  0.00  0.00    +0.000 OA
BRANCH  18  20
ATOM     20  O   UNL     1       4.904   5.304  19.960  0.00  0.00    +0.000 OA
ATOM     21  H   UNL     1       5.220   5.769  20.760  0.00  0.00    +0.000 HD
ENDBRANCH  18  20
ENDBRANCH   6  18
BRANCH   1  22
ATOM     22  C   UNL     1       3.563   6.400  16.895  0.00  0.00    +0.000 C 
BRANCH  22  23
ATOM     23  C   UNL     1       5.080   6.280  16.980  0.00  0.00    +0.000 C 
ATOM     24  O   UNL     1       5.759   7.197  17.451  0.00  0.00    +0.000 OA
BRANCH  23  26
ATOM     25  C   UNL     1       5.947   5.161  14.901  0.00  0.00    +0.000 C 
ATOM     26  C   UNL     1       5.746   4.999  16.420  0.00  0.00    +0.000 C 
ATOM     27  C   UNL     1       4.853   3.768  16.655  0.00  0.00    +0.000 C 
ATOM     28  C   UNL     1       7.112   4.788  17.079  0.00  0.00    +0.000 C 
ENDBRANCH  23  26
ENDBRANCH  22  23
ENDBRANCH   1  22
TORSDOF 6
ENDMDL
MODEL 3
REMARK VINA RESULT:      -7.1      0.186      1.078
REMARK  Name = 
REMARK  12 active torsions:
REMARK  status: ('A' for Active; 'I' for Inactive)
REMARK    1  A    between atoms: C_1  and  C_2
REMARK    2  A    between atoms: C_2  and  C_3
REMARK    3  A    between atoms: C_2  and  C_4
REMARK    4  A    between atoms: C_2  and  C_5
REMARK    5  A    between atoms: C_5  and  C_7
REMARK    6  A    between atoms: C_7  and  C_8
REMARK    7  A    between atoms: C_13  and  C_14
REMARK    8  A    between atoms: C_14  and  O_16
REMARK    9  A    between atoms: C_21  and  C_22
REMARK   10  A    between atoms: C_22  and  C_23
REMARK   11  A    between atoms: C_22  and  C_24
REMARK   12  A    between atoms: C_22  and  C_25
REMARK                            x       y       z     vdW  Elec       q    Type
REMARK                         _______ _______ _______ _____ _____    ______ ____
ROOT
ATOM      1  C   UNL     1       2.925   6.985  18.146  0.00  0.00    +0.000 A 
ATOM      2  C   UNL     1       2.366   8.267  17.925  0.00  0.00    +0.000 A 
ATOM      3  C   UNL     1       1.689   8.964  18.932  0.00  0.00    +0.000 A 
ATOM      4  C   UNL     1       1.569   8.356  20.163  0.00  0.00    +0.000 A 
ATOM      5  C   UNL     1       2.149   7.117  20.439  0.00  0.00    +0.000 A 
ATOM      6  C   UNL     1       2.864   6.433  19.446  0.00  0.00    +0.000 A 
ATOM      7  S   UNL     1       0.673   9.147  21.432  0.00  0.00    +0.000 S 
ATOM      8  O   UNL     1      -0.584   8.450  21.559  0.00  0.00    +0.000 OA
ATOM      9  O   UNL     1       1.576   9.280  22.558  0.00  0.00    +0.000 OA
ATOM     10  N   UNL     1       0.337  10.685  20.878  0.00  0.00    +0.000 N 
ATOM     11  C   UNL     1       0.405  11.059  19.498  0.00  0.00    +0.000 C 
ATOM     12  C   UNL     1       1.073  10.257  18.652  0.00  0.00    +0.000 C 
ATOM     13  H   UNL     1      -0.425  11.102  21.411  0.00  0.00    +0.000 HD
ENDROOT
BRANCH  11  14
ATOM     14  C   UNL     1      -0.218  12.416  19.120  0.00  0.00    +0.000 C 
ATOM     15  C   UNL     1      -1.347  12.180  18.096  0.00  0.00    +0.000 C 
ATOM     16  C   UNL     1      -0.818  13.154  20.339  0.00  0.00    +0.000 C 
ATOM     17  C   UNL     1       0.829  13.358  18.490  0.00  0.00    +0.000 C 
ENDBRANCH  11  14
BRANCH   6  18
ATOM     18  C   UNL     1       3.462   5.114  19.814  0.00  0.00    +0.000 C 
ATOM     19  O   UNL     1       4.657   4.955  19.990  0.00  0.00    +0.000 OA
BRANCH  18  20
ATOM     20  O   UNL     1       2.588   4.096  19.927  0.00  0.00    +0.000 OA
ATOM     21  H   UNL     1       1.874   4.046  19.262  0.00  0.00    +0.000 HD
ENDBRANCH  18  20
ENDBRANCH   6  18
BRANCH   1  22
ATOM     22  C   UNL     1       3.550   6.301  16.939  0.00  0.00    +0.000 C 
BRANCH  22  23
ATOM     23  C   UNL     1       5.074   6.278  16.955  0.00  0.00    +0.000 C 
ATOM     24  O   UNL     1       5.715   7.265  17.327  0.00  0.00    +0.000 OA
BRANCH  23  26
ATOM     25  C   UNL     1       4.858   3.791  16.646  0.00  0.00    +0.000 C 
ATOM     26  C   UNL     1       5.792   5.001  16.451  0.00  0.00    +0.000 C 
ATOM     27  C   UNL     1       7.081   4.744  17.251  0.00  0.00    +0.000 C 
ATOM     28  C   UNL     1       6.119   5.138  14.962  0.00  0.00    +0.000 C 
ENDBRANCH  23  26
ENDBRANCH  22  23
ENDBRANCH   1  22
TORSDOF 6
ENDMDL
MODEL 4
REMARK VINA RESULT:      -7.1      1.186      1.679
REMARK  Name = 
REMARK  12 active torsions:
REMARK  status: ('A' for Active; 'I' for Inactive)
REMARK    1  A    between atoms: C_1  and  C_2
REMARK    2  A    between atoms: C_2  and  C_3
REMARK    3  A    between atoms: C_2  and  C_4
REMARK    4  A    between atoms: C_2  and  C_5
REMARK    5  A    between atoms: C_5  and  C_7
REMARK    6  A    between atoms: C_7  and  C_8
REMARK    7  A    between atoms: C_13  and  C_14
REMARK    8  A    between atoms: C_14  and  O_16
REMARK    9  A    between atoms: C_21  and  C_22
REMARK   10  A    between atoms: C_22  and  C_23
REMARK   11  A    between atoms: C_22  and  C_24
REMARK   12  A    between atoms: C_22  and  C_25
REMARK                            x       y       z     vdW  Elec       q    Type
REMARK                         _______ _______ _______ _____ _____    ______ ____
ROOT
ATOM      1  C   UNL     1       2.234   6.617  18.697  0.00  0.00    +0.000 A 
ATOM      2  C   UNL     1       2.125   7.982  18.339  0.00  0.00    +0.000 A 
ATOM      3  C   UNL     1       1.681   8.952  19.244  0.00  0.00    +0.000 A 
ATOM      4  C   UNL     1       1.337   8.537  20.512  0.00  0.00    +0.000 A 
ATOM      5  C   UNL     1       1.477   7.210  20.923  0.00  0.00    +0.000 A 
ATOM      6  C   UNL     1       1.960   6.241  20.032  0.00  0.00    +0.000 A 
ATOM      7  S   UNL     1       0.708   9.690  21.658  0.00  0.00    +0.000 S 
ATOM      8  O   UNL     1      -0.709   9.446  21.769  0.00  0.00    +0.000 OA
ATOM      9  O   UNL     1       1.573   9.637  22.820  0.00  0.00    +0.000 OA
ATOM     10  N   UNL     1       0.903  11.194  20.961  0.00  0.00    +0.000 N 
ATOM     11  C   UNL     1       1.127  11.392  19.560  0.00  0.00    +0.000 C 
ATOM     12  C   UNL     1       1.524  10.341  18.824  0.00  0.00    +0.000 C 
ATOM     13  H   UNL     1       0.302  11.882  21.412  0.00  0.00    +0.000 HD
ENDROOT
BRANCH  11  14
ATOM     14  C   UNL     1       0.987  12.834  19.037  0.00  0.00    +0.000 C 
ATOM     15  C   UNL     1       2.146  13.127  18.064  0.00  0.00    +0.000 C 
ATOM     16  C   UNL     1      -0.345  13.067  18.288  0.00  0.00    +0.000 C 
ATOM     17  C   UNL     1       1.042  13.857  20.192  0.00  0.00    +0.000 C 
ENDBRANCH  11  14
BRANCH   6  18
ATOM     18  C   UNL     1       2.090   4.843  20.542  0.00  0.00    +0.000 C 
ATOM     19  O   UNL     1       3.157   4.352  20.865  0.00  0.00    +0.000 OA
BRANCH  18  20
ATOM     20  O   UNL     1       0.941   4.144  20.608  0.00  0.00    +0.000 OA
ATOM     21  H   UNL     1       0.985   3.193  20.388  0.00  0.00    +0.000 HD
ENDBRANCH  18  20
ENDBRANCH   6  18
BRANCH   1  22
ATOM     22  C   UNL     1       2.638   5.656  17.589  0.00  0.00    +0.000 C 
BRANCH  22  23
ATOM     23  C   UNL     1       4.118   5.709  17.226  0.00  0.00    +0.000 C 
ATOM     24  O   UNL     1       4.609   6.729  16.733  0.00  0.00    +0.000 OA
BRANCH  23  26
ATOM     25  C   UNL     1       5.839   4.634  18.712  0.00  0.00    +0.000 C 
ATOM     26  C   UNL     1       4.974   4.438  17.452  0.00  0.00    +0.000 C 
ATOM     27  C   UNL     1       5.914   4.190  16.260  0.00  0.00    +0.000 C 
ATOM     28  C   UNL     1       4.064   3.225  17.662  0.00  0.00    +0.000 C 
ENDBRANCH  23  26
ENDBRANCH  22  23
ENDBRANCH   1  22
TORSDOF 6
ENDMDL
MODEL 5
REMARK VINA RESULT:      -7.1      1.184      1.623
REMARK  Name = 
REMARK  12 active torsions:
REMARK  status: ('A' for Active; 'I' for Inactive)
REMARK    1  A    between atoms: C_1  and  C_2
REMARK    2  A    between atoms: C_2  and  C_3
REMARK    3  A    between atoms: C_2  and  C_4
REMARK    4  A    between atoms: C_2  and  C_5
REMARK    5  A    between atoms: C_5  and  C_7
REMARK    6  A    between atoms: C_7  and  C_8
REMARK    7  A    between atoms: C_13  and  C_14
REMARK    8  A    between atoms: C_14  and  O_16
REMARK    9  A    between atoms: C_21  and  C_22
REMARK   10  A    between atoms: C_22  and  C_23
REMARK   11  A    between atoms: C_22  and  C_24
REMARK   12  A    between atoms: C_22  and  C_25
REMARK                            x       y       z     vdW  Elec       q    Type
REMARK                         _______ _______ _______ _____ _____    ______ ____
ROOT
ATOM      1  C   UNL     1       2.521   6.348  18.805  0.00  0.00    +0.000 A 
ATOM      2  C   UNL     1       2.463   7.718  18.453  0.00  0.00    +0.000 A 
ATOM      3  C   UNL     1       1.882   8.675  19.292  0.00  0.00    +0.000 A 
ATOM      4  C   UNL     1       1.349   8.242  20.487  0.00  0.00    +0.000 A 
ATOM      5  C   UNL     1       1.430   6.910  20.897  0.00  0.00    +0.000 A 
ATOM      6  C   UNL     1       2.047   5.954  20.078  0.00  0.00    +0.000 A 
ATOM      7  S   UNL     1       0.549   9.379  21.538  0.00  0.00    +0.000 S 
ATOM      8  O   UNL     1      -0.868   9.131  21.427  0.00  0.00    +0.000 OA
ATOM      9  O   UNL     1       1.226   9.311  22.818  0.00  0.00    +0.000 OA
ATOM     10  N   UNL     1       0.842  10.892  20.898  0.00  0.00    +0.000 N 
ATOM     11  C   UNL     1       1.277  11.109  19.552  0.00  0.00    +0.000 C 
ATOM     12  C   UNL     1       1.786  10.070  18.871  0.00  0.00    +0.000 C 
ATOM     13  H   UNL     1       0.177  11.573  21.261  0.00  0.00    +0.000 HD
ENDROOT
BRANCH  11  14
ATOM     14  C   UNL     1       1.213  12.558  19.032  0.00  0.00    +0.000 C 
ATOM     15  C   UNL     1       2.379  12.788  18.049  0.00  0.00    +0.000 C 
ATOM     16  C   UNL     1      -0.110  12.866  18.294  0.00  0.00    +0.000 C 
ATOM     17  C   UNL     1       1.335  13.574  20.188  0.00  0.00    +0.000 C 
ENDBRANCH  11  14
BRANCH   6  18
ATOM     18  C   UNL     1       2.103   4.549  20.583  0.00  0.00    +0.000 C 
ATOM     19  O   UNL     1       1.105   3.878  20.784  0.00  0.00    +0.000 OA
BRANCH  18  20
ATOM     20  O   UNL     1       3.338   4.068  20.819  0.00  0.00    +0.000 OA
ATOM     21  H   UNL     1       3.698   3.431  20.171  0.00  0.00    +0.000 HD
ENDBRANCH  18  20
ENDBRANCH   6  18
BRANCH   1  22
ATOM     22  C   UNL     1       3.094   5.403  17.760  0.00  0.00    +0.000 C 
BRANCH  22  23
ATOM     23  C   UNL     1       4.606   5.229  17.837  0.00  0.00    +0.000 C 
ATOM     24  O   UNL     1       5.154   4.956  18.910  0.00  0.00    +0.000 OA
BRANCH  23  26
ATOM     25  C   UNL     1       4.949   6.731  15.850  0.00  0.00    +0.000 C 
ATOM     26  C   UNL     1       5.436   5.446  16.548  0.00  0.00    +0.000 C 
ATOM     27  C   UNL     1       5.251   4.273  15.571  0.00  0.00    +0.000 C 
ATOM     28  C   UNL     1       6.917   5.606  16.899  0.00  0.00    +0.000 C 
ENDBRANCH  23  26
ENDBRANCH  22  23
ENDBRANCH   1  22
TORSDOF 6
ENDMDL
MODEL 6
REMARK VINA RESULT:      -7.1      1.262      1.847
REMARK  Name = 
REMARK  12 active torsions:
REMARK  status: ('A' for Active; 'I' for Inactive)
REMARK    1  A    between atoms: C_1  and  C_2
REMARK    2  A    between atoms: C_2  and  C_3
REMARK    3  A    between atoms: C_2  and  C_4
REMARK    4  A    between atoms: C_2  and  C_5
REMARK    5  A    between atoms: C_5  and  C_7
REMARK    6  A    between atoms: C_7  and  C_8
REMARK    7  A    between atoms: C_13  and  C_14
REMARK    8  A    between atoms: C_14  and  O_16
REMARK    9  A    between atoms: C_21  and  C_22
REMARK   10  A    between atoms: C_22  and  C_23
REMARK   11  A    between atoms: C_22  and  C_24
REMARK   12  A    between atoms: C_22  and  C_25
REMARK                            x       y       z     vdW  Elec       q    Type
REMARK                         _______ _______ _______ _____ _____    ______ ____
ROOT
ATOM      1  C   UNL     1       2.380   6.342  18.931  0.00  0.00    +0.000 A 
ATOM      2  C   UNL     1       2.387   7.709  18.560  0.00  0.00    +0.000 A 
ATOM      3  C   UNL     1       1.833   8.701  19.376  0.00  0.00    +0.000 A 
ATOM      4  C   UNL     1       1.261   8.307  20.566  0.00  0.00    +0.000 A 
ATOM      5  C   UNL     1       1.278   6.979  20.995  0.00  0.00    +0.000 A 
ATOM      6  C   UNL     1       1.869   5.987  20.201  0.00  0.00    +0.000 A 
ATOM      7  S   UNL     1       0.491   9.492  21.587  0.00  0.00    +0.000 S 
ATOM      8  O   UNL     1      -0.933   9.302  21.454  0.00  0.00    +0.000 OA
ATOM      9  O   UNL     1       1.142   9.414  22.880  0.00  0.00    +0.000 OA
ATOM     10  N   UNL     1       0.859  10.982  20.933  0.00  0.00    +0.000 N 
ATOM     11  C   UNL     1       1.327  11.162  19.591  0.00  0.00    +0.000 C 
ATOM     12  C   UNL     1       1.803  10.092  18.934  0.00  0.00    +0.000 C 
ATOM     13  H   UNL     1       0.217  11.696  21.275  0.00  0.00    +0.000 HD
ENDROOT
BRANCH  11  14
ATOM     14  C   UNL     1       1.333  12.604  19.051  0.00  0.00    +0.000 C 
ATOM     15  C   UNL     1       2.462  12.743  18.010  0.00  0.00    +0.000 C 
ATOM     16  C   UNL     1      -0.001  12.990  18.373  0.00  0.00    +0.000 C 
ATOM     17  C   UNL     1       1.579  13.625  20.183  0.00  0.00    +0.000 C 
ENDBRANCH  11  14
BRANCH   6  18
ATOM     18  C   UNL     1       1.855   4.588  20.725  0.00  0.00    +0.000 C 
ATOM     19  O   UNL     1       2.812   4.081  21.285  0.00  0.00    +0.000 OA
BRANCH  18  20
ATOM     20  O   UNL     1       0.711   3.908  20.527  0.00  0.00    +0.000 OA
ATOM     21  H   UNL     1       0.750   3.135  19.929  0.00  0.00    +0.000 HD
ENDBRANCH  18  20
ENDBRANCH   6  18
BRANCH   1  22
ATOM     22  C   UNL     1       2.931   5.359  17.909  0.00  0.00    +0.000 C 
BRANCH  22  23
ATOM     23  C   UNL     1       4.439   5.153  17.991  0.00  0.00    +0.000 C 
ATOM     24  O   UNL     1       4.973   4.828  19.055  0.00  0.00    +0.000 OA
BRANCH  23  26
ATOM     25  C   UNL     1       6.769   5.507  17.113  0.00  0.00    +0.000 C 
ATOM     26  C   UNL     1       5.283   5.405  16.717  0.00  0.00    +0.000 C 
ATOM     27  C   UNL     1       4.877   6.726  16.041  0.00  0.00    +0.000 C 
ATOM     28  C   UNL     1       5.112   4.241  15.737  0.00  0.00    +0.000 C 
ENDBRANCH  23  26
ENDBRANCH  22  23
ENDBRANCH   1  22
TORSDOF 6
ENDMDL
MODEL 7
REMARK VINA RESULT:      -7.1      0.263      1.224
REMARK  Name = 
REMARK  12 active torsions:
REMARK  status: ('A' for Active; 'I' for Inactive)
REMARK    1  A    between atoms: C_1  and  C_2
REMARK    2  A    between atoms: C_2  and  C_3
REMARK    3  A    between atoms: C_2  and  C_4
REMARK    4  A    between atoms: C_2  and  C_5
REMARK    5  A    between atoms: C_5  and  C_7
REMARK    6  A    between atoms: C_7  and  C_8
REMARK    7  A    between atoms: C_13  and  C_14
REMARK    8  A    between atoms: C_14  and  O_16
REMARK    9  A    between atoms: C_21  and  C_22
REMARK   10  A    between atoms: C_22  and  C_23
REMARK   11  A    between atoms: C_22  and  C_24
REMARK   12  A    between atoms: C_22  and  C_25
REMARK                            x       y       z     vdW  Elec       q    Type
REMARK                         _______ _______ _______ _____ _____    ______ ____
ROOT
ATOM      1  C   UNL     1       2.800   6.941  18.224  0.00  0.00    +0.000 A 
ATOM      2  C   UNL     1       2.282   8.238  17.993  0.00  0.00    +0.000 A 
ATOM      3  C   UNL     1       1.640   8.968  18.999  0.00  0.00    +0.000 A 
ATOM      4  C   UNL     1       1.513   8.379  20.238  0.00  0.00    +0.000 A 
ATOM      5  C   UNL     1       2.054   7.124  20.523  0.00  0.00    +0.000 A 
ATOM      6  C   UNL     1       2.734   6.405  19.531  0.00  0.00    +0.000 A 
ATOM      7  S   UNL     1       0.658   9.214  21.508  0.00  0.00    +0.000 S 
ATOM      8  O   UNL     1      -0.620   8.561  21.656  0.00  0.00    +0.000 OA
ATOM      9  O   UNL     1       1.576   9.329  22.623  0.00  0.00    +0.000 OA
ATOM     10  N   UNL     1       0.367  10.756  20.939  0.00  0.00    +0.000 N 
ATOM     11  C   UNL     1       0.433  11.112  19.554  0.00  0.00    +0.000 C 
ATOM     12  C   UNL     1       1.065  10.279  18.711  0.00  0.00    +0.000 C 
ATOM     13  H   UNL     1      -0.374  11.205  21.475  0.00  0.00    +0.000 HD
ENDROOT
BRANCH  11  14
ATOM     14  C   UNL     1      -0.149  12.485  19.167  0.00  0.00    +0.000 C 
ATOM     15  C   UNL     1      -0.737  13.150  20.427  0.00  0.00    +0.000 C 
ATOM     16  C   UNL     1       0.915  13.434  18.570  0.00  0.00    +0.000 C 
ATOM     17  C   UNL     1      -1.270  12.342  18.116  0.00  0.00    +0.000 C 
ENDBRANCH  11  14
BRANCH   6  18
ATOM     18  C   UNL     1       3.292   5.072  19.908  0.00  0.00    +0.000 C 
ATOM     19  O   UNL     1       2.601   4.074  20.026  0.00  0.00    +0.000 OA
BRANCH  18  20
ATOM     20  O   UNL     1       4.620   5.042  20.126  0.00  0.00    +0.000 OA
ATOM     21  H   UNL     1       5.196   5.362  19.404  0.00  0.00    +0.000 HD
ENDBRANCH  18  20
ENDBRANCH   6  18
BRANCH   1  22
ATOM     22  C   UNL     1       3.389   6.222  17.019  0.00  0.00    +0.000 C 
BRANCH  22  23
ATOM     23  C   UNL     1       4.912   6.240  16.964  0.00  0.00    +0.000 C 
ATOM     24  O   UNL     1       5.542   7.249  17.296  0.00  0.00    +0.000 OA
BRANCH  23  26
ATOM     25  C   UNL     1       6.993   4.843  17.170  0.00  0.00    +0.000 C 
ATOM     26  C   UNL     1       5.642   4.978  16.441  0.00  0.00    +0.000 C 
ATOM     27  C   UNL     1       5.922   5.091  14.932  0.00  0.00    +0.000 C 
ATOM     28  C   UNL     1       4.800   3.732  16.725  0.00  0.00    +0.000 C 
ENDBRANCH  23  26
ENDBRANCH  22  23
ENDBRANCH   1  22
TORSDOF 6
ENDMDL
MODEL 8
REMARK VINA RESULT:      -7.1      1.169      1.930
REMARK  Name = 
REMARK  12 active torsions:
REMARK  status: ('A' for Active; 'I' for Inactive)
REMARK    1  A    between atoms: C_1  and  C_2
REMARK    2  A    between atoms: C_2  and  C_3
REMARK    3  A    between atoms: C_2  and  C_4
REMARK    4  A    between atoms: C_2  and  C_5
REMARK    5  A    between atoms: C_5  and  C_7
REMARK    6  A    between atoms: C_7  and  C_8
REMARK    7  A    between atoms: C_13  and  C_14
REMARK    8  A    between atoms: C_14  and  O_16
REMARK    9  A    between atoms: C_21  and  C_22
REMARK   10  A    between atoms: C_22  and  C_23
REMARK   11  A    between atoms: C_22  and  C_24
REMARK   12  A    between atoms: C_22  and  C_25
REMARK                            x       y       z     vdW  Elec       q    Type
REMARK                         _______ _______ _______ _____ _____    ______ ____
ROOT
ATOM      1  C   UNL     1       2.234   6.619  18.683  0.00  0.00    +0.000 A 
ATOM      2  C   UNL     1       2.108   7.984  18.331  0.00  0.00    +0.000 A 
ATOM      3  C   UNL     1       1.669   8.948  19.246  0.00  0.00    +0.000 A 
ATOM      4  C   UNL     1       1.348   8.525  20.518  0.00  0.00    +0.000 A 
ATOM      5  C   UNL     1       1.506   7.198  20.922  0.00  0.00    +0.000 A 
ATOM      6  C   UNL     1       1.984   6.237  20.021  0.00  0.00    +0.000 A 
ATOM      7  S   UNL     1       0.727   9.670  21.677  0.00  0.00    +0.000 S 
ATOM      8  O   UNL     1      -0.687   9.412  21.809  0.00  0.00    +0.000 OA
ATOM      9  O   UNL     1       1.610   9.620  22.825  0.00  0.00    +0.000 OA
ATOM     10  N   UNL     1       0.897  11.177  20.981  0.00  0.00    +0.000 N 
ATOM     11  C   UNL     1       1.098  11.381  19.578  0.00  0.00    +0.000 C 
ATOM     12  C   UNL     1       1.493  10.337  18.833  0.00  0.00    +0.000 C 
ATOM     13  H   UNL     1       0.297  11.858  21.444  0.00  0.00    +0.000 HD
ENDROOT
BRANCH  11  14
ATOM     14  C   UNL     1       0.937  12.823  19.062  0.00  0.00    +0.000 C 
ATOM     15  C   UNL     1      -0.406  12.938  18.312  0.00  0.00    +0.000 C 
ATOM     16  C   UNL     1       0.945  13.867  20.202  0.00  0.00    +0.000 C 
ATOM     17  C   UNL     1       2.076  13.202  18.092  0.00  0.00    +0.000 C 
ENDBRANCH  11  14
BRANCH   6  18
ATOM     18  C   UNL     1       2.134   4.838  20.524  0.00  0.00    +0.000 C 
ATOM     19  O   UNL     1       3.212   4.352  20.819  0.00  0.00    +0.000 OA
BRANCH  18  20
ATOM     20  O   UNL     1       0.991   4.133  20.619  0.00  0.00    +0.000 OA
ATOM     21  H   UNL     1       0.734   3.820  21.509  0.00  0.00    +0.000 HD
ENDBRANCH  18  20
ENDBRANCH   6  18
BRANCH   1  22
ATOM     22  C   UNL     1       2.630   5.665  17.566  0.00  0.00    +0.000 C 
BRANCH  22  23
ATOM     23  C   UNL     1       4.118   5.676  17.233  0.00  0.00    +0.000 C 
ATOM     24  O   UNL     1       4.659   6.700  16.804  0.00  0.00    +0.000 OA
BRANCH  23  26
ATOM     25  C   UNL     1       5.748   4.108  16.134  0.00  0.00    +0.000 C 
ATOM     26  C   UNL     1       4.917   4.361  17.408  0.00  0.00    +0.000 C 
ATOM     27  C   UNL     1       3.971   3.165  17.607  0.00  0.00    +0.000 C 
ATOM     28  C   UNL     1       5.868   4.481  18.601  0.00  0.00    +0.000 C 
ENDBRANCH  23  26
ENDBRANCH  22  23
ENDBRANCH   1  22
TORSDOF 6
ENDMDL
MODEL 9
REMARK VINA RESULT:      -7.1      1.236      1.938
REMARK  Name = 
REMARK  12 active torsions:
REMARK  status: ('A' for Active; 'I' for Inactive)
REMARK    1  A    between atoms: C_1  and  C_2
REMARK    2  A    between atoms: C_2  and  C_3
REMARK    3  A    between atoms: C_2  and  C_4
REMARK    4  A    between atoms: C_2  and  C_5
REMARK    5  A    between atoms: C_5  and  C_7
REMARK    6  A    between atoms: C_7  and  C_8
REMARK    7  A    between atoms: C_13  and  C_14
REMARK    8  A    between atoms: C_14  and  O_16
REMARK    9  A    between atoms: C_21  and  C_22
REMARK   10  A    between atoms: C_22  and  C_23
REMARK   11  A    between atoms: C_22  and  C_24
REMARK   12  A    between atoms: C_22  and  C_25
REMARK                            x       y       z     vdW  Elec       q    Type
REMARK                         _______ _______ _______ _____ _____    ______ ____
ROOT
ATOM      1  C   UNL     1       2.418   6.360  18.929  0.00  0.00    +0.000 A 
ATOM      2  C   UNL     1       2.411   7.726  18.559  0.00  0.00    +0.000 A 
ATOM      3  C   UNL     1       1.835   8.710  19.371  0.00  0.00    +0.000 A 
ATOM      4  C   UNL     1       1.256   8.307  20.554  0.00  0.00    +0.000 A 
ATOM      5  C   UNL     1       1.286   6.979  20.982  0.00  0.00    +0.000 A 
ATOM      6  C   UNL     1       1.898   5.995  20.192  0.00  0.00    +0.000 A 
ATOM      7  S   UNL     1       0.460   9.480  21.569  0.00  0.00    +0.000 S 
ATOM      8  O   UNL     1      -0.960   9.272  21.421  0.00  0.00    +0.000 OA
ATOM      9  O   UNL     1       1.099   9.409  22.868  0.00  0.00    +0.000 OA
ATOM     10  N   UNL     1       0.815  10.976  20.921  0.00  0.00    +0.000 N 
ATOM     11  C   UNL     1       1.295  11.164  19.584  0.00  0.00    +0.000 C 
ATOM     12  C   UNL     1       1.792  10.101  18.931  0.00  0.00    +0.000 C 
ATOM     13  H   UNL     1       0.160  11.681  21.257  0.00  0.00    +0.000 HD
ENDROOT
BRANCH  11  14
ATOM     14  C   UNL     1       1.287  12.607  19.046  0.00  0.00    +0.000 C 
ATOM     15  C   UNL     1       1.492  13.580  20.225  0.00  0.00    +0.000 C 
ATOM     16  C   UNL     1       2.405  12.860  18.009  0.00  0.00    +0.000 C 
ATOM     17  C   UNL     1      -0.053  12.942  18.358  0.00  0.00    +0.000 C 
ENDBRANCH  11  14
BRANCH   6  18
ATOM     18  C   UNL     1       1.898   4.596  20.715  0.00  0.00    +0.000 C 
ATOM     19  O   UNL     1       2.871   4.085  21.240  0.00  0.00    +0.000 OA
BRANCH  18  20
ATOM     20  O   UNL     1       0.745   3.920  20.554  0.00  0.00    +0.000 OA
ATOM     21  H   UNL     1       0.079   4.312  19.955  0.00  0.00    +0.000 HD
ENDBRANCH  18  20
ENDBRANCH   6  18
BRANCH   1  22
ATOM     22  C   UNL     1       2.993   5.386  17.911  0.00  0.00    +0.000 C 
BRANCH  22  23
ATOM     23  C   UNL     1       4.505   5.216  17.993  0.00  0.00    +0.000 C 
ATOM     24  O   UNL     1       5.052   4.963  19.071  0.00  0.00    +0.000 OA
BRANCH  23  26
ATOM     25  C   UNL     1       4.888   6.714  16.011  0.00  0.00    +0.000 C 
ATOM     26  C   UNL     1       5.336   5.412  16.701  0.00  0.00    +0.000 C 
ATOM     27  C   UNL     1       5.108   4.249  15.720  0.00  0.00    +0.000 C 
ATOM     28  C   UNL     1       6.823   5.521  17.047  0.00  0.00    +0.000 C 
ENDBRANCH  23  26
ENDBRANCH  22  23
ENDBRANCH   1  22
TORSDOF 6
ENDMDL
