MODEL 1
REMARK VINA RESULT:      -7.2      0.000      0.000
REMARK  Name = 
REMARK  4 active torsions:
REMARK  status: ('A' for Active; 'I' for Inactive)
REMARK    1  A    between atoms: C_1  and  C_2
REMARK    2  A    between atoms: C_2  and  O_3
REMARK    3  A    between atoms: O_3  and  C_4
REMARK    4  A    between atoms: C_7  and  C_8
REMARK                            x       y       z     vdW  Elec       q    Type
REMARK                         _______ _______ _______ _____ _____    ______ ____
ROOT
ATOM      1  C   UNL     1       6.145   6.183  16.869  0.00  0.00    +0.000 A 
ATOM      2  C   UNL     1       4.980   6.824  17.293  0.00  0.00    +0.000 A 
ATOM      3  C   UNL     1       3.821   6.089  17.547  0.00  0.00    +0.000 A 
ATOM      4  C   UNL     1       3.812   4.705  17.352  0.00  0.00    +0.000 A 
ATOM      5  C   UNL     1       4.969   4.067  16.894  0.00  0.00    +0.000 A 
ATOM      6  C   UNL     1       6.131   4.806  16.647  0.00  0.00    +0.000 A 
ENDROOT
BRANCH   4   7
ATOM      7  C   UNL     1       2.593   3.940  17.619  0.00  0.00    +0.000 C 
ATOM      8  C   UNL     1       2.168   3.577  18.836  0.00  0.00    +0.000 C 
ATOM      9  S   UNL     1       2.890   3.920  20.364  0.00  0.00    +0.000 S 
ATOM     10  C   UNL     1       1.679   2.999  21.230  0.00  0.00    +0.000 C 
ATOM     11  O   UNL     1       1.659   2.849  22.440  0.00  0.00    +0.000 OA
ATOM     12  N   UNL     1       0.778   2.484  20.355  0.00  0.00    +0.000 N 
ATOM     13  C   UNL     1       0.949   2.750  19.029  0.00  0.00    +0.000 C 
ATOM     14  O   UNL     1       0.211   2.355  18.140  0.00  0.00    +0.000 OA
ATOM     15  H   UNL     1       0.012   1.920  20.678  0.00  0.00    +0.000 HD
ENDBRANCH   4   7
BRANCH   1  16
ATOM     16  O   UNL     1       7.227   6.999  16.693  0.00  0.00    +0.000 OA
BRANCH  16  18
ATOM     17  C   UNL     1       8.078   8.909  17.836  0.00  0.00    +0.000 C 
ATOM     18  C   UNL     1       7.902   7.402  17.886  0.00  0.00    +0.000 C 
ENDBRANCH  16  18
ENDBRANCH   1  16
TORSDOF 3
ENDMDL
MODEL 2
REMARK VINA RESULT:      -6.9      0.440      1.244
REMARK  Name = 
REMARK  4 active torsions:
REMARK  status: ('A' for Active; 'I' for Inactive)
REMARK    1  A    between atoms: C_1  and  C_2
REMARK    2  A    between atoms: C_2  and  O_3
REMARK    3  A    between atoms: O_3  and  C_4
REMARK    4  A    between atoms: C_7  and  C_8
REMARK                            x       y       z     vdW  Elec       q    Type
REMARK                         _______ _______ _______ _____ _____    ______ ____
ROOT
ATOM      1  C   UNL     1       5.627   6.732  16.983  0.00  0.00    +0.000 A 
ATOM      2  C   UNL     1       5.816   5.350  16.921  0.00  0.00    +0.000 A 
ATOM      3  C   UNL     1       4.748   4.481  17.152  0.00  0.00    +0.000 A 
ATOM      4  C   UNL     1       3.486   4.990  17.474  0.00  0.00    +0.000 A 
ATOM      5  C   UNL     1       3.306   6.373  17.569  0.00  0.00    +0.000 A 
ATOM      6  C   UNL     1       4.376   7.242  17.331  0.00  0.00    +0.000 A 
ENDROOT
BRANCH   4   7
ATOM      7  C   UNL     1       2.372   4.073  17.716  0.00  0.00    +0.000 C 
ATOM      8  C   UNL     1       1.987   3.638  18.922  0.00  0.00    +0.000 C 
ATOM      9  S   UNL     1       2.648   4.043  20.463  0.00  0.00    +0.000 S 
ATOM     10  C   UNL     1       1.556   2.962  21.302  0.00  0.00    +0.000 C 
ATOM     11  O   UNL     1       1.546   2.790  22.510  0.00  0.00    +0.000 OA
ATOM     12  N   UNL     1       0.734   2.353  20.410  0.00  0.00    +0.000 N 
ATOM     13  C   UNL     1       0.881   2.660  19.091  0.00  0.00    +0.000 C 
ATOM     14  O   UNL     1       0.205   2.191  18.188  0.00  0.00    +0.000 OA
ATOM     15  H   UNL     1       0.043   1.691  20.717  0.00  0.00    +0.000 HD
ENDBRANCH   4   7
BRANCH   1  16
ATOM     16  O   UNL     1       6.733   7.482  16.696  0.00  0.00    +0.000 OA
BRANCH  16  18
ATOM     17  C   UNL     1       8.135   8.961  17.931  0.00  0.00    +0.000 C 
ATOM     18  C   UNL     1       7.743   7.512  17.706  0.00  0.00    +0.000 C 
ENDBRANCH  16  18
ENDBRANCH   1  16
TORSDOF 3
ENDMDL
MODEL 3
REMARK VINA RESULT:      -6.9      2.780      6.522
REMARK  Name = 
REMARK  4 active torsions:
REMARK  status: ('A' for Active; 'I' for Inactive)
REMARK    1  A    between atoms: C_1  and  C_2
REMARK    2  A    between atoms: C_2  and  O_3
REMARK    3  A    between atoms: O_3  and  C_4
REMARK    4  A    between atoms: C_7  and  C_8
REMARK                            x       y       z     vdW  Elec       q    Type
REMARK                         _______ _______ _______ _____ _____    ______ ____
ROOT
ATOM      1  C   UNL     1       1.706   2.959  19.205  0.00  0.00    +0.000 A 
ATOM      2  C   UNL     1       2.740   2.059  18.942  0.00  0.00    +0.000 A 
ATOM      3  C   UNL     1       3.744   2.385  18.028  0.00  0.00    +0.000 A 
ATOM      4  C   UNL     1       3.706   3.605  17.349  0.00  0.00    +0.000 A 
ATOM      5  C   UNL     1       2.652   4.493  17.587  0.00  0.00    +0.000 A 
ATOM      6  C   UNL     1       1.650   4.167  18.509  0.00  0.00    +0.000 A 
ENDROOT
BRANCH   4   7
ATOM      7  C   UNL     1       4.761   3.939  16.392  0.00  0.00    +0.000 C 
ATOM      8  C   UNL     1       5.717   4.854  16.594  0.00  0.00    +0.000 C 
ATOM      9  S   UNL     1       5.981   5.830  17.991  0.00  0.00    +0.000 S 
ATOM     10  C   UNL     1       7.329   6.665  17.249  0.00  0.00    +0.000 C 
ATOM     11  O   UNL     1       7.974   7.550  17.786  0.00  0.00    +0.000 OA
ATOM     12  N   UNL     1       7.541   6.178  16.000  0.00  0.00    +0.000 N 
ATOM     13  C   UNL     1       6.725   5.183  15.553  0.00  0.00    +0.000 C 
ATOM     14  O   UNL     1       6.810   4.654  14.456  0.00  0.00    +0.000 OA
ATOM     15  H   UNL     1       8.277   6.547  15.423  0.00  0.00    +0.000 HD
ENDBRANCH   4   7
BRANCH   1  16
ATOM     16  O   UNL     1       0.806   2.550  20.148  0.00  0.00    +0.000 OA
BRANCH  16  18
ATOM     17  C   UNL     1       2.147   3.731  21.725  0.00  0.00    +0.000 C 
ATOM     18  C   UNL     1       1.291   2.500  21.491  0.00  0.00    +0.000 C 
ENDBRANCH  16  18
ENDBRANCH   1  16
TORSDOF 3
ENDMDL
MODEL 4
REMARK VINA RESULT:      -6.8      2.010      2.936
REMARK  Name = 
REMARK  4 active torsions:
REMARK  status: ('A' for Active; 'I' for Inactive)
REMARK    1  A    between atoms: C_1  and  C_2
REMARK    2  A    between atoms: C_2  and  O_3
REMARK    3  A    between atoms: O_3  and  C_4
REMARK    4  A    between atoms: C_7  and  C_8
REMARK                            x       y       z     vdW  Elec       q    Type
REMARK                         _______ _______ _______ _____ _____    ______ ____
ROOT
ATOM      1  C   UNL     1       6.862   5.299  16.019  0.00  0.00    +0.000 A 
ATOM      2  C   UNL     1       5.608   5.876  15.808  0.00  0.00    +0.000 A 
ATOM      3  C   UNL     1       4.645   5.862  16.818  0.00  0.00    +0.000 A 
ATOM      4  C   UNL     1       4.922   5.247  18.042  0.00  0.00    +0.000 A 
ATOM      5  C   UNL     1       6.165   4.639  18.242  0.00  0.00    +0.000 A 
ATOM      6  C   UNL     1       7.131   4.660  17.230  0.00  0.00    +0.000 A 
ENDROOT
BRANCH   4   7
ATOM      7  C   UNL     1       3.907   5.235  19.096  0.00  0.00    +0.000 C 
ATOM      8  C   UNL     1       2.850   4.414  19.132  0.00  0.00    +0.000 C 
ATOM      9  S   UNL     1       2.423   3.175  18.011  0.00  0.00    +0.000 S 
ATOM     10  C   UNL     1       0.950   2.791  18.877  0.00  0.00    +0.000 C 
ATOM     11  O   UNL     1       0.152   1.934  18.536  0.00  0.00    +0.000 OA
ATOM     12  N   UNL     1       0.838   3.586  19.971  0.00  0.00    +0.000 N 
ATOM     13  C   UNL     1       1.825   4.496  20.205  0.00  0.00    +0.000 C 
ATOM     14  O   UNL     1       1.851   5.265  21.153  0.00  0.00    +0.000 OA
ATOM     15  H   UNL     1       0.047   3.506  20.585  0.00  0.00    +0.000 HD
ENDBRANCH   4   7
BRANCH   1  16
ATOM     16  O   UNL     1       7.736   5.412  14.975  0.00  0.00    +0.000 OA
BRANCH  16  18
ATOM     17  C   UNL     1       8.052   5.540  12.617  0.00  0.00    +0.000 C 
ATOM     18  C   UNL     1       7.305   4.842  13.738  0.00  0.00    +0.000 C 
ENDBRANCH  16  18
ENDBRANCH   1  16
TORSDOF 3
ENDMDL
MODEL 5
REMARK VINA RESULT:      -6.7      1.997      3.147
REMARK  Name = 
REMARK  4 active torsions:
REMARK  status: ('A' for Active; 'I' for Inactive)
REMARK    1  A    between atoms: C_1  and  C_2
REMARK    2  A    between atoms: C_2  and  O_3
REMARK    3  A    between atoms: O_3  and  C_4
REMARK    4  A    between atoms: C_7  and  C_8
REMARK                            x       y       z     vdW  Elec       q    Type
REMARK                         _______ _______ _______ _____ _____    ______ ____
ROOT
ATOM      1  C   UNL     1       6.665   5.329  15.889  0.00  0.00    +0.000 A 
ATOM      2  C   UNL     1       6.884   4.615  17.069  0.00  0.00    +0.000 A 
ATOM      3  C   UNL     1       5.933   4.631  18.091  0.00  0.00    +0.000 A 
ATOM      4  C   UNL     1       4.765   5.384  17.950  0.00  0.00    +0.000 A 
ATOM      5  C   UNL     1       4.561   6.127  16.783  0.00  0.00    +0.000 A 
ATOM      6  C   UNL     1       5.512   6.104  15.757  0.00  0.00    +0.000 A 
ENDROOT
BRANCH   4   7
ATOM      7  C   UNL     1       3.773   5.397  19.027  0.00  0.00    +0.000 C 
ATOM      8  C   UNL     1       2.754   4.537  19.139  0.00  0.00    +0.000 C 
ATOM      9  S   UNL     1       2.358   3.211  18.109  0.00  0.00    +0.000 S 
ATOM     10  C   UNL     1       0.922   2.822  19.031  0.00  0.00    +0.000 C 
ATOM     11  O   UNL     1       0.155   1.912  18.764  0.00  0.00    +0.000 OA
ATOM     12  N   UNL     1       0.798   3.680  20.075  0.00  0.00    +0.000 N 
ATOM     13  C   UNL     1       1.749   4.645  20.228  0.00  0.00    +0.000 C 
ATOM     14  O   UNL     1       1.761   5.474  21.124  0.00  0.00    +0.000 OA
ATOM     15  H   UNL     1       0.023   3.608  20.711  0.00  0.00    +0.000 HD
ENDBRANCH   4   7
BRANCH   1  16
ATOM     16  O   UNL     1       7.643   5.204  14.944  0.00  0.00    +0.000 OA
BRANCH  16  18
ATOM     17  C   UNL     1       6.449   3.780  13.452  0.00  0.00    +0.000 C 
ATOM     18  C   UNL     1       7.193   5.095  13.593  0.00  0.00    +0.000 C 
ENDBRANCH  16  18
ENDBRANCH   1  16
TORSDOF 3
ENDMDL
MODEL 6
REMARK VINA RESULT:      -6.6      2.825      6.474
REMARK  Name = 
REMARK  4 active torsions:
REMARK  status: ('A' for Active; 'I' for Inactive)
REMARK    1  A    between atoms: C_1  and  C_2
REMARK    2  A    between atoms: C_2  and  O_3
REMARK    3  A    between atoms: O_3  and  C_4
REMARK    4  A    between atoms: C_7  and  C_8
REMARK                            x       y       z     vdW  Elec       q    Type
REMARK                         _______ _______ _______ _____ _____    ______ ____
ROOT
ATOM      1  C   UNL     1       1.802   2.867  19.238  0.00  0.00    +0.000 A 
ATOM      2  C   UNL     1       1.732   4.027  18.464  0.00  0.00    +0.000 A 
ATOM      3  C   UNL     1       2.704   4.292  17.498  0.00  0.00    +0.000 A 
ATOM      4  C   UNL     1       3.773   3.409  17.318  0.00  0.00    +0.000 A 
ATOM      5  C   UNL     1       3.862   2.265  18.117  0.00  0.00    +0.000 A 
ATOM      6  C   UNL     1       2.882   1.998  19.080  0.00  0.00    +0.000 A 
ENDROOT
BRANCH   4   7
ATOM      7  C   UNL     1       4.790   3.694  16.306  0.00  0.00    +0.000 C 
ATOM      8  C   UNL     1       5.710   4.662  16.396  0.00  0.00    +0.000 C 
ATOM      9  S   UNL     1       5.963   5.776  17.689  0.00  0.00    +0.000 S 
ATOM     10  C   UNL     1       7.257   6.591  16.836  0.00  0.00    +0.000 C 
ATOM     11  O   UNL     1       7.874   7.549  17.270  0.00  0.00    +0.000 OA
ATOM     12  N   UNL     1       7.461   5.998  15.632  0.00  0.00    +0.000 N 
ATOM     13  C   UNL     1       6.678   4.933  15.302  0.00  0.00    +0.000 C 
ATOM     14  O   UNL     1       6.761   4.306  14.257  0.00  0.00    +0.000 OA
ATOM     15  H   UNL     1       8.166   6.341  15.004  0.00  0.00    +0.000 HD
ENDBRANCH   4   7
BRANCH   1  16
ATOM     16  O   UNL     1       0.772   2.694  20.119  0.00  0.00    +0.000 OA
BRANCH  16  18
ATOM     17  C   UNL     1       2.200   3.665  21.761  0.00  0.00    +0.000 C 
ATOM     18  C   UNL     1       1.139   2.612  21.497  0.00  0.00    +0.000 C 
ENDBRANCH  16  18
ENDBRANCH   1  16
TORSDOF 3
ENDMDL
MODEL 7
REMARK VINA RESULT:      -6.5      1.347      1.662
REMARK  Name = 
REMARK  4 active torsions:
REMARK  status: ('A' for Active; 'I' for Inactive)
REMARK    1  A    between atoms: C_1  and  C_2
REMARK    2  A    between atoms: C_2  and  O_3
REMARK    3  A    between atoms: O_3  and  C_4
REMARK    4  A    between atoms: C_7  and  C_8
REMARK                            x       y       z     vdW  Elec       q    Type
REMARK                         _______ _______ _______ _____ _____    ______ ____
ROOT
ATOM      1  C   UNL     1       7.428   6.773  17.985  0.00  0.00    +0.000 A 
ATOM      2  C   UNL     1       6.273   7.147  17.296  0.00  0.00    +0.000 A 
ATOM      3  C   UNL     1       5.235   6.232  17.108  0.00  0.00    +0.000 A 
ATOM      4  C   UNL     1       5.358   4.924  17.585  0.00  0.00    +0.000 A 
ATOM      5  C   UNL     1       6.529   4.540  18.245  0.00  0.00    +0.000 A 
ATOM      6  C   UNL     1       7.565   5.461  18.439  0.00  0.00    +0.000 A 
ENDROOT
BRANCH   4   7
ATOM      7  C   UNL     1       4.268   3.970  17.382  0.00  0.00    +0.000 C 
ATOM      8  C   UNL     1       3.325   3.680  18.287  0.00  0.00    +0.000 C 
ATOM      9  S   UNL     1       3.123   4.345  19.866  0.00  0.00    +0.000 S 
ATOM     10  C   UNL     1       1.750   3.313  20.209  0.00  0.00    +0.000 C 
ATOM     11  O   UNL     1       1.133   3.312  21.261  0.00  0.00    +0.000 OA
ATOM     12  N   UNL     1       1.486   2.526  19.136  0.00  0.00    +0.000 N 
ATOM     13  C   UNL     1       2.279   2.656  18.035  0.00  0.00    +0.000 C 
ATOM     14  O   UNL     1       2.147   2.016  17.003  0.00  0.00    +0.000 OA
ATOM     15  H   UNL     1       0.730   1.864  19.157  0.00  0.00    +0.000 HD
ENDBRANCH   4   7
BRANCH   1  16
ATOM     16  O   UNL     1       8.355   7.764  18.146  0.00  0.00    +0.000 OA
BRANCH  16  18
ATOM     17  C   UNL     1       8.871  10.074  18.423  0.00  0.00    +0.000 C 
ATOM     18  C   UNL     1       7.936   9.075  17.765  0.00  0.00    +0.000 C 
ENDBRANCH  16  18
ENDBRANCH   1  16
TORSDOF 3
ENDMDL
MODEL 8
REMARK VINA RESULT:      -6.4      1.244      1.782
REMARK  Name = 
REMARK  4 active torsions:
REMARK  status: ('A' for Active; 'I' for Inactive)
REMARK    1  A    between atoms: C_1  and  C_2
REMARK    2  A    between atoms: C_2  and  O_3
REMARK    3  A    between atoms: O_3  and  C_4
REMARK    4  A    between atoms: C_7  and  C_8
REMARK                            x       y       z     vdW  Elec       q    Type
REMARK                         _______ _______ _______ _____ _____    ______ ____
ROOT
ATOM      1  C   UNL     1       7.198   6.858  17.886  0.00  0.00    +0.000 A 
ATOM      2  C   UNL     1       7.362   5.589  18.443  0.00  0.00    +0.000 A 
ATOM      3  C   UNL     1       6.346   4.636  18.341  0.00  0.00    +0.000 A 
ATOM      4  C   UNL     1       5.146   4.957  17.701  0.00  0.00    +0.000 A 
ATOM      5  C   UNL     1       4.969   6.240  17.173  0.00  0.00    +0.000 A 
ATOM      6  C   UNL     1       5.991   7.190  17.271  0.00  0.00    +0.000 A 
ENDROOT
BRANCH   4   7
ATOM      7  C   UNL     1       4.084   3.955  17.599  0.00  0.00    +0.000 C 
ATOM      8  C   UNL     1       3.316   3.548  18.617  0.00  0.00    +0.000 C 
ATOM      9  S   UNL     1       3.339   4.089  20.255  0.00  0.00    +0.000 S 
ATOM     10  C   UNL     1       2.092   2.955  20.729  0.00  0.00    +0.000 C 
ATOM     11  O   UNL     1       1.653   2.844  21.861  0.00  0.00    +0.000 OA
ATOM     12  N   UNL     1       1.696   2.229  19.653  0.00  0.00    +0.000 N 
ATOM     13  C   UNL     1       2.294   2.482  18.454  0.00  0.00    +0.000 C 
ATOM     14  O   UNL     1       2.028   1.907  17.410  0.00  0.00    +0.000 OA
ATOM     15  H   UNL     1       0.987   1.522  19.742  0.00  0.00    +0.000 HD
ENDBRANCH   4   7
BRANCH   1  16
ATOM     16  O   UNL     1       8.275   7.690  18.010  0.00  0.00    +0.000 OA
BRANCH  16  18
ATOM     17  C   UNL     1       8.959   9.854  18.737  0.00  0.00    +0.000 C 
ATOM     18  C   UNL     1       8.009   9.083  17.840  0.00  0.00    +0.000 C 
ENDBRANCH  16  18
ENDBRANCH   1  16
TORSDOF 3
ENDMDL
MODEL 9
REMARK VINA RESULT:      -6.2      2.626      3.311
REMARK  Name = 
REMARK  4 active torsions:
REMARK  status: ('A' for Active; 'I' for Inactive)
REMARK    1  A    between atoms: C_1  and  C_2
REMARK    2  A    between atoms: C_2  and  O_3
REMARK    3  A    between atoms: O_3  and  C_4
REMARK    4  A    between atoms: C_7  and  C_8
REMARK                            x       y       z     vdW  Elec       q    Type
REMARK                         _______ _______ _______ _____ _____    ______ ____
ROOT
ATOM      1  C   UNL     1       6.789   4.842  15.699  0.00  0.00    +0.000 A 
ATOM      2  C   UNL     1       7.216   5.013  17.017  0.00  0.00    +0.000 A 
ATOM      3  C   UNL     1       6.371   4.690  18.081  0.00  0.00    +0.000 A 
ATOM      4  C   UNL     1       5.079   4.219  17.832  0.00  0.00    +0.000 A 
ATOM      5  C   UNL     1       4.639   4.081  16.512  0.00  0.00    +0.000 A 
ATOM      6  C   UNL     1       5.491   4.398  15.448  0.00  0.00    +0.000 A 
ENDROOT
BRANCH   4   7
ATOM      7  C   UNL     1       4.198   3.884  18.951  0.00  0.00    +0.000 C 
ATOM      8  C   UNL     1       3.353   4.738  19.543  0.00  0.00    +0.000 C 
ATOM      9  S   UNL     1       3.058   6.392  19.148  0.00  0.00    +0.000 S 
ATOM     10  C   UNL     1       1.929   6.586  20.472  0.00  0.00    +0.000 C 
ATOM     11  O   UNL     1       1.349   7.626  20.737  0.00  0.00    +0.000 OA
ATOM     12  N   UNL     1       1.803   5.416  21.147  0.00  0.00    +0.000 N 
ATOM     13  C   UNL     1       2.528   4.346  20.714  0.00  0.00    +0.000 C 
ATOM     14  O   UNL     1       2.503   3.237  21.225  0.00  0.00    +0.000 OA
ATOM     15  H   UNL     1       1.196   5.345  21.944  0.00  0.00    +0.000 HD
ENDBRANCH   4   7
BRANCH   1  16
ATOM     16  O   UNL     1       7.717   5.150  14.744  0.00  0.00    +0.000 OA
BRANCH  16  18
ATOM     17  C   UNL     1       8.223   5.717  12.486  0.00  0.00    +0.000 C 
ATOM     18  C   UNL     1       7.328   4.894  13.394  0.00  0.00    +0.000 C 
ENDBRANCH  16  18
ENDBRANCH   1  16
TORSDOF 3
ENDMDL
