MODEL 1
REMARK VINA RESULT:      -7.7      0.000      0.000
REMARK  Name = 
REMARK  7 active torsions:
REMARK  status: ('A' for Active; 'I' for Inactive)
REMARK    1  A    between atoms: C_1  and  C_2
REMARK    2  A    between atoms: C_2  and  O_3
REMARK    3  A    between atoms: O_3  and  C_4
REMARK    4  A    between atoms: C_9  and  O_10
REMARK    5  A    between atoms: O_10  and  C_11
REMARK    6  A    between atoms: C_12  and  N_13
REMARK    7  A    between atoms: C_14  and  C_16
REMARK                            x       y       z     vdW  Elec       q    Type
REMARK                         _______ _______ _______ _____ _____    ______ ____
ROOT
ATOM      1  C   UNL     1       3.775   3.207  19.382  0.00  0.00    +0.000 A 
ATOM      2  C   UNL     1       4.975   3.847  19.719  0.00  0.00    +0.000 A 
ATOM      3  C   UNL     1       5.453   4.841  18.890  0.00  0.00    +0.000 A 
ATOM      4  C   UNL     1       4.812   5.252  17.738  0.00  0.00    +0.000 A 
ATOM      5  C   UNL     1       3.609   4.650  17.400  0.00  0.00    +0.000 A 
ATOM      6  C   UNL     1       3.078   3.621  18.218  0.00  0.00    +0.000 A 
ATOM      7  C   UNL     1       5.562   6.348  17.040  0.00  0.00    +0.000 C 
ATOM      8  C   UNL     1       6.827   6.564  17.908  0.00  0.00    +0.000 C 
ATOM      9  C   UNL     1       6.674   5.613  19.056  0.00  0.00    +0.000 C 
ATOM     10  O   UNL     1       7.436   5.472  19.996  0.00  0.00    +0.000 OA
ENDROOT
BRANCH   7  11
ATOM     11  N   UNL     1       5.888   6.001  15.678  0.00  0.00    +0.000 N 
ATOM     12  C   UNL     1       6.804   5.011  15.386  0.00  0.00    +0.000 C 
ATOM     13  O   UNL     1       7.374   4.373  16.268  0.00  0.00    +0.000 OA
ATOM     14  H   UNL     1       5.454   6.480  14.896  0.00  0.00    +0.000 HD
BRANCH  12  15
ATOM     15  C   UNL     1       7.012   4.791  13.973  0.00  0.00    +0.000 A 
ATOM     16  C   UNL     1       6.491   3.842  13.117  0.00  0.00    +0.000 A 
ATOM     17  C   UNL     1       7.052   4.091  11.841  0.00  0.00    +0.000 A 
ATOM     18  C   UNL     1       7.877   5.179  11.994  0.00  0.00    +0.000 A 
ATOM     19  O   UNL     1       7.858   5.617  13.279  0.00  0.00    +0.000 OA
ENDBRANCH  12  15
ENDBRANCH   7  11
BRANCH   6  20
ATOM     20  O   UNL     1       1.890   3.144  17.723  0.00  0.00    +0.000 OA
ATOM     21  C   UNL     1       0.676   3.540  18.343  0.00  0.00    +0.000 C 
ENDBRANCH   6  20
BRANCH   1  22
ATOM     22  O   UNL     1       3.258   2.194  20.150  0.00  0.00    +0.000 OA
BRANCH  22  24
ATOM     23  C   UNL     1       1.408   2.698  21.597  0.00  0.00    +0.000 C 
ATOM     24  C   UNL     1       2.908   2.514  21.499  0.00  0.00    +0.000 C 
ENDBRANCH  22  24
ENDBRANCH   1  22
TORSDOF 5
ENDMDL
MODEL 2
REMARK VINA RESULT:      -7.5      1.520      1.910
REMARK  Name = 
REMARK  7 active torsions:
REMARK  status: ('A' for Active; 'I' for Inactive)
REMARK    1  A    between atoms: C_1  and  C_2
REMARK    2  A    between atoms: C_2  and  O_3
REMARK    3  A    between atoms: O_3  and  C_4
REMARK    4  A    between atoms: C_9  and  O_10
REMARK    5  A    between atoms: O_10  and  C_11
REMARK    6  A    between atoms: C_12  and  N_13
REMARK    7  A    between atoms: C_14  and  C_16
REMARK                            x       y       z     vdW  Elec       q    Type
REMARK                         _______ _______ _______ _____ _____    ______ ____
ROOT
ATOM      1  C   UNL     1       3.791   4.522  19.411  0.00  0.00    +0.000 A 
ATOM      2  C   UNL     1       5.191   4.544  19.408  0.00  0.00    +0.000 A 
ATOM      3  C   UNL     1       5.848   4.807  18.224  0.00  0.00    +0.000 A 
ATOM      4  C   UNL     1       5.203   5.057  17.029  0.00  0.00    +0.000 A 
ATOM      5  C   UNL     1       3.816   5.066  17.016  0.00  0.00    +0.000 A 
ATOM      6  C   UNL     1       3.095   4.799  18.206  0.00  0.00    +0.000 A 
ATOM      7  C   UNL     1       6.171   5.309  15.911  0.00  0.00    +0.000 C 
ATOM      8  C   UNL     1       7.567   5.145  16.565  0.00  0.00    +0.000 C 
ATOM      9  C   UNL     1       7.285   4.864  18.009  0.00  0.00    +0.000 C 
ATOM     10  O   UNL     1       8.104   4.694  18.895  0.00  0.00    +0.000 OA
ENDROOT
BRANCH   7  11
ATOM     11  N   UNL     1       5.976   4.400  14.808  0.00  0.00    +0.000 N 
ATOM     12  C   UNL     1       6.669   4.545  13.623  0.00  0.00    +0.000 C 
ATOM     13  O   UNL     1       7.491   5.442  13.457  0.00  0.00    +0.000 OA
ATOM     14  H   UNL     1       5.317   3.631  14.872  0.00  0.00    +0.000 HD
BRANCH  12  15
ATOM     15  C   UNL     1       6.353   3.549  12.625  0.00  0.00    +0.000 A 
ATOM     16  C   UNL     1       7.166   2.698  11.903  0.00  0.00    +0.000 A 
ATOM     17  C   UNL     1       6.319   1.946  11.054  0.00  0.00    +0.000 A 
ATOM     18  C   UNL     1       5.040   2.379  11.312  0.00  0.00    +0.000 A 
ATOM     19  O   UNL     1       5.045   3.345  12.265  0.00  0.00    +0.000 OA
ENDBRANCH  12  15
ENDBRANCH   7  11
BRANCH   6  20
ATOM     20  O   UNL     1       1.740   4.846  17.997  0.00  0.00    +0.000 OA
ATOM     21  C   UNL     1       0.987   3.645  18.079  0.00  0.00    +0.000 C 
ENDBRANCH   6  20
BRANCH   1  22
ATOM     22  O   UNL     1       3.077   4.243  20.550  0.00  0.00    +0.000 OA
BRANCH  22  24
ATOM     23  C   UNL     1       1.674   2.667  21.698  0.00  0.00    +0.000 C 
ATOM     24  C   UNL     1       2.962   2.868  20.926  0.00  0.00    +0.000 C 
ENDBRANCH  22  24
ENDBRANCH   1  22
TORSDOF 5
ENDMDL
MODEL 3
REMARK VINA RESULT:      -7.4      2.374      4.608
REMARK  Name = 
REMARK  7 active torsions:
REMARK  status: ('A' for Active; 'I' for Inactive)
REMARK    1  A    between atoms: C_1  and  C_2
REMARK    2  A    between atoms: C_2  and  O_3
REMARK    3  A    between atoms: O_3  and  C_4
REMARK    4  A    between atoms: C_9  and  O_10
REMARK    5  A    between atoms: O_10  and  C_11
REMARK    6  A    between atoms: C_12  and  N_13
REMARK    7  A    between atoms: C_14  and  C_16
REMARK                            x       y       z     vdW  Elec       q    Type
REMARK                         _______ _______ _______ _____ _____    ______ ____
ROOT
ATOM      1  C   UNL     1       3.027   4.275  17.642  0.00  0.00    +0.000 A 
ATOM      2  C   UNL     1       3.685   4.060  16.424  0.00  0.00    +0.000 A 
ATOM      3  C   UNL     1       5.010   4.427  16.312  0.00  0.00    +0.000 A 
ATOM      4  C   UNL     1       5.737   4.996  17.339  0.00  0.00    +0.000 A 
ATOM      5  C   UNL     1       5.112   5.192  18.561  0.00  0.00    +0.000 A 
ATOM      6  C   UNL     1       3.750   4.834  18.726  0.00  0.00    +0.000 A 
ATOM      7  C   UNL     1       7.151   5.290  16.930  0.00  0.00    +0.000 C 
ATOM      8  C   UNL     1       7.221   4.853  15.445  0.00  0.00    +0.000 C 
ATOM      9  C   UNL     1       5.862   4.300  15.141  0.00  0.00    +0.000 C 
ATOM     10  O   UNL     1       5.488   3.817  14.087  0.00  0.00    +0.000 OA
ENDROOT
BRANCH   7  11
ATOM     11  N   UNL     1       7.489   6.681  17.106  0.00  0.00    +0.000 N 
ATOM     12  C   UNL     1       8.044   7.145  18.281  0.00  0.00    +0.000 C 
ATOM     13  O   UNL     1       8.288   6.397  19.224  0.00  0.00    +0.000 OA
ATOM     14  H   UNL     1       7.321   7.359  16.370  0.00  0.00    +0.000 HD
BRANCH  12  15
ATOM     15  C   UNL     1       8.320   8.563  18.288  0.00  0.00    +0.000 A 
ATOM     16  C   UNL     1       7.890   9.576  17.453  0.00  0.00    +0.000 A 
ATOM     17  C   UNL     1       8.487  10.771  17.920  0.00  0.00    +0.000 A 
ATOM     18  C   UNL     1       9.241  10.419  19.014  0.00  0.00    +0.000 A 
ATOM     19  O   UNL     1       9.145   9.085  19.252  0.00  0.00    +0.000 OA
ENDBRANCH  12  15
ENDBRANCH   7  11
BRANCH   6  20
ATOM     20  O   UNL     1       3.306   5.107  19.995  0.00  0.00    +0.000 OA
ATOM     21  C   UNL     1       2.454   6.224  20.203  0.00  0.00    +0.000 C 
ENDBRANCH   6  20
BRANCH   1  22
ATOM     22  O   UNL     1       1.703   3.954  17.812  0.00  0.00    +0.000 OA
BRANCH  22  24
ATOM     23  C   UNL     1       0.764   2.850  19.727  0.00  0.00    +0.000 C 
ATOM     24  C   UNL     1       1.410   2.671  18.369  0.00  0.00    +0.000 C 
ENDBRANCH  22  24
ENDBRANCH   1  22
TORSDOF 5
ENDMDL
MODEL 4
REMARK VINA RESULT:      -7.4      1.427      1.806
REMARK  Name = 
REMARK  7 active torsions:
REMARK  status: ('A' for Active; 'I' for Inactive)
REMARK    1  A    between atoms: C_1  and  C_2
REMARK    2  A    between atoms: C_2  and  O_3
REMARK    3  A    between atoms: O_3  and  C_4
REMARK    4  A    between atoms: C_9  and  O_10
REMARK    5  A    between atoms: O_10  and  C_11
REMARK    6  A    between atoms: C_12  and  N_13
REMARK    7  A    between atoms: C_14  and  C_16
REMARK                            x       y       z     vdW  Elec       q    Type
REMARK                         _______ _______ _______ _____ _____    ______ ____
ROOT
ATOM      1  C   UNL     1       4.013   3.244  19.374  0.00  0.00    +0.000 A 
ATOM      2  C   UNL     1       5.326   3.727  19.296  0.00  0.00    +0.000 A 
ATOM      3  C   UNL     1       5.778   4.227  18.093  0.00  0.00    +0.000 A 
ATOM      4  C   UNL     1       5.007   4.286  16.949  0.00  0.00    +0.000 A 
ATOM      5  C   UNL     1       3.696   3.838  17.012  0.00  0.00    +0.000 A 
ATOM      6  C   UNL     1       3.185   3.311  18.224  0.00  0.00    +0.000 A 
ATOM      7  C   UNL     1       5.761   4.878  15.794  0.00  0.00    +0.000 C 
ATOM      8  C   UNL     1       7.174   5.164  16.362  0.00  0.00    +0.000 C 
ATOM      9  C   UNL     1       7.099   4.762  17.804  0.00  0.00    +0.000 C 
ATOM     10  O   UNL     1       7.987   4.845  18.634  0.00  0.00    +0.000 OA
ENDROOT
BRANCH   7  11
ATOM     11  N   UNL     1       5.799   3.989  14.658  0.00  0.00    +0.000 N 
ATOM     12  C   UNL     1       6.546   4.285  13.536  0.00  0.00    +0.000 C 
ATOM     13  O   UNL     1       7.221   5.309  13.457  0.00  0.00    +0.000 OA
ATOM     14  H   UNL     1       5.272   3.122  14.653  0.00  0.00    +0.000 HD
BRANCH  12  15
ATOM     15  C   UNL     1       6.472   3.288  12.494  0.00  0.00    +0.000 A 
ATOM     16  C   UNL     1       5.404   2.559  12.009  0.00  0.00    +0.000 A 
ATOM     17  C   UNL     1       5.913   1.715  10.993  0.00  0.00    +0.000 A 
ATOM     18  C   UNL     1       7.259   1.982  10.915  0.00  0.00    +0.000 A 
ATOM     19  O   UNL     1       7.611   2.936  11.815  0.00  0.00    +0.000 OA
ENDBRANCH  12  15
ENDBRANCH   7  11
BRANCH   6  20
ATOM     20  O   UNL     1       1.878   2.915  18.092  0.00  0.00    +0.000 OA
ATOM     21  C   UNL     1       0.880   3.896  17.857  0.00  0.00    +0.000 C 
ENDBRANCH   6  20
BRANCH   1  22
ATOM     22  O   UNL     1       3.509   2.710  20.534  0.00  0.00    +0.000 OA
BRANCH  22  24
ATOM     23  C   UNL     1       1.343   2.750  21.572  0.00  0.00    +0.000 C 
ATOM     24  C   UNL     1       2.612   3.528  21.290  0.00  0.00    +0.000 C 
ENDBRANCH  22  24
ENDBRANCH   1  22
TORSDOF 5
ENDMDL
MODEL 5
REMARK VINA RESULT:      -7.3      1.137      1.171
REMARK  Name = 
REMARK  7 active torsions:
REMARK  status: ('A' for Active; 'I' for Inactive)
REMARK    1  A    between atoms: C_1  and  C_2
REMARK    2  A    between atoms: C_2  and  O_3
REMARK    3  A    between atoms: O_3  and  C_4
REMARK    4  A    between atoms: C_9  and  O_10
REMARK    5  A    between atoms: O_10  and  C_11
REMARK    6  A    between atoms: C_12  and  N_13
REMARK    7  A    between atoms: C_14  and  C_16
REMARK                            x       y       z     vdW  Elec       q    Type
REMARK                         _______ _______ _______ _____ _____    ______ ____
ROOT
ATOM      1  C   UNL     1       3.656   4.913  19.693  0.00  0.00    +0.000 A 
ATOM      2  C   UNL     1       5.042   5.043  19.851  0.00  0.00    +0.000 A 
ATOM      3  C   UNL     1       5.770   5.647  18.847  0.00  0.00    +0.000 A 
ATOM      4  C   UNL     1       5.211   6.141  17.685  0.00  0.00    +0.000 A 
ATOM      5  C   UNL     1       3.837   6.047  17.522  0.00  0.00    +0.000 A 
ATOM      6  C   UNL     1       3.045   5.432  18.523  0.00  0.00    +0.000 A 
ATOM      7  C   UNL     1       6.243   6.743  16.778  0.00  0.00    +0.000 C 
ATOM      8  C   UNL     1       7.585   6.526  17.522  0.00  0.00    +0.000 C 
ATOM      9  C   UNL     1       7.207   5.867  18.814  0.00  0.00    +0.000 C 
ATOM     10  O   UNL     1       7.958   5.542  19.716  0.00  0.00    +0.000 OA
ENDROOT
BRANCH   7  11
ATOM     11  N   UNL     1       6.239   6.131  15.471  0.00  0.00    +0.000 N 
ATOM     12  C   UNL     1       6.674   4.835  15.281  0.00  0.00    +0.000 C 
ATOM     13  O   UNL     1       7.070   4.140  16.213  0.00  0.00    +0.000 OA
ATOM     14  H   UNL     1       5.921   6.642  14.654  0.00  0.00    +0.000 HD
BRANCH  12  15
ATOM     15  C   UNL     1       6.602   4.380  13.912  0.00  0.00    +0.000 A 
ATOM     16  C   UNL     1       5.711   3.534  13.282  0.00  0.00    +0.000 A 
ATOM     17  C   UNL     1       6.130   3.429  11.934  0.00  0.00    +0.000 A 
ATOM     18  C   UNL     1       7.248   4.221  11.820  0.00  0.00    +0.000 A 
ATOM     19  O   UNL     1       7.543   4.807  13.009  0.00  0.00    +0.000 OA
ENDBRANCH  12  15
ENDBRANCH   7  11
BRANCH   6  20
ATOM     20  O   UNL     1       1.715   5.426  18.183  0.00  0.00    +0.000 OA
ATOM     21  C   UNL     1       1.175   4.287  17.530  0.00  0.00    +0.000 C 
ENDBRANCH   6  20
BRANCH   1  22
ATOM     22  O   UNL     1       2.877   4.300  20.643  0.00  0.00    +0.000 OA
BRANCH  22  24
ATOM     23  C   UNL     1       1.576   2.424  21.389  0.00  0.00    +0.000 C 
ATOM     24  C   UNL     1       2.776   2.875  20.581  0.00  0.00    +0.000 C 
ENDBRANCH  22  24
ENDBRANCH   1  22
TORSDOF 5
ENDMDL
MODEL 6
REMARK VINA RESULT:      -7.2      7.684      9.433
REMARK  Name = 
REMARK  7 active torsions:
REMARK  status: ('A' for Active; 'I' for Inactive)
REMARK    1  A    between atoms: C_1  and  C_2
REMARK    2  A    between atoms: C_2  and  O_3
REMARK    3  A    between atoms: O_3  and  C_4
REMARK    4  A    between atoms: C_9  and  O_10
REMARK    5  A    between atoms: O_10  and  C_11
REMARK    6  A    between atoms: C_12  and  N_13
REMARK    7  A    between atoms: C_14  and  C_16
REMARK                            x       y       z     vdW  Elec       q    Type
REMARK                         _______ _______ _______ _____ _____    ______ ____
ROOT
ATOM      1  C   UNL     1      -3.607  11.027  17.815  0.00  0.00    +0.000 A 
ATOM      2  C   UNL     1      -3.046  11.686  18.917  0.00  0.00    +0.000 A 
ATOM      3  C   UNL     1      -1.701  11.520  19.175  0.00  0.00    +0.000 A 
ATOM      4  C   UNL     1      -0.863  10.738  18.404  0.00  0.00    +0.000 A 
ATOM      5  C   UNL     1      -1.394  10.099  17.293  0.00  0.00    +0.000 A 
ATOM      6  C   UNL     1      -2.771  10.235  16.987  0.00  0.00    +0.000 A 
ATOM      7  C   UNL     1       0.545  10.745  18.922  0.00  0.00    +0.000 C 
ATOM      8  C   UNL     1       0.485  11.634  20.190  0.00  0.00    +0.000 C 
ATOM      9  C   UNL     1      -0.936  12.103  20.265  0.00  0.00    +0.000 C 
ATOM     10  O   UNL     1      -1.417  12.850  21.099  0.00  0.00    +0.000 OA
ENDROOT
BRANCH   7  11
ATOM     11  N   UNL     1       1.023   9.415  19.210  0.00  0.00    +0.000 N 
ATOM     12  C   UNL     1       1.889   8.760  18.358  0.00  0.00    +0.000 C 
ATOM     13  O   UNL     1       2.302   9.281  17.325  0.00  0.00    +0.000 OA
ATOM     14  H   UNL     1       0.730   8.922  20.048  0.00  0.00    +0.000 HD
BRANCH  12  15
ATOM     15  C   UNL     1       2.268   7.437  18.799  0.00  0.00    +0.000 A 
ATOM     16  C   UNL     1       2.920   6.413  18.140  0.00  0.00    +0.000 A 
ATOM     17  C   UNL     1       3.013   5.335  19.052  0.00  0.00    +0.000 A 
ATOM     18  C   UNL     1       2.417   5.766  20.214  0.00  0.00    +0.000 A 
ATOM     19  O   UNL     1       1.966   7.039  20.076  0.00  0.00    +0.000 OA
ENDBRANCH  12  15
ENDBRANCH   7  11
BRANCH   6  20
ATOM     20  O   UNL     1      -3.111   9.528  15.861  0.00  0.00    +0.000 OA
ATOM     21  C   UNL     1      -3.125  10.193  14.607  0.00  0.00    +0.000 C 
ENDBRANCH   6  20
BRANCH   1  22
ATOM     22  O   UNL     1      -4.943  11.130  17.517  0.00  0.00    +0.000 OA
BRANCH  22  24
ATOM     23  C   UNL     1      -6.461  12.951  17.128  0.00  0.00    +0.000 C 
ATOM     24  C   UNL     1      -5.675  12.174  18.165  0.00  0.00    +0.000 C 
ENDBRANCH  22  24
ENDBRANCH   1  22
TORSDOF 5
ENDMDL
MODEL 7
REMARK VINA RESULT:      -7.1      2.000      2.321
REMARK  Name = 
REMARK  7 active torsions:
REMARK  status: ('A' for Active; 'I' for Inactive)
REMARK    1  A    between atoms: C_1  and  C_2
REMARK    2  A    between atoms: C_2  and  O_3
REMARK    3  A    between atoms: O_3  and  C_4
REMARK    4  A    between atoms: C_9  and  O_10
REMARK    5  A    between atoms: O_10  and  C_11
REMARK    6  A    between atoms: C_12  and  N_13
REMARK    7  A    between atoms: C_14  and  C_16
REMARK                            x       y       z     vdW  Elec       q    Type
REMARK                         _______ _______ _______ _____ _____    ______ ____
ROOT
ATOM      1  C   UNL     1       3.055   6.033  19.335  0.00  0.00    +0.000 A 
ATOM      2  C   UNL     1       4.306   5.561  19.753  0.00  0.00    +0.000 A 
ATOM      3  C   UNL     1       5.412   5.833  18.974  0.00  0.00    +0.000 A 
ATOM      4  C   UNL     1       5.363   6.552  17.797  0.00  0.00    +0.000 A 
ATOM      5  C   UNL     1       4.138   7.051  17.379  0.00  0.00    +0.000 A 
ATOM      6  C   UNL     1       2.971   6.797  18.143  0.00  0.00    +0.000 A 
ATOM      7  C   UNL     1       6.717   6.690  17.166  0.00  0.00    +0.000 C 
ATOM      8  C   UNL     1       7.664   5.904  18.109  0.00  0.00    +0.000 C 
ATOM      9  C   UNL     1       6.786   5.427  19.226  0.00  0.00    +0.000 C 
ATOM     10  O   UNL     1       7.129   4.787  20.205  0.00  0.00    +0.000 OA
ENDROOT
BRANCH   7  11
ATOM     11  N   UNL     1       6.742   6.177  15.817  0.00  0.00    +0.000 N 
ATOM     12  C   UNL     1       6.629   4.826  15.558  0.00  0.00    +0.000 C 
ATOM     13  O   UNL     1       6.489   4.002  16.458  0.00  0.00    +0.000 OA
ATOM     14  H   UNL     1       6.850   6.797  15.022  0.00  0.00    +0.000 HD
BRANCH  12  15
ATOM     15  C   UNL     1       6.673   4.485  14.155  0.00  0.00    +0.000 A 
ATOM     16  C   UNL     1       7.473   4.955  13.131  0.00  0.00    +0.000 A 
ATOM     17  C   UNL     1       7.070   4.279  11.955  0.00  0.00    +0.000 A 
ATOM     18  C   UNL     1       6.052   3.434  12.331  0.00  0.00    +0.000 A 
ATOM     19  O   UNL     1       5.805   3.545  13.661  0.00  0.00    +0.000 OA
ENDBRANCH  12  15
ENDBRANCH   7  11
BRANCH   6  20
ATOM     20  O   UNL     1       1.860   7.363  17.570  0.00  0.00    +0.000 OA
ATOM     21  C   UNL     1       1.656   8.762  17.696  0.00  0.00    +0.000 C 
ENDBRANCH   6  20
BRANCH   1  22
ATOM     22  O   UNL     1       1.912   5.778  20.051  0.00  0.00    +0.000 OA
BRANCH  22  24
ATOM     23  C   UNL     1       1.006   3.554  20.099  0.00  0.00    +0.000 C 
ATOM     24  C   UNL     1       1.878   4.568  20.812  0.00  0.00    +0.000 C 
ENDBRANCH  22  24
ENDBRANCH   1  22
TORSDOF 5
ENDMDL
MODEL 8
REMARK VINA RESULT:      -7.1      7.463      9.134
REMARK  Name = 
REMARK  7 active torsions:
REMARK  status: ('A' for Active; 'I' for Inactive)
REMARK    1  A    between atoms: C_1  and  C_2
REMARK    2  A    between atoms: C_2  and  O_3
REMARK    3  A    between atoms: O_3  and  C_4
REMARK    4  A    between atoms: C_9  and  O_10
REMARK    5  A    between atoms: O_10  and  C_11
REMARK    6  A    between atoms: C_12  and  N_13
REMARK    7  A    between atoms: C_14  and  C_16
REMARK                            x       y       z     vdW  Elec       q    Type
REMARK                         _______ _______ _______ _____ _____    ______ ____
ROOT
ATOM      1  C   UNL     1      -3.226  11.298  17.955  0.00  0.00    +0.000 A 
ATOM      2  C   UNL     1      -2.547  11.953  18.991  0.00  0.00    +0.000 A 
ATOM      3  C   UNL     1      -1.219  11.652  19.207  0.00  0.00    +0.000 A 
ATOM      4  C   UNL     1      -0.507  10.738  18.456  0.00  0.00    +0.000 A 
ATOM      5  C   UNL     1      -1.154  10.098  17.408  0.00  0.00    +0.000 A 
ATOM      6  C   UNL     1      -2.520  10.371  17.147  0.00  0.00    +0.000 A 
ATOM      7  C   UNL     1       0.915  10.617  18.918  0.00  0.00    +0.000 C 
ATOM      8  C   UNL     1       1.010  11.579  20.130  0.00  0.00    +0.000 C 
ATOM      9  C   UNL     1      -0.346  12.209  20.229  0.00  0.00    +0.000 C 
ATOM     10  O   UNL     1      -0.705  13.052  21.032  0.00  0.00    +0.000 OA
ENDROOT
BRANCH   7  11
ATOM     11  N   UNL     1       1.257   9.260  19.272  0.00  0.00    +0.000 N 
ATOM     12  C   UNL     1       2.002   8.462  18.428  0.00  0.00    +0.000 C 
ATOM     13  O   UNL     1       2.418   8.870  17.347  0.00  0.00    +0.000 OA
ATOM     14  H   UNL     1       0.953   8.855  20.151  0.00  0.00    +0.000 HD
BRANCH  12  15
ATOM     15  C   UNL     1       2.253   7.133  18.936  0.00  0.00    +0.000 A 
ATOM     16  C   UNL     1       2.075   6.594  20.195  0.00  0.00    +0.000 A 
ATOM     17  C   UNL     1       2.502   5.247  20.127  0.00  0.00    +0.000 A 
ATOM     18  C   UNL     1       2.911   5.042  18.831  0.00  0.00    +0.000 A 
ATOM     19  O   UNL     1       2.761   6.174  18.097  0.00  0.00    +0.000 OA
ENDBRANCH  12  15
ENDBRANCH   7  11
BRANCH   6  20
ATOM     20  O   UNL     1      -2.985   9.642  16.081  0.00  0.00    +0.000 OA
ATOM     21  C   UNL     1      -3.105  10.271  14.815  0.00  0.00    +0.000 C 
ENDBRANCH   6  20
BRANCH   1  22
ATOM     22  O   UNL     1      -4.555  11.533  17.702  0.00  0.00    +0.000 OA
BRANCH  22  24
ATOM     23  C   UNL     1      -6.880  11.310  18.261  0.00  0.00    +0.000 C 
ATOM     24  C   UNL     1      -5.502  10.688  18.359  0.00  0.00    +0.000 C 
ENDBRANCH  22  24
ENDBRANCH   1  22
TORSDOF 5
ENDMDL
MODEL 9
REMARK VINA RESULT:      -6.9      2.489      4.609
REMARK  Name = 
REMARK  7 active torsions:
REMARK  status: ('A' for Active; 'I' for Inactive)
REMARK    1  A    between atoms: C_1  and  C_2
REMARK    2  A    between atoms: C_2  and  O_3
REMARK    3  A    between atoms: O_3  and  C_4
REMARK    4  A    between atoms: C_9  and  O_10
REMARK    5  A    between atoms: O_10  and  C_11
REMARK    6  A    between atoms: C_12  and  N_13
REMARK    7  A    between atoms: C_14  and  C_16
REMARK                            x       y       z     vdW  Elec       q    Type
REMARK                         _______ _______ _______ _____ _____    ______ ____
ROOT
ATOM      1  C   UNL     1       3.059   4.800  17.996  0.00  0.00    +0.000 A 
ATOM      2  C   UNL     1       3.955   4.411  16.992  0.00  0.00    +0.000 A 
ATOM      3  C   UNL     1       5.308   4.565  17.213  0.00  0.00    +0.000 A 
ATOM      4  C   UNL     1       5.840   5.082  18.378  0.00  0.00    +0.000 A 
ATOM      5  C   UNL     1       4.971   5.448  19.395  0.00  0.00    +0.000 A 
ATOM      6  C   UNL     1       3.572   5.312  19.215  0.00  0.00    +0.000 A 
ATOM      7  C   UNL     1       7.339   5.132  18.336  0.00  0.00    +0.000 C 
ATOM      8  C   UNL     1       7.703   4.596  16.929  0.00  0.00    +0.000 C 
ATOM      9  C   UNL     1       6.391   4.236  16.301  0.00  0.00    +0.000 C 
ATOM     10  O   UNL     1       6.216   3.749  15.198  0.00  0.00    +0.000 OA
ENDROOT
BRANCH   7  11
ATOM     11  N   UNL     1       7.844   6.465  18.560  0.00  0.00    +0.000 N 
ATOM     12  C   UNL     1       7.590   7.490  17.672  0.00  0.00    +0.000 C 
ATOM     13  O   UNL     1       6.914   7.320  16.660  0.00  0.00    +0.000 OA
ATOM     14  H   UNL     1       8.405   6.683  19.376  0.00  0.00    +0.000 HD
BRANCH  12  15
ATOM     15  C   UNL     1       8.169   8.759  18.048  0.00  0.00    +0.000 A 
ATOM     16  C   UNL     1       8.077  10.008  17.465  0.00  0.00    +0.000 A 
ATOM     17  C   UNL     1       8.862  10.884  18.251  0.00  0.00    +0.000 A 
ATOM     18  C   UNL     1       9.383  10.121  19.269  0.00  0.00    +0.000 A 
ATOM     19  O   UNL     1       8.967   8.833  19.162  0.00  0.00    +0.000 OA
ENDBRANCH  12  15
ENDBRANCH   7  11
BRANCH   6  20
ATOM     20  O   UNL     1       2.877   5.729  20.323  0.00  0.00    +0.000 OA
ATOM     21  C   UNL     1       2.279   4.759  21.168  0.00  0.00    +0.000 C 
ENDBRANCH   6  20
BRANCH   1  22
ATOM     22  O   UNL     1       1.700   4.695  17.830  0.00  0.00    +0.000 OA
BRANCH  22  24
ATOM     23  C   UNL     1       1.579   2.465  18.714  0.00  0.00    +0.000 C 
ATOM     24  C   UNL     1       1.174   3.388  17.584  0.00  0.00    +0.000 C 
ENDBRANCH  22  24
ENDBRANCH   1  22
TORSDOF 5
ENDMDL
