MODEL 1
REMARK VINA RESULT:      -7.4      0.000      0.000
REMARK  Name = 
REMARK  11 active torsions:
REMARK  status: ('A' for Active; 'I' for Inactive)
REMARK    1  A    between atoms: C_1  and  O_2
REMARK    2  A    between atoms: O_2  and  C_3
REMARK    3  A    between atoms: C_6  and  O_7
REMARK    4  A    between atoms: O_7  and  C_8
REMARK    5  A    between atoms: C_9  and  N_10
REMARK    6  A    between atoms: C_11  and  C_13
REMARK    7  A    between atoms: C_13  and  C_14
REMARK    8  A    between atoms: C_14  and  C_15
REMARK    9  A    between atoms: C_21  and  C_22
REMARK   10  A    between atoms: C_22  and  C_23
REMARK   11  A    between atoms: C_22  and  C_24
REMARK                            x       y       z     vdW  Elec       q    Type
REMARK                         _______ _______ _______ _____ _____    ______ ____
ROOT
ATOM      1  N   UNL     1       3.882   4.919  18.278  0.00  0.00    +0.000 N 
ATOM      2  C   UNL     1       2.735   4.144  18.323  0.00  0.00    +0.000 C 
ATOM      3  O   UNL     1       2.484   3.171  17.632  0.00  0.00    +0.000 OA
ATOM      4  H   UNL     1       3.961   5.641  18.992  0.00  0.00    +0.000 HD
ENDROOT
BRANCH   1   9
ATOM      5  C   UNL     1       5.592   4.468  14.995  0.00  0.00    +0.000 A 
ATOM      6  C   UNL     1       6.929   4.382  15.359  0.00  0.00    +0.000 A 
ATOM      7  C   UNL     1       7.274   4.499  16.692  0.00  0.00    +0.000 A 
ATOM      8  C   UNL     1       6.339   4.688  17.708  0.00  0.00    +0.000 A 
ATOM      9  C   UNL     1       4.968   4.783  17.364  0.00  0.00    +0.000 A 
ATOM     10  C   UNL     1       4.628   4.662  15.987  0.00  0.00    +0.000 A 
BRANCH   5  12
ATOM     11  C   UNL     1       6.284   3.504  12.936  0.00  0.00    +0.000 C 
ATOM     12  O   UNL     1       5.348   4.300  13.656  0.00  0.00    +0.000 OA
ENDBRANCH   5  12
BRANCH   8  13
ATOM     13  O   UNL     1       6.827   4.751  18.992  0.00  0.00    +0.000 OA
ATOM     14  C   UNL     1       7.790   5.771  19.279  0.00  0.00    +0.000 C 
ENDBRANCH   8  13
ENDBRANCH   1   9
BRANCH   2  15
ATOM     15  C   UNL     1       1.765   4.561  19.399  0.00  0.00    +0.000 C 
BRANCH  15  16
ATOM     16  C   UNL     1       2.470   5.515  20.370  0.00  0.00    +0.000 C 
BRANCH  16  17
ATOM     17  C   UNL     1       2.086   6.937  20.131  0.00  0.00    +0.000 C 
ATOM     18  O   UNL     1       2.241   7.446  19.004  0.00  0.00    +0.000 OA
ATOM     19  N   UNL     1       1.607   7.573  21.241  0.00  0.00    +0.000 N 
ATOM     20  C   UNL     1       1.174   8.879  21.244  0.00  0.00    +0.000 A 
ATOM     21  N   UNL     1       1.066   9.611  22.332  0.00  0.00    +0.000 NA
ATOM     22  N   UNL     1       0.677  10.908  22.038  0.00  0.00    +0.000 NA
ATOM     23  C   UNL     1       0.446  11.094  20.754  0.00  0.00    +0.000 A 
ATOM     24  S   UNL     1       0.665   9.673  19.818  0.00  0.00    +0.000 S 
ATOM     25  H   UNL     1       1.806   7.189  22.159  0.00  0.00    +0.000 HD
BRANCH  23  26
ATOM     26  C   UNL     1      -0.031  12.369  20.126  0.00  0.00    +0.000 C 
ATOM     27  C   UNL     1      -0.680  12.091  18.770  0.00  0.00    +0.000 C 
ATOM     28  C   UNL     1      -1.010  13.146  21.013  0.00  0.00    +0.000 C 
ENDBRANCH  23  26
ENDBRANCH  16  17
ENDBRANCH  15  16
ENDBRANCH   2  15
TORSDOF 7
ENDMDL
MODEL 2
REMARK VINA RESULT:      -7.4      2.977      7.750
REMARK  Name = 
REMARK  11 active torsions:
REMARK  status: ('A' for Active; 'I' for Inactive)
REMARK    1  A    between atoms: C_1  and  O_2
REMARK    2  A    between atoms: O_2  and  C_3
REMARK    3  A    between atoms: C_6  and  O_7
REMARK    4  A    between atoms: O_7  and  C_8
REMARK    5  A    between atoms: C_9  and  N_10
REMARK    6  A    between atoms: C_11  and  C_13
REMARK    7  A    between atoms: C_13  and  C_14
REMARK    8  A    between atoms: C_14  and  C_15
REMARK    9  A    between atoms: C_21  and  C_22
REMARK   10  A    between atoms: C_22  and  C_23
REMARK   11  A    between atoms: C_22  and  C_24
REMARK                            x       y       z     vdW  Elec       q    Type
REMARK                         _______ _______ _______ _____ _____    ______ ____
ROOT
ATOM      1  N   UNL     1       2.207   5.925  21.041  0.00  0.00    +0.000 N 
ATOM      2  C   UNL     1       1.553   4.714  20.890  0.00  0.00    +0.000 C 
ATOM      3  O   UNL     1       0.577   4.494  20.192  0.00  0.00    +0.000 OA
ATOM      4  H   UNL     1       3.061   5.905  21.596  0.00  0.00    +0.000 HD
ENDROOT
BRANCH   1   9
ATOM      5  C   UNL     1       0.581   9.276  20.848  0.00  0.00    +0.000 A 
ATOM      6  C   UNL     1       0.848   9.667  19.543  0.00  0.00    +0.000 A 
ATOM      7  C   UNL     1       1.591   8.834  18.727  0.00  0.00    +0.000 A 
ATOM      8  C   UNL     1       2.083   7.599  19.144  0.00  0.00    +0.000 A 
ATOM      9  C   UNL     1       1.828   7.177  20.472  0.00  0.00    +0.000 A 
ATOM     10  C   UNL     1       1.064   8.045  21.301  0.00  0.00    +0.000 A 
BRANCH   5  12
ATOM     11  C   UNL     1      -0.418   9.825  22.933  0.00  0.00    +0.000 C 
ATOM     12  O   UNL     1      -0.195  10.150  21.564  0.00  0.00    +0.000 OA
ENDBRANCH   5  12
BRANCH   8  13
ATOM     13  O   UNL     1       2.775   6.864  18.211  0.00  0.00    +0.000 OA
ATOM     14  C   UNL     1       3.866   7.508  17.545  0.00  0.00    +0.000 C 
ENDBRANCH   8  13
ENDBRANCH   1   9
BRANCH   2  15
ATOM     15  C   UNL     1       2.200   3.579  21.643  0.00  0.00    +0.000 C 
BRANCH  15  16
ATOM     16  C   UNL     1       2.323   2.365  20.716  0.00  0.00    +0.000 C 
BRANCH  16  17
ATOM     17  C   UNL     1       3.095   2.685  19.480  0.00  0.00    +0.000 C 
ATOM     18  O   UNL     1       2.726   2.237  18.377  0.00  0.00    +0.000 OA
ATOM     19  N   UNL     1       4.204   3.451  19.706  0.00  0.00    +0.000 N 
ATOM     20  C   UNL     1       5.049   3.882  18.709  0.00  0.00    +0.000 A 
ATOM     21  N   UNL     1       6.283   4.286  18.921  0.00  0.00    +0.000 NA
ATOM     22  N   UNL     1       6.928   4.596  17.734  0.00  0.00    +0.000 NA
ATOM     23  C   UNL     1       6.148   4.475  16.681  0.00  0.00    +0.000 A 
ATOM     24  S   UNL     1       4.549   3.997  17.078  0.00  0.00    +0.000 S 
ATOM     25  H   UNL     1       4.591   3.502  20.643  0.00  0.00    +0.000 HD
BRANCH  23  26
ATOM     26  C   UNL     1       6.535   4.779  15.264  0.00  0.00    +0.000 C 
ATOM     27  C   UNL     1       6.168   3.615  14.344  0.00  0.00    +0.000 C 
ATOM     28  C   UNL     1       5.904   6.070  14.733  0.00  0.00    +0.000 C 
ENDBRANCH  23  26
ENDBRANCH  16  17
ENDBRANCH  15  16
ENDBRANCH   2  15
TORSDOF 7
ENDMDL
MODEL 3
REMARK VINA RESULT:      -7.4      6.441      7.836
REMARK  Name = 
REMARK  11 active torsions:
REMARK  status: ('A' for Active; 'I' for Inactive)
REMARK    1  A    between atoms: C_1  and  O_2
REMARK    2  A    between atoms: O_2  and  C_3
REMARK    3  A    between atoms: C_6  and  O_7
REMARK    4  A    between atoms: O_7  and  C_8
REMARK    5  A    between atoms: C_9  and  N_10
REMARK    6  A    between atoms: C_11  and  C_13
REMARK    7  A    between atoms: C_13  and  C_14
REMARK    8  A    between atoms: C_14  and  C_15
REMARK    9  A    between atoms: C_21  and  C_22
REMARK   10  A    between atoms: C_22  and  C_23
REMARK   11  A    between atoms: C_22  and  C_24
REMARK                            x       y       z     vdW  Elec       q    Type
REMARK                         _______ _______ _______ _____ _____    ______ ____
ROOT
ATOM      1  N   UNL     1       6.471   7.623  16.951  0.00  0.00    +0.000 N 
ATOM      2  C   UNL     1       7.577   7.838  17.756  0.00  0.00    +0.000 C 
ATOM      3  O   UNL     1       8.147   7.013  18.450  0.00  0.00    +0.000 OA
ATOM      4  H   UNL     1       6.181   8.409  16.371  0.00  0.00    +0.000 HD
ENDROOT
BRANCH   1   9
ATOM      5  C   UNL     1       3.887   5.062  17.772  0.00  0.00    +0.000 A 
ATOM      6  C   UNL     1       4.175   4.043  16.874  0.00  0.00    +0.000 A 
ATOM      7  C   UNL     1       5.210   4.210  15.973  0.00  0.00    +0.000 A 
ATOM      8  C   UNL     1       6.002   5.355  15.925  0.00  0.00    +0.000 A 
ATOM      9  C   UNL     1       5.728   6.412  16.828  0.00  0.00    +0.000 A 
ATOM     10  C   UNL     1       4.658   6.227  17.748  0.00  0.00    +0.000 A 
BRANCH   5  12
ATOM     11  C   UNL     1       2.464   5.853  19.503  0.00  0.00    +0.000 C 
ATOM     12  O   UNL     1       2.870   4.787  18.650  0.00  0.00    +0.000 OA
ENDBRANCH   5  12
BRANCH   8  13
ATOM     13  O   UNL     1       7.018   5.364  14.999  0.00  0.00    +0.000 OA
ATOM     14  C   UNL     1       6.885   4.496  13.869  0.00  0.00    +0.000 C 
ENDBRANCH   8  13
ENDBRANCH   1   9
BRANCH   2  15
ATOM     15  C   UNL     1       8.120   9.242  17.674  0.00  0.00    +0.000 C 
BRANCH  15  16
ATOM     16  C   UNL     1       9.082   9.480  18.844  0.00  0.00    +0.000 C 
BRANCH  16  17
ATOM     17  C   UNL     1       9.520  10.904  18.923  0.00  0.00    +0.000 C 
ATOM     18  O   UNL     1      10.532  11.213  19.582  0.00  0.00    +0.000 OA
ATOM     19  N   UNL     1       8.704  11.770  18.251  0.00  0.00    +0.000 N 
ATOM     20  C   UNL     1       8.929  13.125  18.172  0.00  0.00    +0.000 A 
ATOM     21  N   UNL     1       8.000  14.004  17.867  0.00  0.00    +0.000 NA
ATOM     22  N   UNL     1       8.484  15.301  17.930  0.00  0.00    +0.000 NA
ATOM     23  C   UNL     1       9.768  15.354  18.217  0.00  0.00    +0.000 A 
ATOM     24  S   UNL     1      10.481  13.805  18.404  0.00  0.00    +0.000 S 
ATOM     25  H   UNL     1       7.759  11.482  18.016  0.00  0.00    +0.000 HD
BRANCH  23  26
ATOM     26  C   UNL     1      10.594  16.602  18.313  0.00  0.00    +0.000 C 
ATOM     27  C   UNL     1      11.685  16.610  17.242  0.00  0.00    +0.000 C 
ATOM     28  C   UNL     1       9.760  17.883  18.204  0.00  0.00    +0.000 C 
ENDBRANCH  23  26
ENDBRANCH  16  17
ENDBRANCH  15  16
ENDBRANCH   2  15
TORSDOF 7
ENDMDL
MODEL 4
REMARK VINA RESULT:      -7.4      3.755      5.052
REMARK  Name = 
REMARK  11 active torsions:
REMARK  status: ('A' for Active; 'I' for Inactive)
REMARK    1  A    between atoms: C_1  and  O_2
REMARK    2  A    between atoms: O_2  and  C_3
REMARK    3  A    between atoms: C_6  and  O_7
REMARK    4  A    between atoms: O_7  and  C_8
REMARK    5  A    between atoms: C_9  and  N_10
REMARK    6  A    between atoms: C_11  and  C_13
REMARK    7  A    between atoms: C_13  and  C_14
REMARK    8  A    between atoms: C_14  and  C_15
REMARK    9  A    between atoms: C_21  and  C_22
REMARK   10  A    between atoms: C_22  and  C_23
REMARK   11  A    between atoms: C_22  and  C_24
REMARK                            x       y       z     vdW  Elec       q    Type
REMARK                         _______ _______ _______ _____ _____    ______ ____
ROOT
ATOM      1  N   UNL     1       2.515   7.478  18.213  0.00  0.00    +0.000 N 
ATOM      2  C   UNL     1       2.024   7.821  19.462  0.00  0.00    +0.000 C 
ATOM      3  O   UNL     1       2.005   7.117  20.457  0.00  0.00    +0.000 OA
ATOM      4  H   UNL     1       2.532   8.225  17.520  0.00  0.00    +0.000 HD
ENDROOT
BRANCH   1   9
ATOM      5  C   UNL     1       2.524   3.799  17.606  0.00  0.00    +0.000 A 
ATOM      6  C   UNL     1       3.832   3.561  17.206  0.00  0.00    +0.000 A 
ATOM      7  C   UNL     1       4.712   4.623  17.110  0.00  0.00    +0.000 A 
ATOM      8  C   UNL     1       4.357   5.937  17.409  0.00  0.00    +0.000 A 
ATOM      9  C   UNL     1       3.028   6.208  17.817  0.00  0.00    +0.000 A 
ATOM     10  C   UNL     1       2.133   5.106  17.910  0.00  0.00    +0.000 A 
BRANCH   5  12
ATOM     11  C   UNL     1       1.550   2.157  19.021  0.00  0.00    +0.000 C 
ATOM     12  O   UNL     1       1.740   2.679  17.709  0.00  0.00    +0.000 OA
ENDBRANCH   5  12
BRANCH   8  13
ATOM     13  O   UNL     1       5.349   6.883  17.302  0.00  0.00    +0.000 OA
ATOM     14  C   UNL     1       6.692   6.459  17.558  0.00  0.00    +0.000 C 
ENDBRANCH   8  13
ENDBRANCH   1   9
BRANCH   2  15
ATOM     15  C   UNL     1       1.535   9.244  19.549  0.00  0.00    +0.000 C 
BRANCH  15  16
ATOM     16  C   UNL     1       0.906   9.645  18.210  0.00  0.00    +0.000 C 
BRANCH  16  17
ATOM     17  C   UNL     1      -0.512  10.079  18.369  0.00  0.00    +0.000 C 
ATOM     18  O   UNL     1      -1.047  10.073  19.496  0.00  0.00    +0.000 OA
ATOM     19  N   UNL     1      -1.118  10.427  17.195  0.00  0.00    +0.000 N 
ATOM     20  C   UNL     1      -2.415  10.878  17.110  0.00  0.00    +0.000 A 
ATOM     21  N   UNL     1      -3.124  10.862  16.001  0.00  0.00    +0.000 NA
ATOM     22  N   UNL     1      -4.418  11.306  16.217  0.00  0.00    +0.000 NA
ATOM     23  C   UNL     1      -4.624  11.698  17.458  0.00  0.00    +0.000 A 
ATOM     24  S   UNL     1      -3.227  11.573  18.445  0.00  0.00    +0.000 S 
ATOM     25  H   UNL     1      -0.720  10.109  16.317  0.00  0.00    +0.000 HD
BRANCH  23  26
ATOM     26  C   UNL     1      -5.902  12.271  17.995  0.00  0.00    +0.000 C 
ATOM     27  C   UNL     1      -6.547  13.203  16.969  0.00  0.00    +0.000 C 
ATOM     28  C   UNL     1      -6.910  11.197  18.417  0.00  0.00    +0.000 C 
ENDBRANCH  23  26
ENDBRANCH  16  17
ENDBRANCH  15  16
ENDBRANCH   2  15
TORSDOF 7
ENDMDL
MODEL 5
REMARK VINA RESULT:      -7.3      0.997      1.229
REMARK  Name = 
REMARK  11 active torsions:
REMARK  status: ('A' for Active; 'I' for Inactive)
REMARK    1  A    between atoms: C_1  and  O_2
REMARK    2  A    between atoms: O_2  and  C_3
REMARK    3  A    between atoms: C_6  and  O_7
REMARK    4  A    between atoms: O_7  and  C_8
REMARK    5  A    between atoms: C_9  and  N_10
REMARK    6  A    between atoms: C_11  and  C_13
REMARK    7  A    between atoms: C_13  and  C_14
REMARK    8  A    between atoms: C_14  and  C_15
REMARK    9  A    between atoms: C_21  and  C_22
REMARK   10  A    between atoms: C_22  and  C_23
REMARK   11  A    between atoms: C_22  and  C_24
REMARK                            x       y       z     vdW  Elec       q    Type
REMARK                         _______ _______ _______ _____ _____    ______ ____
ROOT
ATOM      1  N   UNL     1       3.764   5.036  17.323  0.00  0.00    +0.000 N 
ATOM      2  C   UNL     1       3.498   4.264  18.442  0.00  0.00    +0.000 C 
ATOM      3  O   UNL     1       4.259   3.481  18.986  0.00  0.00    +0.000 OA
ATOM      4  H   UNL     1       3.041   5.702  17.058  0.00  0.00    +0.000 HD
ENDROOT
BRANCH   1   9
ATOM      5  C   UNL     1       6.001   4.141  14.476  0.00  0.00    +0.000 A 
ATOM      6  C   UNL     1       7.208   4.718  14.847  0.00  0.00    +0.000 A 
ATOM      7  C   UNL     1       7.281   5.430  16.029  0.00  0.00    +0.000 A 
ATOM      8  C   UNL     1       6.198   5.591  16.890  0.00  0.00    +0.000 A 
ATOM      9  C   UNL     1       4.953   5.015  16.535  0.00  0.00    +0.000 A 
ATOM     10  C   UNL     1       4.892   4.287  15.314  0.00  0.00    +0.000 A 
BRANCH   5  12
ATOM     11  C   UNL     1       6.817   3.978  12.250  0.00  0.00    +0.000 C 
ATOM     12  O   UNL     1       6.039   3.424  13.308  0.00  0.00    +0.000 OA
ENDBRANCH   5  12
BRANCH   8  13
ATOM     13  O   UNL     1       6.429   6.294  18.049  0.00  0.00    +0.000 OA
ATOM     14  C   UNL     1       7.768   6.739  18.290  0.00  0.00    +0.000 C 
ENDBRANCH   8  13
ENDBRANCH   1   9
BRANCH   2  15
ATOM     15  C   UNL     1       2.135   4.510  19.036  0.00  0.00    +0.000 C 
BRANCH  15  16
ATOM     16  C   UNL     1       2.287   5.310  20.335  0.00  0.00    +0.000 C 
BRANCH  16  17
ATOM     17  C   UNL     1       2.047   6.767  20.121  0.00  0.00    +0.000 C 
ATOM     18  O   UNL     1       2.344   7.299  19.033  0.00  0.00    +0.000 OA
ATOM     19  N   UNL     1       1.527   7.406  21.212  0.00  0.00    +0.000 N 
ATOM     20  C   UNL     1       1.207   8.744  21.231  0.00  0.00    +0.000 A 
ATOM     21  N   UNL     1       1.066   9.446  22.335  0.00  0.00    +0.000 NA
ATOM     22  N   UNL     1       0.814  10.781  22.062  0.00  0.00    +0.000 NA
ATOM     23  C   UNL     1       0.714  11.029  20.772  0.00  0.00    +0.000 A 
ATOM     24  S   UNL     1       0.895   9.627  19.800  0.00  0.00    +0.000 S 
ATOM     25  H   UNL     1       1.612   6.976  22.127  0.00  0.00    +0.000 HD
BRANCH  23  26
ATOM     26  C   UNL     1       0.403  12.361  20.158  0.00  0.00    +0.000 C 
ATOM     27  C   UNL     1       1.112  13.482  20.917  0.00  0.00    +0.000 C 
ATOM     28  C   UNL     1       0.768  12.437  18.672  0.00  0.00    +0.000 C 
ENDBRANCH  23  26
ENDBRANCH  16  17
ENDBRANCH  15  16
ENDBRANCH   2  15
TORSDOF 7
ENDMDL
MODEL 6
REMARK VINA RESULT:      -7.2      3.610      5.246
REMARK  Name = 
REMARK  11 active torsions:
REMARK  status: ('A' for Active; 'I' for Inactive)
REMARK    1  A    between atoms: C_1  and  O_2
REMARK    2  A    between atoms: O_2  and  C_3
REMARK    3  A    between atoms: C_6  and  O_7
REMARK    4  A    between atoms: O_7  and  C_8
REMARK    5  A    between atoms: C_9  and  N_10
REMARK    6  A    between atoms: C_11  and  C_13
REMARK    7  A    between atoms: C_13  and  C_14
REMARK    8  A    between atoms: C_14  and  C_15
REMARK    9  A    between atoms: C_21  and  C_22
REMARK   10  A    between atoms: C_22  and  C_23
REMARK   11  A    between atoms: C_22  and  C_24
REMARK                            x       y       z     vdW  Elec       q    Type
REMARK                         _______ _______ _______ _____ _____    ______ ____
ROOT
ATOM      1  N   UNL     1       2.626   6.857  19.937  0.00  0.00    +0.000 N 
ATOM      2  C   UNL     1       2.194   7.707  18.932  0.00  0.00    +0.000 C 
ATOM      3  O   UNL     1       2.242   7.502  17.731  0.00  0.00    +0.000 OA
ATOM      4  H   UNL     1       2.426   7.154  20.890  0.00  0.00    +0.000 HD
ENDROOT
BRANCH   1   9
ATOM      5  C   UNL     1       5.378   4.492  19.076  0.00  0.00    +0.000 A 
ATOM      6  C   UNL     1       4.775   3.253  19.243  0.00  0.00    +0.000 A 
ATOM      7  C   UNL     1       3.461   3.193  19.668  0.00  0.00    +0.000 A 
ATOM      8  C   UNL     1       2.692   4.325  19.928  0.00  0.00    +0.000 A 
ATOM      9  C   UNL     1       3.283   5.602  19.768  0.00  0.00    +0.000 A 
ATOM     10  C   UNL     1       4.637   5.649  19.333  0.00  0.00    +0.000 A 
BRANCH   5  12
ATOM     11  C   UNL     1       7.458   5.614  18.828  0.00  0.00    +0.000 C 
ATOM     12  O   UNL     1       6.669   4.448  18.614  0.00  0.00    +0.000 OA
ENDBRANCH   5  12
BRANCH   8  13
ATOM     13  O   UNL     1       1.389   4.111  20.309  0.00  0.00    +0.000 OA
ATOM     14  C   UNL     1       0.678   3.055  19.654  0.00  0.00    +0.000 C 
ENDBRANCH   8  13
ENDBRANCH   1   9
BRANCH   2  15
ATOM     15  C   UNL     1       1.554   8.972  19.445  0.00  0.00    +0.000 C 
BRANCH  15  16
ATOM     16  C   UNL     1       1.047   9.798  18.257  0.00  0.00    +0.000 C 
BRANCH  16  17
ATOM     17  C   UNL     1      -0.364  10.243  18.451  0.00  0.00    +0.000 C 
ATOM     18  O   UNL     1      -0.817  10.406  19.600  0.00  0.00    +0.000 OA
ATOM     19  N   UNL     1      -1.056  10.405  17.284  0.00  0.00    +0.000 N 
ATOM     20  C   UNL     1      -2.364  10.829  17.225  0.00  0.00    +0.000 A 
ATOM     21  N   UNL     1      -3.148  10.641  16.186  0.00  0.00    +0.000 NA
ATOM     22  N   UNL     1      -4.431  11.105  16.425  0.00  0.00    +0.000 NA
ATOM     23  C   UNL     1      -4.556  11.680  17.603  0.00  0.00    +0.000 A 
ATOM     24  S   UNL     1      -3.091  11.715  18.494  0.00  0.00    +0.000 S 
ATOM     25  H   UNL     1      -0.716   9.959  16.438  0.00  0.00    +0.000 HD
BRANCH  23  26
ATOM     26  C   UNL     1      -5.803  12.320  18.138  0.00  0.00    +0.000 C 
ATOM     27  C   UNL     1      -6.937  11.299  18.227  0.00  0.00    +0.000 C 
ATOM     28  C   UNL     1      -5.599  12.981  19.505  0.00  0.00    +0.000 C 
ENDBRANCH  23  26
ENDBRANCH  16  17
ENDBRANCH  15  16
ENDBRANCH   2  15
TORSDOF 7
ENDMDL
MODEL 7
REMARK VINA RESULT:      -7.2      6.643      8.019
REMARK  Name = 
REMARK  11 active torsions:
REMARK  status: ('A' for Active; 'I' for Inactive)
REMARK    1  A    between atoms: C_1  and  O_2
REMARK    2  A    between atoms: O_2  and  C_3
REMARK    3  A    between atoms: C_6  and  O_7
REMARK    4  A    between atoms: O_7  and  C_8
REMARK    5  A    between atoms: C_9  and  N_10
REMARK    6  A    between atoms: C_11  and  C_13
REMARK    7  A    between atoms: C_13  and  C_14
REMARK    8  A    between atoms: C_14  and  C_15
REMARK    9  A    between atoms: C_21  and  C_22
REMARK   10  A    between atoms: C_22  and  C_23
REMARK   11  A    between atoms: C_22  and  C_24
REMARK                            x       y       z     vdW  Elec       q    Type
REMARK                         _______ _______ _______ _____ _____    ______ ____
ROOT
ATOM      1  N   UNL     1       6.548   7.454  16.999  0.00  0.00    +0.000 N 
ATOM      2  C   UNL     1       7.633   7.760  17.803  0.00  0.00    +0.000 C 
ATOM      3  O   UNL     1       8.182   7.018  18.601  0.00  0.00    +0.000 OA
ATOM      4  H   UNL     1       6.277   8.169  16.325  0.00  0.00    +0.000 HD
ENDROOT
BRANCH   1   9
ATOM      5  C   UNL     1       3.799   5.088  17.866  0.00  0.00    +0.000 A 
ATOM      6  C   UNL     1       4.205   3.914  17.247  0.00  0.00    +0.000 A 
ATOM      7  C   UNL     1       5.378   3.905  16.516  0.00  0.00    +0.000 A 
ATOM      8  C   UNL     1       6.196   5.024  16.376  0.00  0.00    +0.000 A 
ATOM      9  C   UNL     1       5.805   6.237  16.994  0.00  0.00    +0.000 A 
ATOM     10  C   UNL     1       4.594   6.231  17.742  0.00  0.00    +0.000 A 
BRANCH   5  12
ATOM     11  C   UNL     1       2.788   5.026  20.015  0.00  0.00    +0.000 C 
ATOM     12  O   UNL     1       2.645   4.985  18.599  0.00  0.00    +0.000 OA
ENDBRANCH   5  12
BRANCH   8  13
ATOM     13  O   UNL     1       7.351   4.857  15.649  0.00  0.00    +0.000 OA
ATOM     14  C   UNL     1       7.233   4.843  14.223  0.00  0.00    +0.000 C 
ENDBRANCH   8  13
ENDBRANCH   1   9
BRANCH   2  15
ATOM     15  C   UNL     1       8.183   9.145  17.576  0.00  0.00    +0.000 C 
BRANCH  15  16
ATOM     16  C   UNL     1       8.905   9.615  18.845  0.00  0.00    +0.000 C 
BRANCH  16  17
ATOM     17  C   UNL     1       9.578  10.931  18.645  0.00  0.00    +0.000 C 
ATOM     18  O   UNL     1      10.368  11.094  17.695  0.00  0.00    +0.000 OA
ATOM     19  N   UNL     1       9.263  11.861  19.596  0.00  0.00    +0.000 N 
ATOM     20  C   UNL     1       9.751  13.148  19.596  0.00  0.00    +0.000 A 
ATOM     21  N   UNL     1       9.769  13.923  20.659  0.00  0.00    +0.000 NA
ATOM     22  N   UNL     1      10.380  15.138  20.394  0.00  0.00    +0.000 NA
ATOM     23  C   UNL     1      10.744  15.263  19.134  0.00  0.00    +0.000 A 
ATOM     24  S   UNL     1      10.334  13.900  18.176  0.00  0.00    +0.000 S 
ATOM     25  H   UNL     1       8.873  11.554  20.482  0.00  0.00    +0.000 HD
BRANCH  23  26
ATOM     26  C   UNL     1      11.386  16.473  18.524  0.00  0.00    +0.000 C 
ATOM     27  C   UNL     1      10.359  17.292  17.743  0.00  0.00    +0.000 C 
ATOM     28  C   UNL     1      12.079  17.369  19.556  0.00  0.00    +0.000 C 
ENDBRANCH  23  26
ENDBRANCH  16  17
ENDBRANCH  15  16
ENDBRANCH   2  15
TORSDOF 7
ENDMDL
MODEL 8
REMARK VINA RESULT:      -7.2      1.602      1.944
REMARK  Name = 
REMARK  11 active torsions:
REMARK  status: ('A' for Active; 'I' for Inactive)
REMARK    1  A    between atoms: C_1  and  O_2
REMARK    2  A    between atoms: O_2  and  C_3
REMARK    3  A    between atoms: C_6  and  O_7
REMARK    4  A    between atoms: O_7  and  C_8
REMARK    5  A    between atoms: C_9  and  N_10
REMARK    6  A    between atoms: C_11  and  C_13
REMARK    7  A    between atoms: C_13  and  C_14
REMARK    8  A    between atoms: C_14  and  C_15
REMARK    9  A    between atoms: C_21  and  C_22
REMARK   10  A    between atoms: C_22  and  C_23
REMARK   11  A    between atoms: C_22  and  C_24
REMARK                            x       y       z     vdW  Elec       q    Type
REMARK                         _______ _______ _______ _____ _____    ______ ____
ROOT
ATOM      1  N   UNL     1       4.194   6.378  17.797  0.00  0.00    +0.000 N 
ATOM      2  C   UNL     1       3.178   5.756  18.503  0.00  0.00    +0.000 C 
ATOM      3  O   UNL     1       3.127   4.581  18.827  0.00  0.00    +0.000 OA
ATOM      4  H   UNL     1       4.111   7.388  17.693  0.00  0.00    +0.000 HD
ENDROOT
BRANCH   1   9
ATOM      5  C   UNL     1       6.410   4.953  15.158  0.00  0.00    +0.000 A 
ATOM      6  C   UNL     1       7.472   4.447  15.896  0.00  0.00    +0.000 A 
ATOM      7  C   UNL     1       7.472   4.598  17.270  0.00  0.00    +0.000 A 
ATOM      8  C   UNL     1       6.444   5.228  17.968  0.00  0.00    +0.000 A 
ATOM      9  C   UNL     1       5.350   5.756  17.240  0.00  0.00    +0.000 A 
ATOM     10  C   UNL     1       5.364   5.595  15.826  0.00  0.00    +0.000 A 
BRANCH   5  12
ATOM     11  C   UNL     1       5.623   3.705  13.296  0.00  0.00    +0.000 C 
ATOM     12  O   UNL     1       6.482   4.719  13.809  0.00  0.00    +0.000 OA
ENDBRANCH   5  12
BRANCH   8  13
ATOM     13  O   UNL     1       6.565   5.272  19.336  0.00  0.00    +0.000 OA
ATOM     14  C   UNL     1       7.852   5.593  19.872  0.00  0.00    +0.000 C 
ENDBRANCH   8  13
ENDBRANCH   1   9
BRANCH   2  15
ATOM     15  C   UNL     1       2.082   6.695  18.940  0.00  0.00    +0.000 C 
BRANCH  15  16
ATOM     16  C   UNL     1       2.295   8.060  18.277  0.00  0.00    +0.000 C 
BRANCH  16  17
ATOM     17  C   UNL     1       1.527   9.138  18.966  0.00  0.00    +0.000 C 
ATOM     18  O   UNL     1       1.175  10.156  18.339  0.00  0.00    +0.000 OA
ATOM     19  N   UNL     1       1.305   8.895  20.293  0.00  0.00    +0.000 N 
ATOM     20  C   UNL     1       0.600   9.743  21.116  0.00  0.00    +0.000 A 
ATOM     21  N   UNL     1       0.686   9.727  22.428  0.00  0.00    +0.000 NA
ATOM     22  N   UNL     1      -0.075  10.733  23.002  0.00  0.00    +0.000 NA
ATOM     23  C   UNL     1      -0.754  11.429  22.114  0.00  0.00    +0.000 A 
ATOM     24  S   UNL     1      -0.526  10.877  20.506  0.00  0.00    +0.000 S 
ATOM     25  H   UNL     1       1.881   8.214  20.777  0.00  0.00    +0.000 HD
BRANCH  23  26
ATOM     26  C   UNL     1      -1.701  12.552  22.420  0.00  0.00    +0.000 C 
ATOM     27  C   UNL     1      -2.876  12.051  23.259  0.00  0.00    +0.000 C 
ATOM     28  C   UNL     1      -1.027  13.729  23.131  0.00  0.00    +0.000 C 
ENDBRANCH  23  26
ENDBRANCH  16  17
ENDBRANCH  15  16
ENDBRANCH   2  15
TORSDOF 7
ENDMDL
MODEL 9
REMARK VINA RESULT:      -7.1      5.533      7.363
REMARK  Name = 
REMARK  11 active torsions:
REMARK  status: ('A' for Active; 'I' for Inactive)
REMARK    1  A    between atoms: C_1  and  O_2
REMARK    2  A    between atoms: O_2  and  C_3
REMARK    3  A    between atoms: C_6  and  O_7
REMARK    4  A    between atoms: O_7  and  C_8
REMARK    5  A    between atoms: C_9  and  N_10
REMARK    6  A    between atoms: C_11  and  C_13
REMARK    7  A    between atoms: C_13  and  C_14
REMARK    8  A    between atoms: C_14  and  C_15
REMARK    9  A    between atoms: C_21  and  C_22
REMARK   10  A    between atoms: C_22  and  C_23
REMARK   11  A    between atoms: C_22  and  C_24
REMARK                            x       y       z     vdW  Elec       q    Type
REMARK                         _______ _______ _______ _____ _____    ______ ____
ROOT
ATOM      1  N   UNL     1       5.978   6.142  18.373  0.00  0.00    +0.000 N 
ATOM      2  C   UNL     1       7.301   5.742  18.468  0.00  0.00    +0.000 C 
ATOM      3  O   UNL     1       7.732   4.609  18.331  0.00  0.00    +0.000 OA
ATOM      4  H   UNL     1       5.810   7.145  18.427  0.00  0.00    +0.000 HD
ENDROOT
BRANCH   1   9
ATOM      5  C   UNL     1       2.958   4.149  19.276  0.00  0.00    +0.000 A 
ATOM      6  C   UNL     1       2.613   3.559  18.068  0.00  0.00    +0.000 A 
ATOM      7  C   UNL     1       3.363   3.838  16.942  0.00  0.00    +0.000 A 
ATOM      8  C   UNL     1       4.471   4.682  16.954  0.00  0.00    +0.000 A 
ATOM      9  C   UNL     1       4.844   5.300  18.173  0.00  0.00    +0.000 A 
ATOM     10  C   UNL     1       4.062   5.005  19.324  0.00  0.00    +0.000 A 
BRANCH   5  12
ATOM     11  C   UNL     1       2.738   2.819  21.234  0.00  0.00    +0.000 C 
ATOM     12  O   UNL     1       2.179   3.780  20.342  0.00  0.00    +0.000 OA
ENDBRANCH   5  12
BRANCH   8  13
ATOM     13  O   UNL     1       5.142   4.837  15.764  0.00  0.00    +0.000 OA
ATOM     14  C   UNL     1       6.035   3.790  15.372  0.00  0.00    +0.000 C 
ENDBRANCH   8  13
ENDBRANCH   1   9
BRANCH   2  15
ATOM     15  C   UNL     1       8.261   6.880  18.704  0.00  0.00    +0.000 C 
BRANCH  15  16
ATOM     16  C   UNL     1       7.852   8.074  17.834  0.00  0.00    +0.000 C 
BRANCH  16  17
ATOM     17  C   UNL     1       8.468   9.346  18.310  0.00  0.00    +0.000 C 
ATOM     18  O   UNL     1       9.196   9.349  19.322  0.00  0.00    +0.000 OA
ATOM     19  N   UNL     1       8.124  10.439  17.565  0.00  0.00    +0.000 N 
ATOM     20  C   UNL     1       8.594  11.708  17.811  0.00  0.00    +0.000 A 
ATOM     21  N   UNL     1       8.013  12.801  17.366  0.00  0.00    +0.000 NA
ATOM     22  N   UNL     1       8.655  13.942  17.822  0.00  0.00    +0.000 NA
ATOM     23  C   UNL     1       9.727  13.673  18.538  0.00  0.00    +0.000 A 
ATOM     24  S   UNL     1      10.039  11.992  18.680  0.00  0.00    +0.000 S 
ATOM     25  H   UNL     1       7.302  10.397  16.971  0.00  0.00    +0.000 HD
BRANCH  23  26
ATOM     26  C   UNL     1      10.659  14.686  19.133  0.00  0.00    +0.000 C 
ATOM     27  C   UNL     1      10.287  16.096  18.673  0.00  0.00    +0.000 C 
ATOM     28  C   UNL     1      10.698  14.640  20.664  0.00  0.00    +0.000 C 
ENDBRANCH  23  26
ENDBRANCH  16  17
ENDBRANCH  15  16
ENDBRANCH   2  15
TORSDOF 7
ENDMDL
