MODEL 1
REMARK VINA RESULT:      -6.7      0.000      0.000
REMARK  Name = 
REMARK  8 active torsions:
REMARK  status: ('A' for Active; 'I' for Inactive)
REMARK    1  A    between atoms: C_1  and  O_2
REMARK    2  A    between atoms: O_2  and  C_3
REMARK    3  A    between atoms: C_3  and  C_5
REMARK    4  A    between atoms: C_13  and  O_14
REMARK    5  A    between atoms: O_14  and  C_15
REMARK    6  A    between atoms: N_20  and  C_21
REMARK    7  A    between atoms: C_21  and  C_22
REMARK    8  A    between atoms: C_21  and  C_23
REMARK                            x       y       z     vdW  Elec       q    Type
REMARK                         _______ _______ _______ _____ _____    ______ ____
ROOT
ATOM      1  C   UNL     1       2.939   3.976  19.778  0.00  0.00    +0.000 A 
ATOM      2  C   UNL     1       2.820   3.631  18.439  0.00  0.00    +0.000 A 
ATOM      3  C   UNL     1       2.483   4.637  17.561  0.00  0.00    +0.000 A 
ATOM      4  N   UNL     1       2.265   5.920  17.930  0.00  0.00    +0.000 NA
ATOM      5  C   UNL     1       2.360   6.264  19.235  0.00  0.00    +0.000 A 
ATOM      6  N   UNL     1       2.104   7.570  19.587  0.00  0.00    +0.000 N 
ATOM      7  C   UNL     1       1.702   7.990  20.926  0.00  0.00    +0.000 C 
ATOM      8  C   UNL     1       0.401   8.787  20.843  0.00  0.00    +0.000 C 
ATOM      9  C   UNL     1       0.487   9.937  19.836  0.00  0.00    +0.000 C 
ATOM     10  C   UNL     1       0.958   9.422  18.473  0.00  0.00    +0.000 C 
ATOM     11  C   UNL     1       2.259   8.629  18.595  0.00  0.00    +0.000 C 
ATOM     12  C   UNL     1       2.706   5.298  20.173  0.00  0.00    +0.000 A 
ENDROOT
BRANCH   1  13
ATOM     13  C   UNL     1       3.307   3.000  20.834  0.00  0.00    +0.000 C 
ATOM     14  O   UNL     1       4.211   2.189  20.712  0.00  0.00    +0.000 OA
BRANCH  13  16
ATOM     15  C   UNL     1       1.261   2.449  21.807  0.00  0.00    +0.000 C 
ATOM     16  O   UNL     1       2.509   3.137  21.922  0.00  0.00    +0.000 OA
ENDBRANCH  13  16
ENDBRANCH   1  13
BRANCH   9  17
ATOM     17  O   UNL     1       1.435  10.941  20.254  0.00  0.00    +0.000 OA
BRANCH  17  18
ATOM     18  C   UNL     1       0.957  12.043  20.888  0.00  0.00    +0.000 C 
ATOM     19  O   UNL     1       0.150  12.006  21.808  0.00  0.00    +0.000 OA
ATOM     20  N   UNL     1       1.515  13.200  20.387  0.00  0.00    +0.000 N 
ATOM     21  C   UNL     1       1.145  14.496  20.952  0.00  0.00    +0.000 C 
ATOM     22  C   UNL     1       2.334  15.481  20.924  0.00  0.00    +0.000 C 
ATOM     23  N   UNL     1       2.991  15.627  19.597  0.00  0.00    +0.000 NA
ATOM     24  C   UNL     1       3.395  14.266  19.165  0.00  0.00    +0.000 C 
ATOM     25  C   UNL     1       2.243  13.247  19.116  0.00  0.00    +0.000 C 
BRANCH  23  26
ATOM     26  C   UNL     1       2.156  16.345  18.602  0.00  0.00    +0.000 C 
ATOM     27  C   UNL     1       1.614  17.669  19.167  0.00  0.00    +0.000 C 
ATOM     28  C   UNL     1       2.937  16.687  17.320  0.00  0.00    +0.000 C 
ENDBRANCH  23  26
ENDBRANCH  17  18
ENDBRANCH   9  17
TORSDOF 5
ENDMDL
MODEL 2
REMARK VINA RESULT:      -6.4      4.443      7.350
REMARK  Name = 
REMARK  8 active torsions:
REMARK  status: ('A' for Active; 'I' for Inactive)
REMARK    1  A    between atoms: C_1  and  O_2
REMARK    2  A    between atoms: O_2  and  C_3
REMARK    3  A    between atoms: C_3  and  C_5
REMARK    4  A    between atoms: C_13  and  O_14
REMARK    5  A    between atoms: O_14  and  C_15
REMARK    6  A    between atoms: N_20  and  C_21
REMARK    7  A    between atoms: C_21  and  C_22
REMARK    8  A    between atoms: C_21  and  C_23
REMARK                            x       y       z     vdW  Elec       q    Type
REMARK                         _______ _______ _______ _____ _____    ______ ____
ROOT
ATOM      1  C   UNL     1      -0.119  11.057  20.879  0.00  0.00    +0.000 A 
ATOM      2  C   UNL     1      -1.034  11.051  19.835  0.00  0.00    +0.000 A 
ATOM      3  C   UNL     1      -0.740  11.835  18.741  0.00  0.00    +0.000 A 
ATOM      4  N   UNL     1       0.374  12.595  18.634  0.00  0.00    +0.000 NA
ATOM      5  C   UNL     1       1.263  12.623  19.653  0.00  0.00    +0.000 A 
ATOM      6  N   UNL     1       2.373  13.428  19.529  0.00  0.00    +0.000 N 
ATOM      7  C   UNL     1       3.145  13.932  20.662  0.00  0.00    +0.000 C 
ATOM      8  C   UNL     1       3.242  15.455  20.578  0.00  0.00    +0.000 C 
ATOM      9  C   UNL     1       3.761  15.929  19.218  0.00  0.00    +0.000 C 
ATOM     10  C   UNL     1       2.929  15.321  18.085  0.00  0.00    +0.000 C 
ATOM     11  C   UNL     1       2.853  13.800  18.203  0.00  0.00    +0.000 C 
ATOM     12  C   UNL     1       1.032  11.848  20.784  0.00  0.00    +0.000 A 
ENDROOT
BRANCH   1  13
ATOM     13  C   UNL     1      -0.298  10.254  22.115  0.00  0.00    +0.000 C 
ATOM     14  O   UNL     1      -0.361  10.746  23.230  0.00  0.00    +0.000 OA
BRANCH  13  16
ATOM     15  C   UNL     1       0.880   8.346  21.479  0.00  0.00    +0.000 C 
ATOM     16  O   UNL     1      -0.377   8.931  21.828  0.00  0.00    +0.000 OA
ENDBRANCH  13  16
ENDBRANCH   1  13
BRANCH   9  17
ATOM     17  O   UNL     1       5.128  15.523  18.998  0.00  0.00    +0.000 OA
BRANCH  17  18
ATOM     18  C   UNL     1       6.075  16.492  18.915  0.00  0.00    +0.000 C 
ATOM     19  O   UNL     1       5.837  17.690  19.006  0.00  0.00    +0.000 OA
ATOM     20  N   UNL     1       7.336  15.959  18.748  0.00  0.00    +0.000 N 
ATOM     21  C   UNL     1       8.498  16.841  18.657  0.00  0.00    +0.000 C 
ATOM     22  C   UNL     1       9.747  16.189  19.287  0.00  0.00    +0.000 C 
ATOM     23  N   UNL     1      10.055  14.820  18.790  0.00  0.00    +0.000 NA
ATOM     24  C   UNL     1       8.838  13.999  19.009  0.00  0.00    +0.000 C 
ATOM     25  C   UNL     1       7.564  14.565  18.356  0.00  0.00    +0.000 C 
BRANCH  23  26
ATOM     26  C   UNL     1      10.544  14.799  17.389  0.00  0.00    +0.000 C 
ATOM     27  C   UNL     1      11.711  15.779  17.181  0.00  0.00    +0.000 C 
ATOM     28  C   UNL     1      11.044  13.406  16.965  0.00  0.00    +0.000 C 
ENDBRANCH  23  26
ENDBRANCH  17  18
ENDBRANCH   9  17
TORSDOF 5
ENDMDL
MODEL 3
REMARK VINA RESULT:      -6.3      4.607      7.343
REMARK  Name = 
REMARK  8 active torsions:
REMARK  status: ('A' for Active; 'I' for Inactive)
REMARK    1  A    between atoms: C_1  and  O_2
REMARK    2  A    between atoms: O_2  and  C_3
REMARK    3  A    between atoms: C_3  and  C_5
REMARK    4  A    between atoms: C_13  and  O_14
REMARK    5  A    between atoms: O_14  and  C_15
REMARK    6  A    between atoms: N_20  and  C_21
REMARK    7  A    between atoms: C_21  and  C_22
REMARK    8  A    between atoms: C_21  and  C_23
REMARK                            x       y       z     vdW  Elec       q    Type
REMARK                         _______ _______ _______ _____ _____    ______ ____
ROOT
ATOM      1  C   UNL     1      -0.003  10.801  20.661  0.00  0.00    +0.000 A 
ATOM      2  C   UNL     1      -0.904  10.800  19.605  0.00  0.00    +0.000 A 
ATOM      3  C   UNL     1      -0.628  11.637  18.546  0.00  0.00    +0.000 A 
ATOM      4  N   UNL     1       0.456  12.444  18.484  0.00  0.00    +0.000 NA
ATOM      5  C   UNL     1       1.331  12.467  19.516  0.00  0.00    +0.000 A 
ATOM      6  N   UNL     1       2.409  13.320  19.439  0.00  0.00    +0.000 N 
ATOM      7  C   UNL     1       3.145  13.809  20.601  0.00  0.00    +0.000 C 
ATOM      8  C   UNL     1       3.182  15.337  20.577  0.00  0.00    +0.000 C 
ATOM      9  C   UNL     1       3.699  15.884  19.244  0.00  0.00    +0.000 C 
ATOM     10  C   UNL     1       2.907  15.289  18.077  0.00  0.00    +0.000 C 
ATOM     11  C   UNL     1       2.890  13.763  18.135  0.00  0.00    +0.000 C 
ATOM     12  C   UNL     1       1.116  11.640  20.612  0.00  0.00    +0.000 A 
ENDROOT
BRANCH   1  13
ATOM     13  C   UNL     1      -0.165   9.944  21.862  0.00  0.00    +0.000 C 
ATOM     14  O   UNL     1      -0.244   8.727  21.811  0.00  0.00    +0.000 OA
BRANCH  13  16
ATOM     15  C   UNL     1      -1.466  11.355  23.185  0.00  0.00    +0.000 C 
ATOM     16  O   UNL     1      -0.214  10.693  22.991  0.00  0.00    +0.000 OA
ENDBRANCH  13  16
ENDBRANCH   1  13
BRANCH   9  17
ATOM     17  O   UNL     1       5.084  15.542  19.028  0.00  0.00    +0.000 OA
BRANCH  17  18
ATOM     18  C   UNL     1       5.988  16.552  18.971  0.00  0.00    +0.000 C 
ATOM     19  O   UNL     1       5.699  17.736  19.088  0.00  0.00    +0.000 OA
ATOM     20  N   UNL     1       7.271  16.078  18.797  0.00  0.00    +0.000 N 
ATOM     21  C   UNL     1       8.395  17.010  18.731  0.00  0.00    +0.000 C 
ATOM     22  C   UNL     1       9.669  16.398  19.352  0.00  0.00    +0.000 C 
ATOM     23  N   UNL     1      10.037  15.055  18.825  0.00  0.00    +0.000 NA
ATOM     24  C   UNL     1       8.855  14.178  19.020  0.00  0.00    +0.000 C 
ATOM     25  C   UNL     1       7.561  14.704  18.375  0.00  0.00    +0.000 C 
BRANCH  23  26
ATOM     26  C   UNL     1      10.531  15.087  17.425  0.00  0.00    +0.000 C 
ATOM     27  C   UNL     1      11.654  16.123  17.245  0.00  0.00    +0.000 C 
ATOM     28  C   UNL     1      11.094  13.728  16.973  0.00  0.00    +0.000 C 
ENDBRANCH  23  26
ENDBRANCH  17  18
ENDBRANCH   9  17
TORSDOF 5
ENDMDL
MODEL 4
REMARK VINA RESULT:      -6.2      0.798      1.153
REMARK  Name = 
REMARK  8 active torsions:
REMARK  status: ('A' for Active; 'I' for Inactive)
REMARK    1  A    between atoms: C_1  and  O_2
REMARK    2  A    between atoms: O_2  and  C_3
REMARK    3  A    between atoms: C_3  and  C_5
REMARK    4  A    between atoms: C_13  and  O_14
REMARK    5  A    between atoms: O_14  and  C_15
REMARK    6  A    between atoms: N_20  and  C_21
REMARK    7  A    between atoms: C_21  and  C_22
REMARK    8  A    between atoms: C_21  and  C_23
REMARK                            x       y       z     vdW  Elec       q    Type
REMARK                         _______ _______ _______ _____ _____    ______ ____
ROOT
ATOM      1  C   UNL     1       2.380   4.332  20.010  0.00  0.00    +0.000 A 
ATOM      2  C   UNL     1       2.441   4.156  18.634  0.00  0.00    +0.000 A 
ATOM      3  C   UNL     1       2.243   5.272  17.852  0.00  0.00    +0.000 A 
ATOM      4  N   UNL     1       1.996   6.507  18.347  0.00  0.00    +0.000 NA
ATOM      5  C   UNL     1       1.916   6.686  19.685  0.00  0.00    +0.000 A 
ATOM      6  N   UNL     1       1.635   7.947  20.160  0.00  0.00    +0.000 N 
ATOM      7  C   UNL     1       1.060   8.213  21.476  0.00  0.00    +0.000 C 
ATOM      8  C   UNL     1      -0.205   9.056  21.320  0.00  0.00    +0.000 C 
ATOM      9  C   UNL     1       0.036  10.317  20.485  0.00  0.00    +0.000 C 
ATOM     10  C   UNL     1       0.681   9.957  19.144  0.00  0.00    +0.000 C 
ATOM     11  C   UNL     1       1.940   9.114  19.339  0.00  0.00    +0.000 C 
ATOM     12  C   UNL     1       2.116   5.602  20.533  0.00  0.00    +0.000 A 
ENDROOT
BRANCH   1  13
ATOM     13  C   UNL     1       2.585   3.222  20.975  0.00  0.00    +0.000 C 
ATOM     14  O   UNL     1       2.283   3.297  22.156  0.00  0.00    +0.000 OA
BRANCH  13  16
ATOM     15  C   UNL     1       4.565   2.085  20.507  0.00  0.00    +0.000 C 
ATOM     16  O   UNL     1       3.144   2.146  20.368  0.00  0.00    +0.000 OA
ENDBRANCH  13  16
ENDBRANCH   1  13
BRANCH   9  17
ATOM     17  O   UNL     1       0.933  11.232  21.148  0.00  0.00    +0.000 OA
BRANCH  17  18
ATOM     18  C   UNL     1       0.452  12.453  21.498  0.00  0.00    +0.000 C 
ATOM     19  O   UNL     1      -0.470  12.624  22.285  0.00  0.00    +0.000 OA
ATOM     20  N   UNL     1       1.151  13.470  20.882  0.00  0.00    +0.000 N 
ATOM     21  C   UNL     1       0.800  14.864  21.146  0.00  0.00    +0.000 C 
ATOM     22  C   UNL     1       2.047  15.773  21.112  0.00  0.00    +0.000 C 
ATOM     23  N   UNL     1       2.883  15.639  19.888  0.00  0.00    +0.000 NA
ATOM     24  C   UNL     1       3.246  14.204  19.770  0.00  0.00    +0.000 C 
ATOM     25  C   UNL     1       2.043  13.245  19.741  0.00  0.00    +0.000 C 
BRANCH  23  26
ATOM     26  C   UNL     1       2.239  16.192  18.670  0.00  0.00    +0.000 C 
ATOM     27  C   UNL     1       1.761  17.638  18.890  0.00  0.00    +0.000 C 
ATOM     28  C   UNL     1       3.191  16.210  17.461  0.00  0.00    +0.000 C 
ENDBRANCH  23  26
ENDBRANCH  17  18
ENDBRANCH   9  17
TORSDOF 5
ENDMDL
MODEL 5
REMARK VINA RESULT:      -6.2      4.895      8.154
REMARK  Name = 
REMARK  8 active torsions:
REMARK  status: ('A' for Active; 'I' for Inactive)
REMARK    1  A    between atoms: C_1  and  O_2
REMARK    2  A    between atoms: O_2  and  C_3
REMARK    3  A    between atoms: C_3  and  C_5
REMARK    4  A    between atoms: C_13  and  O_14
REMARK    5  A    between atoms: O_14  and  C_15
REMARK    6  A    between atoms: N_20  and  C_21
REMARK    7  A    between atoms: C_21  and  C_22
REMARK    8  A    between atoms: C_21  and  C_23
REMARK                            x       y       z     vdW  Elec       q    Type
REMARK                         _______ _______ _______ _____ _____    ______ ____
ROOT
ATOM      1  C   UNL     1       0.340  12.121  20.714  0.00  0.00    +0.000 A 
ATOM      2  C   UNL     1      -0.270  11.981  19.475  0.00  0.00    +0.000 A 
ATOM      3  C   UNL     1       0.347  12.587  18.403  0.00  0.00    +0.000 A 
ATOM      4  N   UNL     1       1.495  13.298  18.494  0.00  0.00    +0.000 NA
ATOM      5  C   UNL     1       2.088  13.456  19.699  0.00  0.00    +0.000 A 
ATOM      6  N   UNL     1       3.238  14.208  19.768  0.00  0.00    +0.000 N 
ATOM      7  C   UNL     1       3.717  14.857  20.985  0.00  0.00    +0.000 C 
ATOM      8  C   UNL     1       3.926  16.348  20.722  0.00  0.00    +0.000 C 
ATOM      9  C   UNL     1       4.810  16.603  19.499  0.00  0.00    +0.000 C 
ATOM     10  C   UNL     1       4.267  15.853  18.279  0.00  0.00    +0.000 C 
ATOM     11  C   UNL     1       4.070  14.368  18.579  0.00  0.00    +0.000 C 
ATOM     12  C   UNL     1       1.522  12.863  20.823  0.00  0.00    +0.000 A 
ENDROOT
BRANCH   1  13
ATOM     13  C   UNL     1      -0.204  11.515  21.955  0.00  0.00    +0.000 C 
ATOM     14  O   UNL     1      -0.556  12.170  22.924  0.00  0.00    +0.000 OA
BRANCH  13  16
ATOM     15  C   UNL     1      -0.077   9.492  23.107  0.00  0.00    +0.000 C 
ATOM     16  O   UNL     1      -0.250  10.163  21.857  0.00  0.00    +0.000 OA
ENDBRANCH  13  16
ENDBRANCH   1  13
BRANCH   9  17
ATOM     17  O   UNL     1       6.159  16.138  19.709  0.00  0.00    +0.000 OA
BRANCH  17  18
ATOM     18  C   UNL     1       7.131  16.608  18.886  0.00  0.00    +0.000 C 
ATOM     19  O   UNL     1       7.109  17.716  18.365  0.00  0.00    +0.000 OA
ATOM     20  N   UNL     1       8.156  15.698  18.735  0.00  0.00    +0.000 N 
ATOM     21  C   UNL     1       9.310  16.025  17.901  0.00  0.00    +0.000 C 
ATOM     22  C   UNL     1      10.603  15.392  18.458  0.00  0.00    +0.000 C 
ATOM     23  N   UNL     1      10.516  13.930  18.728  0.00  0.00    +0.000 NA
ATOM     24  C   UNL     1       9.366  13.730  19.645  0.00  0.00    +0.000 C 
ATOM     25  C   UNL     1       8.031  14.289  19.122  0.00  0.00    +0.000 C 
BRANCH  23  26
ATOM     26  C   UNL     1      10.444  13.107  17.495  0.00  0.00    +0.000 C 
ATOM     27  C   UNL     1      11.630  13.389  16.556  0.00  0.00    +0.000 C 
ATOM     28  C   UNL     1      10.456  11.598  17.797  0.00  0.00    +0.000 C 
ENDBRANCH  23  26
ENDBRANCH  17  18
ENDBRANCH   9  17
TORSDOF 5
ENDMDL
MODEL 6
REMARK VINA RESULT:      -6.1      2.398     10.053
REMARK  Name = 
REMARK  8 active torsions:
REMARK  status: ('A' for Active; 'I' for Inactive)
REMARK    1  A    between atoms: C_1  and  O_2
REMARK    2  A    between atoms: O_2  and  C_3
REMARK    3  A    between atoms: C_3  and  C_5
REMARK    4  A    between atoms: C_13  and  O_14
REMARK    5  A    between atoms: O_14  and  C_15
REMARK    6  A    between atoms: N_20  and  C_21
REMARK    7  A    between atoms: C_21  and  C_22
REMARK    8  A    between atoms: C_21  and  C_23
REMARK                            x       y       z     vdW  Elec       q    Type
REMARK                         _______ _______ _______ _____ _____    ______ ____
ROOT
ATOM      1  C   UNL     1       1.480  16.146  18.981  0.00  0.00    +0.000 A 
ATOM      2  C   UNL     1       0.606  16.647  19.936  0.00  0.00    +0.000 A 
ATOM      3  C   UNL     1       0.027  15.737  20.792  0.00  0.00    +0.000 A 
ATOM      4  N   UNL     1       0.261  14.405  20.750  0.00  0.00    +0.000 NA
ATOM      5  C   UNL     1       1.097  13.904  19.812  0.00  0.00    +0.000 A 
ATOM      6  N   UNL     1       1.295  12.543  19.774  0.00  0.00    +0.000 N 
ATOM      7  C   UNL     1       1.751  11.818  18.590  0.00  0.00    +0.000 C 
ATOM      8  C   UNL     1       0.765  10.696  18.266  0.00  0.00    +0.000 C 
ATOM      9  C   UNL     1       0.492   9.796  19.473  0.00  0.00    +0.000 C 
ATOM     10  C   UNL     1       0.064  10.634  20.681  0.00  0.00    +0.000 C 
ATOM     11  C   UNL     1       1.071  11.745  20.974  0.00  0.00    +0.000 C 
ATOM     12  C   UNL     1       1.722  14.769  18.922  0.00  0.00    +0.000 A 
ENDROOT
BRANCH   1  13
ATOM     13  C   UNL     1       2.185  17.009  18.000  0.00  0.00    +0.000 C 
ATOM     14  O   UNL     1       3.178  16.653  17.386  0.00  0.00    +0.000 OA
BRANCH  13  16
ATOM     15  C   UNL     1       0.922  18.420  16.640  0.00  0.00    +0.000 C 
ATOM     16  O   UNL     1       1.580  18.218  17.893  0.00  0.00    +0.000 OA
ENDBRANCH  13  16
ENDBRANCH   1  13
BRANCH   9  17
ATOM     17  O   UNL     1       1.669   9.062  19.869  0.00  0.00    +0.000 OA
BRANCH  17  18
ATOM     18  C   UNL     1       1.504   7.977  20.667  0.00  0.00    +0.000 C 
ATOM     19  O   UNL     1       1.005   8.019  21.784  0.00  0.00    +0.000 OA
ATOM     20  N   UNL     1       1.939   6.822  20.052  0.00  0.00    +0.000 N 
ATOM     21  C   UNL     1       1.828   5.538  20.741  0.00  0.00    +0.000 C 
ATOM     22  C   UNL     1       1.550   4.389  19.747  0.00  0.00    +0.000 C 
ATOM     23  N   UNL     1       2.494   4.317  18.598  0.00  0.00    +0.000 NA
ATOM     24  C   UNL     1       2.460   5.642  17.930  0.00  0.00    +0.000 C 
ATOM     25  C   UNL     1       2.785   6.828  18.855  0.00  0.00    +0.000 C 
BRANCH  23  26
ATOM     26  C   UNL     1       3.859   3.879  18.983  0.00  0.00    +0.000 C 
ATOM     27  C   UNL     1       3.874   2.410  19.440  0.00  0.00    +0.000 C 
ATOM     28  C   UNL     1       4.862   4.002  17.823  0.00  0.00    +0.000 C 
ENDBRANCH  23  26
ENDBRANCH  17  18
ENDBRANCH   9  17
TORSDOF 5
ENDMDL
MODEL 7
REMARK VINA RESULT:      -6.0      6.089      8.740
REMARK  Name = 
REMARK  8 active torsions:
REMARK  status: ('A' for Active; 'I' for Inactive)
REMARK    1  A    between atoms: C_1  and  O_2
REMARK    2  A    between atoms: O_2  and  C_3
REMARK    3  A    between atoms: C_3  and  C_5
REMARK    4  A    between atoms: C_13  and  O_14
REMARK    5  A    between atoms: O_14  and  C_15
REMARK    6  A    between atoms: N_20  and  C_21
REMARK    7  A    between atoms: C_21  and  C_22
REMARK    8  A    between atoms: C_21  and  C_23
REMARK                            x       y       z     vdW  Elec       q    Type
REMARK                         _______ _______ _______ _____ _____    ______ ____
ROOT
ATOM      1  C   UNL     1      -0.107  13.016  20.919  0.00  0.00    +0.000 A 
ATOM      2  C   UNL     1      -0.692  12.725  19.695  0.00  0.00    +0.000 A 
ATOM      3  C   UNL     1       0.010  13.081  18.565  0.00  0.00    +0.000 A 
ATOM      4  N   UNL     1       1.218  13.689  18.587  0.00  0.00    +0.000 NA
ATOM      5  C   UNL     1       1.790  13.995  19.774  0.00  0.00    +0.000 A 
ATOM      6  N   UNL     1       3.006  14.640  19.768  0.00  0.00    +0.000 N 
ATOM      7  C   UNL     1       3.511  15.439  20.881  0.00  0.00    +0.000 C 
ATOM      8  C   UNL     1       3.871  16.839  20.383  0.00  0.00    +0.000 C 
ATOM      9  C   UNL     1       4.810  16.801  19.174  0.00  0.00    +0.000 C 
ATOM     10  C   UNL     1       4.231  15.908  18.073  0.00  0.00    +0.000 C 
ATOM     11  C   UNL     1       3.882  14.520  18.607  0.00  0.00    +0.000 C 
ATOM     12  C   UNL     1       1.138  13.655  20.955  0.00  0.00    +0.000 A 
ENDROOT
BRANCH   1  13
ATOM     13  C   UNL     1      -0.742  12.681  22.219  0.00  0.00    +0.000 C 
ATOM     14  O   UNL     1      -0.412  11.723  22.899  0.00  0.00    +0.000 OA
BRANCH  13  16
ATOM     15  C   UNL     1      -1.572  14.153  23.824  0.00  0.00    +0.000 C 
ATOM     16  O   UNL     1      -1.718  13.571  22.527  0.00  0.00    +0.000 OA
ENDBRANCH  13  16
ENDBRANCH   1  13
BRANCH   9  17
ATOM     17  O   UNL     1       6.101  16.258  19.518  0.00  0.00    +0.000 OA
BRANCH  17  18
ATOM     18  C   UNL     1       7.181  16.690  18.818  0.00  0.00    +0.000 C 
ATOM     19  O   UNL     1       7.290  17.819  18.358  0.00  0.00    +0.000 OA
ATOM     20  N   UNL     1       8.147  15.711  18.717  0.00  0.00    +0.000 N 
ATOM     21  C   UNL     1       9.400  15.987  18.016  0.00  0.00    +0.000 C 
ATOM     22  C   UNL     1      10.582  15.231  18.660  0.00  0.00    +0.000 C 
ATOM     23  N   UNL     1      10.363  13.770  18.840  0.00  0.00    +0.000 NA
ATOM     24  C   UNL     1       9.117  13.616  19.631  0.00  0.00    +0.000 C 
ATOM     25  C   UNL     1       7.884  14.300  19.014  0.00  0.00    +0.000 C 
BRANCH  23  26
ATOM     26  C   UNL     1      10.356  13.013  17.564  0.00  0.00    +0.000 C 
ATOM     27  C   UNL     1      11.578  13.356  16.695  0.00  0.00    +0.000 C 
ATOM     28  C   UNL     1      10.373  11.490  17.786  0.00  0.00    +0.000 C 
ENDBRANCH  23  26
ENDBRANCH  17  18
ENDBRANCH   9  17
TORSDOF 5
ENDMDL
MODEL 8
REMARK VINA RESULT:      -6.0      3.705      4.799
REMARK  Name = 
REMARK  8 active torsions:
REMARK  status: ('A' for Active; 'I' for Inactive)
REMARK    1  A    between atoms: C_1  and  O_2
REMARK    2  A    between atoms: O_2  and  C_3
REMARK    3  A    between atoms: C_3  and  C_5
REMARK    4  A    between atoms: C_13  and  O_14
REMARK    5  A    between atoms: O_14  and  C_15
REMARK    6  A    between atoms: N_20  and  C_21
REMARK    7  A    between atoms: C_21  and  C_22
REMARK    8  A    between atoms: C_21  and  C_23
REMARK                            x       y       z     vdW  Elec       q    Type
REMARK                         _______ _______ _______ _____ _____    ______ ____
ROOT
ATOM      1  C   UNL     1       5.577   5.318  16.874  0.00  0.00    +0.000 A 
ATOM      2  C   UNL     1       6.124   4.675  17.976  0.00  0.00    +0.000 A 
ATOM      3  C   UNL     1       5.504   4.877  19.189  0.00  0.00    +0.000 A 
ATOM      4  N   UNL     1       4.410   5.656  19.357  0.00  0.00    +0.000 NA
ATOM      5  C   UNL     1       3.880   6.301  18.294  0.00  0.00    +0.000 A 
ATOM      6  N   UNL     1       2.785   7.110  18.499  0.00  0.00    +0.000 N 
ATOM      7  C   UNL     1       2.401   8.204  17.611  0.00  0.00    +0.000 C 
ATOM      8  C   UNL     1       2.280   9.497  18.416  0.00  0.00    +0.000 C 
ATOM      9  C   UNL     1       1.363   9.340  19.632  0.00  0.00    +0.000 C 
ATOM     10  C   UNL     1       1.804   8.146  20.485  0.00  0.00    +0.000 C 
ATOM     11  C   UNL     1       1.917   6.874  19.647  0.00  0.00    +0.000 C 
ATOM     12  C   UNL     1       4.453   6.133  17.038  0.00  0.00    +0.000 A 
ENDROOT
BRANCH   1  13
ATOM     13  C   UNL     1       6.133   5.183  15.503  0.00  0.00    +0.000 C 
ATOM     14  O   UNL     1       7.182   5.700  15.152  0.00  0.00    +0.000 OA
BRANCH  13  16
ATOM     15  C   UNL     1       5.989   3.856  13.593  0.00  0.00    +0.000 C 
ATOM     16  O   UNL     1       5.324   4.425  14.723  0.00  0.00    +0.000 OA
ENDBRANCH  13  16
ENDBRANCH   1  13
BRANCH   9  17
ATOM     17  O   UNL     1      -0.003   9.093  19.242  0.00  0.00    +0.000 OA
BRANCH  17  18
ATOM     18  C   UNL     1      -0.690  10.105  18.652  0.00  0.00    +0.000 C 
ATOM     19  O   UNL     1      -0.963  10.141  17.459  0.00  0.00    +0.000 OA
ATOM     20  N   UNL     1      -1.065  11.066  19.567  0.00  0.00    +0.000 N 
ATOM     21  C   UNL     1      -1.833  12.231  19.132  0.00  0.00    +0.000 C 
ATOM     22  C   UNL     1      -2.816  12.696  20.228  0.00  0.00    +0.000 C 
ATOM     23  N   UNL     1      -2.203  12.910  21.567  0.00  0.00    +0.000 NA
ATOM     24  C   UNL     1      -1.526  11.642  21.938  0.00  0.00    +0.000 C 
ATOM     25  C   UNL     1      -0.489  11.152  20.912  0.00  0.00    +0.000 C 
BRANCH  23  26
ATOM     26  C   UNL     1      -1.314  14.098  21.624  0.00  0.00    +0.000 C 
ATOM     27  C   UNL     1      -2.012  15.354  21.074  0.00  0.00    +0.000 C 
ATOM     28  C   UNL     1      -0.866  14.423  23.060  0.00  0.00    +0.000 C 
ENDBRANCH  23  26
ENDBRANCH  17  18
ENDBRANCH   9  17
TORSDOF 5
ENDMDL
MODEL 9
REMARK VINA RESULT:      -6.0      2.417      9.914
REMARK  Name = 
REMARK  8 active torsions:
REMARK  status: ('A' for Active; 'I' for Inactive)
REMARK    1  A    between atoms: C_1  and  O_2
REMARK    2  A    between atoms: O_2  and  C_3
REMARK    3  A    between atoms: C_3  and  C_5
REMARK    4  A    between atoms: C_13  and  O_14
REMARK    5  A    between atoms: O_14  and  C_15
REMARK    6  A    between atoms: N_20  and  C_21
REMARK    7  A    between atoms: C_21  and  C_22
REMARK    8  A    between atoms: C_21  and  C_23
REMARK                            x       y       z     vdW  Elec       q    Type
REMARK                         _______ _______ _______ _____ _____    ______ ____
ROOT
ATOM      1  C   UNL     1       1.896  15.991  18.584  0.00  0.00    +0.000 A 
ATOM      2  C   UNL     1       0.788  16.523  19.229  0.00  0.00    +0.000 A 
ATOM      3  C   UNL     1      -0.012  15.645  19.926  0.00  0.00    +0.000 A 
ATOM      4  N   UNL     1       0.222  14.316  20.012  0.00  0.00    +0.000 NA
ATOM      5  C   UNL     1       1.288  13.783  19.372  0.00  0.00    +0.000 A 
ATOM      6  N   UNL     1       1.486  12.423  19.452  0.00  0.00    +0.000 N 
ATOM      7  C   UNL     1       2.257  11.653  18.480  0.00  0.00    +0.000 C 
ATOM      8  C   UNL     1       1.401  10.508  17.940  0.00  0.00    +0.000 C 
ATOM      9  C   UNL     1       0.795   9.658  19.059  0.00  0.00    +0.000 C 
ATOM     10  C   UNL     1       0.044  10.543  20.058  0.00  0.00    +0.000 C 
ATOM     11  C   UNL     1       0.929  11.676  20.575  0.00  0.00    +0.000 C 
ATOM     12  C   UNL     1       2.142  14.615  18.657  0.00  0.00    +0.000 A 
ENDROOT
BRANCH   1  13
ATOM     13  C   UNL     1       2.852  16.818  17.805  0.00  0.00    +0.000 C 
ATOM     14  O   UNL     1       2.792  16.949  16.593  0.00  0.00    +0.000 OA
BRANCH  13  16
ATOM     15  C   UNL     1       5.015  16.677  18.661  0.00  0.00    +0.000 C 
ATOM     16  O   UNL     1       3.776  17.388  18.617  0.00  0.00    +0.000 OA
ENDBRANCH  13  16
ENDBRANCH   1  13
BRANCH   9  17
ATOM     17  O   UNL     1       1.810   8.955  19.805  0.00  0.00    +0.000 OA
BRANCH  17  18
ATOM     18  C   UNL     1       1.435   7.861  20.516  0.00  0.00    +0.000 C 
ATOM     19  O   UNL     1       0.673   7.896  21.474  0.00  0.00    +0.000 OA
ATOM     20  N   UNL     1       1.994   6.707  20.007  0.00  0.00    +0.000 N 
ATOM     21  C   UNL     1       1.695   5.415  20.622  0.00  0.00    +0.000 C 
ATOM     22  C   UNL     1       1.659   4.287  19.569  0.00  0.00    +0.000 C 
ATOM     23  N   UNL     1       2.859   4.214  18.692  0.00  0.00    +0.000 NA
ATOM     24  C   UNL     1       3.013   5.549  18.061  0.00  0.00    +0.000 C 
ATOM     25  C   UNL     1       3.112   6.715  19.060  0.00  0.00    +0.000 C 
BRANCH  23  26
ATOM     26  C   UNL     1       4.077   3.745  19.398  0.00  0.00    +0.000 C 
ATOM     27  C   UNL     1       4.040   2.226  19.643  0.00  0.00    +0.000 C 
ATOM     28  C   UNL     1       5.363   4.043  18.607  0.00  0.00    +0.000 C 
ENDBRANCH  23  26
ENDBRANCH  17  18
ENDBRANCH   9  17
TORSDOF 5
ENDMDL
