MODEL 1
REMARK VINA RESULT:      -7.6      0.000      0.000
REMARK  Name = 
REMARK  15 active torsions:
REMARK  status: ('A' for Active; 'I' for Inactive)
REMARK    1  A    between atoms: C_1  and  C_2
REMARK    2  A    between atoms: C_2  and  C_3
REMARK    3  A    between atoms: C_2  and  C_4
REMARK    4  A    between atoms: C_4  and  C_5
REMARK    5  A    between atoms: C_5  and  C_6
REMARK    6  A    between atoms: N_8  and  C_9
REMARK    7  A    between atoms: C_10  and  N_11
REMARK    8  A    between atoms: C_16  and  C_17
REMARK    9  A    between atoms: C_17  and  O_19
REMARK   10  A    between atoms: C_21  and  C_22
REMARK   11  A    between atoms: C_22  and  O_23
REMARK   12  A    between atoms: C_22  and  C_24
REMARK   13  A    between atoms: C_24  and  O_25
REMARK   14  A    between atoms: C_24  and  C_26
REMARK   15  A    between atoms: C_26  and  O_27
REMARK                            x       y       z     vdW  Elec       q    Type
REMARK                         _______ _______ _______ _____ _____    ______ ____
ROOT
ATOM      1  C   UNL     1       5.112   4.131  17.615  0.00  0.00    +0.000 C 
ATOM      2  C   UNL     1       3.591   3.807  17.457  0.00  0.00    +0.000 C 
ATOM      3  C   UNL     1       2.723   4.621  18.364  0.00  0.00    +0.000 C 
ATOM      4  C   UNL     1       3.191   5.595  19.152  0.00  0.00    +0.000 C 
ATOM      5  O   UNL     1       4.520   5.939  19.220  0.00  0.00    +0.000 OA
ATOM      6  C   UNL     1       5.317   5.610  18.064  0.00  0.00    +0.000 C 
ENDROOT
BRANCH   2   7
ATOM      7  N   UNL     1       3.336   2.395  17.766  0.00  0.00    +0.000 N 
ATOM      8  C   UNL     1       4.026   1.723  18.713  0.00  0.00    +0.000 C 
ATOM      9  N   UNL     1       4.585   2.176  19.770  0.00  0.00    +0.000 NA
ATOM     10  N   UNL     1       4.099   0.406  18.444  0.00  0.00    +0.000 N 
ATOM     11  H   UNL     1       3.224   1.821  16.937  0.00  0.00    +0.000 HD
ATOM     12  H   UNL     1       4.409   3.181  19.820  0.00  0.00    +0.000 HD
ATOM     13  H   UNL     1       3.192  -0.022  18.313  0.00  0.00    +0.000 HD
ATOM     14  H   UNL     1       4.584  -0.054  19.211  0.00  0.00    +0.000 HD
ENDBRANCH   2   7
BRANCH   1  17
ATOM     15  C   UNL     1       5.839   4.430  15.232  0.00  0.00    +0.000 C 
ATOM     16  O   UNL     1       5.058   5.366  15.065  0.00  0.00    +0.000 OA
ATOM     17  N   UNL     1       5.910   3.753  16.425  0.00  0.00    +0.000 N 
ATOM     18  H   UNL     1       6.826   3.374  16.646  0.00  0.00    +0.000 HD
BRANCH  15  19
ATOM     19  C   UNL     1       6.823   4.017  14.142  0.00  0.00    +0.000 C 
BRANCH  19  20
ATOM     20  C   UNL     1       6.342   4.117  12.688  0.00  0.00    +0.000 C 
BRANCH  20  22
ATOM     21  C   UNL     1       4.341   3.228  11.421  0.00  0.00    +0.000 C 
ATOM     22  C   UNL     1       5.607   2.848  12.198  0.00  0.00    +0.000 C 
ATOM     23  C   UNL     1       6.483   1.947  11.326  0.00  0.00    +0.000 C 
ENDBRANCH  20  22
ENDBRANCH  19  20
ENDBRANCH  15  19
ENDBRANCH   1  17
BRANCH   4  24
ATOM     24  C   UNL     1       2.221   6.347  20.008  0.00  0.00    +0.000 C 
ATOM     25  O   UNL     1       1.514   5.849  20.861  0.00  0.00    +0.000 OA
BRANCH  24  26
ATOM     26  O   UNL     1       2.211   7.665  19.702  0.00  0.00    +0.000 OA
ATOM     27  H   UNL     1       1.389   8.108  20.007  0.00  0.00    +0.000 HD
ENDBRANCH  24  26
ENDBRANCH   4  24
BRANCH   6  28
ATOM     28  C   UNL     1       6.795   5.901  18.457  0.00  0.00    +0.000 C 
BRANCH  28  29
ATOM     29  O   UNL     1       7.574   4.690  18.443  0.00  0.00    +0.000 OA
ATOM     30  H   UNL     1       8.463   4.956  18.125  0.00  0.00    +0.000 HD
ENDBRANCH  28  29
BRANCH  28  31
ATOM     31  C   UNL     1       7.538   6.915  17.546  0.00  0.00    +0.000 C 
BRANCH  31  32
ATOM     32  O   UNL     1       6.623   7.409  16.556  0.00  0.00    +0.000 OA
ATOM     33  H   UNL     1       6.526   6.742  15.853  0.00  0.00    +0.000 HD
ENDBRANCH  31  32
BRANCH  31  34
ATOM     34  C   UNL     1       8.267   8.064  18.241  0.00  0.00    +0.000 C 
BRANCH  34  35
ATOM     35  O   UNL     1       7.828   9.335  17.780  0.00  0.00    +0.000 OA
ATOM     36  H   UNL     1       7.969   9.356  16.815  0.00  0.00    +0.000 HD
ENDBRANCH  34  35
ENDBRANCH  31  34
ENDBRANCH  28  31
ENDBRANCH   6  28
TORSDOF 13
ENDMDL
MODEL 2
REMARK VINA RESULT:      -7.6      1.448      1.760
REMARK  Name = 
REMARK  15 active torsions:
REMARK  status: ('A' for Active; 'I' for Inactive)
REMARK    1  A    between atoms: C_1  and  C_2
REMARK    2  A    between atoms: C_2  and  C_3
REMARK    3  A    between atoms: C_2  and  C_4
REMARK    4  A    between atoms: C_4  and  C_5
REMARK    5  A    between atoms: C_5  and  C_6
REMARK    6  A    between atoms: N_8  and  C_9
REMARK    7  A    between atoms: C_10  and  N_11
REMARK    8  A    between atoms: C_16  and  C_17
REMARK    9  A    between atoms: C_17  and  O_19
REMARK   10  A    between atoms: C_21  and  C_22
REMARK   11  A    between atoms: C_22  and  O_23
REMARK   12  A    between atoms: C_22  and  C_24
REMARK   13  A    between atoms: C_24  and  O_25
REMARK   14  A    between atoms: C_24  and  C_26
REMARK   15  A    between atoms: C_26  and  O_27
REMARK                            x       y       z     vdW  Elec       q    Type
REMARK                         _______ _______ _______ _____ _____    ______ ____
ROOT
ATOM      1  C   UNL     1       4.146   4.347  17.894  0.00  0.00    +0.000 C 
ATOM      2  C   UNL     1       2.704   4.729  17.425  0.00  0.00    +0.000 C 
ATOM      3  C   UNL     1       2.089   5.814  18.250  0.00  0.00    +0.000 C 
ATOM      4  C   UNL     1       2.744   6.461  19.222  0.00  0.00    +0.000 C 
ATOM      5  O   UNL     1       4.044   6.184  19.570  0.00  0.00    +0.000 OA
ATOM      6  C   UNL     1       4.856   5.572  18.546  0.00  0.00    +0.000 C 
ENDROOT
BRANCH   2   7
ATOM      7  N   UNL     1       1.815   3.564  17.511  0.00  0.00    +0.000 N 
ATOM      8  C   UNL     1       1.620   2.882  18.661  0.00  0.00    +0.000 C 
ATOM      9  N   UNL     1       1.695   3.306  19.865  0.00  0.00    +0.000 NA
ATOM     10  N   UNL     1       1.313   1.592  18.436  0.00  0.00    +0.000 N 
ATOM     11  H   UNL     1       1.928   2.920  16.734  0.00  0.00    +0.000 HD
ATOM     12  H   UNL     1       1.914   4.304  19.841  0.00  0.00    +0.000 HD
ATOM     13  H   UNL     1       0.512   1.476  17.829  0.00  0.00    +0.000 HD
ATOM     14  H   UNL     1       1.129   1.143  19.330  0.00  0.00    +0.000 HD
ENDBRANCH   2   7
BRANCH   1  17
ATOM     15  C   UNL     1       5.354   4.345  15.694  0.00  0.00    +0.000 C 
ATOM     16  O   UNL     1       5.030   5.509  15.466  0.00  0.00    +0.000 OA
ATOM     17  N   UNL     1       4.944   3.692  16.832  0.00  0.00    +0.000 N 
ATOM     18  H   UNL     1       5.591   2.989  17.176  0.00  0.00    +0.000 HD
BRANCH  15  19
ATOM     19  C   UNL     1       6.290   3.585  14.759  0.00  0.00    +0.000 C 
BRANCH  19  20
ATOM     20  C   UNL     1       6.271   3.979  13.276  0.00  0.00    +0.000 C 
BRANCH  20  22
ATOM     21  C   UNL     1       4.533   3.342  11.551  0.00  0.00    +0.000 C 
ATOM     22  C   UNL     1       5.748   2.856  12.351  0.00  0.00    +0.000 C 
ATOM     23  C   UNL     1       6.810   2.331  11.385  0.00  0.00    +0.000 C 
ENDBRANCH  20  22
ENDBRANCH  19  20
ENDBRANCH  15  19
ENDBRANCH   1  17
BRANCH   4  24
ATOM     24  C   UNL     1       2.025   7.537  19.972  0.00  0.00    +0.000 C 
ATOM     25  O   UNL     1       1.651   8.589  19.492  0.00  0.00    +0.000 OA
BRANCH  24  26
ATOM     26  O   UNL     1       1.853   7.204  21.271  0.00  0.00    +0.000 OA
ATOM     27  H   UNL     1       2.707   7.151  21.755  0.00  0.00    +0.000 HD
ENDBRANCH  24  26
ENDBRANCH   4  24
BRANCH   6  28
ATOM     28  C   UNL     1       6.194   5.174  19.233  0.00  0.00    +0.000 C 
BRANCH  28  29
ATOM     29  O   UNL     1       6.291   3.743  19.368  0.00  0.00    +0.000 OA
ATOM     30  H   UNL     1       6.976   3.465  18.723  0.00  0.00    +0.000 HD
ENDBRANCH  28  29
BRANCH  28  31
ATOM     31  C   UNL     1       7.481   5.635  18.499  0.00  0.00    +0.000 C 
BRANCH  31  32
ATOM     32  O   UNL     1       7.987   4.544  17.715  0.00  0.00    +0.000 OA
ATOM     33  H   UNL     1       7.890   4.761  16.770  0.00  0.00    +0.000 HD
ENDBRANCH  31  32
BRANCH  31  34
ATOM     34  C   UNL     1       7.381   6.911  17.662  0.00  0.00    +0.000 C 
BRANCH  34  35
ATOM     35  O   UNL     1       7.692   6.681  16.295  0.00  0.00    +0.000 OA
ATOM     36  H   UNL     1       7.535   5.735  16.117  0.00  0.00    +0.000 HD
ENDBRANCH  34  35
ENDBRANCH  31  34
ENDBRANCH  28  31
ENDBRANCH   6  28
TORSDOF 13
ENDMDL
MODEL 3
REMARK VINA RESULT:      -7.3      1.018      1.768
REMARK  Name = 
REMARK  15 active torsions:
REMARK  status: ('A' for Active; 'I' for Inactive)
REMARK    1  A    between atoms: C_1  and  C_2
REMARK    2  A    between atoms: C_2  and  C_3
REMARK    3  A    between atoms: C_2  and  C_4
REMARK    4  A    between atoms: C_4  and  C_5
REMARK    5  A    between atoms: C_5  and  C_6
REMARK    6  A    between atoms: N_8  and  C_9
REMARK    7  A    between atoms: C_10  and  N_11
REMARK    8  A    between atoms: C_16  and  C_17
REMARK    9  A    between atoms: C_17  and  O_19
REMARK   10  A    between atoms: C_21  and  C_22
REMARK   11  A    between atoms: C_22  and  O_23
REMARK   12  A    between atoms: C_22  and  C_24
REMARK   13  A    between atoms: C_24  and  O_25
REMARK   14  A    between atoms: C_24  and  C_26
REMARK   15  A    between atoms: C_26  and  O_27
REMARK                            x       y       z     vdW  Elec       q    Type
REMARK                         _______ _______ _______ _____ _____    ______ ____
ROOT
ATOM      1  C   UNL     1       4.981   4.154  17.043  0.00  0.00    +0.000 C 
ATOM      2  C   UNL     1       3.443   3.887  17.105  0.00  0.00    +0.000 C 
ATOM      3  C   UNL     1       2.705   4.902  17.919  0.00  0.00    +0.000 C 
ATOM      4  C   UNL     1       3.288   5.981  18.453  0.00  0.00    +0.000 C 
ATOM      5  O   UNL     1       4.627   6.261  18.319  0.00  0.00    +0.000 OA
ATOM      6  C   UNL     1       5.282   5.678  17.174  0.00  0.00    +0.000 C 
ENDROOT
BRANCH   2   7
ATOM      7  N   UNL     1       3.176   2.574  17.705  0.00  0.00    +0.000 N 
ATOM      8  C   UNL     1       3.982   2.027  18.640  0.00  0.00    +0.000 C 
ATOM      9  N   UNL     1       4.730   2.613  19.495  0.00  0.00    +0.000 NA
ATOM     10  N   UNL     1       3.947   0.682  18.611  0.00  0.00    +0.000 N 
ATOM     11  H   UNL     1       2.900   1.875  17.023  0.00  0.00    +0.000 HD
ATOM     12  H   UNL     1       4.613   3.622  19.385  0.00  0.00    +0.000 HD
ATOM     13  H   UNL     1       3.011   0.308  18.704  0.00  0.00    +0.000 HD
ATOM     14  H   UNL     1       4.530   0.327  19.365  0.00  0.00    +0.000 HD
ENDBRANCH   2   7
BRANCH   1  17
ATOM     15  C   UNL     1       5.678   4.101  14.633  0.00  0.00    +0.000 C 
ATOM     16  O   UNL     1       5.126   5.176  14.405  0.00  0.00    +0.000 OA
ATOM     17  N   UNL     1       5.632   3.516  15.875  0.00  0.00    +0.000 N 
ATOM     18  H   UNL     1       6.444   2.954  16.112  0.00  0.00    +0.000 HD
BRANCH  15  19
ATOM     19  C   UNL     1       6.505   3.394  13.564  0.00  0.00    +0.000 C 
BRANCH  19  20
ATOM     20  C   UNL     1       6.395   3.921  12.127  0.00  0.00    +0.000 C 
BRANCH  20  22
ATOM     21  C   UNL     1       5.880   1.538  11.453  0.00  0.00    +0.000 C 
ATOM     22  C   UNL     1       5.548   3.014  11.206  0.00  0.00    +0.000 C 
ATOM     23  C   UNL     1       4.043   3.227  11.374  0.00  0.00    +0.000 C 
ENDBRANCH  20  22
ENDBRANCH  19  20
ENDBRANCH  15  19
ENDBRANCH   1  17
BRANCH   4  24
ATOM     24  C   UNL     1       2.442   6.932  19.240  0.00  0.00    +0.000 C 
ATOM     25  O   UNL     1       1.907   6.674  20.300  0.00  0.00    +0.000 OA
BRANCH  24  26
ATOM     26  O   UNL     1       2.325   8.125  18.612  0.00  0.00    +0.000 OA
ATOM     27  H   UNL     1       1.487   8.583  18.843  0.00  0.00    +0.000 HD
ENDBRANCH  24  26
ENDBRANCH   4  24
BRANCH   6  28
ATOM     28  C   UNL     1       6.802   5.959  17.354  0.00  0.00    +0.000 C 
BRANCH  28  29
ATOM     29  O   UNL     1       7.028   7.339  17.703  0.00  0.00    +0.000 OA
ATOM     30  H   UNL     1       7.859   7.591  17.247  0.00  0.00    +0.000 HD
ENDBRANCH  28  29
BRANCH  28  31
ATOM     31  C   UNL     1       7.512   5.109  18.441  0.00  0.00    +0.000 C 
BRANCH  31  32
ATOM     32  O   UNL     1       8.333   4.123  17.798  0.00  0.00    +0.000 OA
ATOM     33  H   UNL     1       7.866   3.268  17.803  0.00  0.00    +0.000 HD
ENDBRANCH  31  32
BRANCH  31  34
ATOM     34  C   UNL     1       8.299   5.868  19.509  0.00  0.00    +0.000 C 
BRANCH  34  35
ATOM     35  O   UNL     1       8.213   5.244  20.783  0.00  0.00    +0.000 OA
ATOM     36  H   UNL     1       8.088   5.951  21.443  0.00  0.00    +0.000 HD
ENDBRANCH  34  35
ENDBRANCH  31  34
ENDBRANCH  28  31
ENDBRANCH   6  28
TORSDOF 13
ENDMDL
MODEL 4
REMARK VINA RESULT:      -7.2      2.138      5.969
REMARK  Name = 
REMARK  15 active torsions:
REMARK  status: ('A' for Active; 'I' for Inactive)
REMARK    1  A    between atoms: C_1  and  C_2
REMARK    2  A    between atoms: C_2  and  C_3
REMARK    3  A    between atoms: C_2  and  C_4
REMARK    4  A    between atoms: C_4  and  C_5
REMARK    5  A    between atoms: C_5  and  C_6
REMARK    6  A    between atoms: N_8  and  C_9
REMARK    7  A    between atoms: C_10  and  N_11
REMARK    8  A    between atoms: C_16  and  C_17
REMARK    9  A    between atoms: C_17  and  O_19
REMARK   10  A    between atoms: C_21  and  C_22
REMARK   11  A    between atoms: C_22  and  O_23
REMARK   12  A    between atoms: C_22  and  C_24
REMARK   13  A    between atoms: C_24  and  O_25
REMARK   14  A    between atoms: C_24  and  C_26
REMARK   15  A    between atoms: C_26  and  O_27
REMARK                            x       y       z     vdW  Elec       q    Type
REMARK                         _______ _______ _______ _____ _____    ______ ____
ROOT
ATOM      1  C   UNL     1       4.790   4.796  17.087  0.00  0.00    +0.000 C 
ATOM      2  C   UNL     1       6.294   4.381  17.190  0.00  0.00    +0.000 C 
ATOM      3  C   UNL     1       7.207   5.544  17.416  0.00  0.00    +0.000 C 
ATOM      4  C   UNL     1       6.772   6.794  17.613  0.00  0.00    +0.000 C 
ATOM      5  O   UNL     1       5.442   7.139  17.614  0.00  0.00    +0.000 OA
ATOM      6  C   UNL     1       4.514   6.080  17.927  0.00  0.00    +0.000 C 
ENDROOT
BRANCH   2   7
ATOM      7  N   UNL     1       6.728   3.726  15.949  0.00  0.00    +0.000 N 
ATOM      8  C   UNL     1       6.601   4.309  14.738  0.00  0.00    +0.000 C 
ATOM      9  N   UNL     1       6.592   5.553  14.445  0.00  0.00    +0.000 NA
ATOM     10  N   UNL     1       6.467   3.401  13.753  0.00  0.00    +0.000 N 
ATOM     11  H   UNL     1       6.457   2.749  15.901  0.00  0.00    +0.000 HD
ATOM     12  H   UNL     1       6.725   6.087  15.306  0.00  0.00    +0.000 HD
ATOM     13  H   UNL     1       7.221   2.727  13.732  0.00  0.00    +0.000 HD
ATOM     14  H   UNL     1       6.426   3.893  12.864  0.00  0.00    +0.000 HD
ENDBRANCH   2   7
BRANCH   1  17
ATOM     15  C   UNL     1       3.956   2.908  18.516  0.00  0.00    +0.000 C 
ATOM     16  O   UNL     1       4.862   3.068  19.331  0.00  0.00    +0.000 OA
ATOM     17  N   UNL     1       3.862   3.680  17.382  0.00  0.00    +0.000 N 
ATOM     18  H   UNL     1       2.915   3.832  17.048  0.00  0.00    +0.000 HD
BRANCH  15  19
ATOM     19  C   UNL     1       2.846   1.890  18.755  0.00  0.00    +0.000 C 
BRANCH  19  20
ATOM     20  C   UNL     1       1.415   2.429  18.885  0.00  0.00    +0.000 C 
BRANCH  20  22
ATOM     21  C   UNL     1       2.078   2.300  21.322  0.00  0.00    +0.000 C 
ATOM     22  C   UNL     1       1.046   2.842  20.328  0.00  0.00    +0.000 C 
ATOM     23  C   UNL     1       0.922   4.356  20.505  0.00  0.00    +0.000 C 
ENDBRANCH  20  22
ENDBRANCH  19  20
ENDBRANCH  15  19
ENDBRANCH   1  17
BRANCH   4  24
ATOM     24  C   UNL     1       7.783   7.873  17.840  0.00  0.00    +0.000 C 
ATOM     25  O   UNL     1       7.887   8.882  17.172  0.00  0.00    +0.000 OA
BRANCH  24  26
ATOM     26  O   UNL     1       8.594   7.578  18.882  0.00  0.00    +0.000 OA
ATOM     27  H   UNL     1       8.654   6.611  19.042  0.00  0.00    +0.000 HD
ENDBRANCH  24  26
ENDBRANCH   4  24
BRANCH   6  28
ATOM     28  C   UNL     1       3.092   6.656  17.663  0.00  0.00    +0.000 C 
BRANCH  28  29
ATOM     29  O   UNL     1       2.079   5.760  18.160  0.00  0.00    +0.000 OA
ATOM     30  H   UNL     1       2.357   5.532  19.073  0.00  0.00    +0.000 HD
ENDBRANCH  28  29
BRANCH  28  31
ATOM     31  C   UNL     1       2.807   8.041  18.302  0.00  0.00    +0.000 C 
BRANCH  31  32
ATOM     32  O   UNL     1       2.396   8.953  17.273  0.00  0.00    +0.000 OA
ATOM     33  H   UNL     1       1.752   8.507  16.694  0.00  0.00    +0.000 HD
ENDBRANCH  31  32
BRANCH  31  34
ATOM     34  C   UNL     1       1.836   8.072  19.483  0.00  0.00    +0.000 C 
BRANCH  34  35
ATOM     35  O   UNL     1       2.357   7.402  20.623  0.00  0.00    +0.000 OA
ATOM     36  H   UNL     1       2.387   6.451  20.411  0.00  0.00    +0.000 HD
ENDBRANCH  34  35
ENDBRANCH  31  34
ENDBRANCH  28  31
ENDBRANCH   6  28
TORSDOF 13
ENDMDL
MODEL 5
REMARK VINA RESULT:      -7.2      0.936      1.118
REMARK  Name = 
REMARK  15 active torsions:
REMARK  status: ('A' for Active; 'I' for Inactive)
REMARK    1  A    between atoms: C_1  and  C_2
REMARK    2  A    between atoms: C_2  and  C_3
REMARK    3  A    between atoms: C_2  and  C_4
REMARK    4  A    between atoms: C_4  and  C_5
REMARK    5  A    between atoms: C_5  and  C_6
REMARK    6  A    between atoms: N_8  and  C_9
REMARK    7  A    between atoms: C_10  and  N_11
REMARK    8  A    between atoms: C_16  and  C_17
REMARK    9  A    between atoms: C_17  and  O_19
REMARK   10  A    between atoms: C_21  and  C_22
REMARK   11  A    between atoms: C_22  and  O_23
REMARK   12  A    between atoms: C_22  and  C_24
REMARK   13  A    between atoms: C_24  and  O_25
REMARK   14  A    between atoms: C_24  and  C_26
REMARK   15  A    between atoms: C_26  and  O_27
REMARK                            x       y       z     vdW  Elec       q    Type
REMARK                         _______ _______ _______ _____ _____    ______ ____
ROOT
ATOM      1  C   UNL     1       5.205   4.143  17.004  0.00  0.00    +0.000 C 
ATOM      2  C   UNL     1       3.663   3.889  17.036  0.00  0.00    +0.000 C 
ATOM      3  C   UNL     1       2.926   4.870  17.891  0.00  0.00    +0.000 C 
ATOM      4  C   UNL     1       3.514   5.916  18.484  0.00  0.00    +0.000 C 
ATOM      5  O   UNL     1       4.856   6.188  18.378  0.00  0.00    +0.000 OA
ATOM      6  C   UNL     1       5.519   5.656  17.213  0.00  0.00    +0.000 C 
ENDROOT
BRANCH   2   7
ATOM      7  N   UNL     1       3.377   2.550  17.568  0.00  0.00    +0.000 N 
ATOM      8  C   UNL     1       4.093   2.001  18.574  0.00  0.00    +0.000 C 
ATOM      9  N   UNL     1       4.721   2.586  19.522  0.00  0.00    +0.000 NA
ATOM     10  N   UNL     1       4.109   0.657  18.505  0.00  0.00    +0.000 N 
ATOM     11  H   UNL     1       3.204   1.863  16.842  0.00  0.00    +0.000 HD
ATOM     12  H   UNL     1       4.581   3.594  19.426  0.00  0.00    +0.000 HD
ATOM     13  H   UNL     1       3.183   0.252  18.483  0.00  0.00    +0.000 HD
ATOM     14  H   UNL     1       4.617   0.299  19.310  0.00  0.00    +0.000 HD
ENDBRANCH   2   7
BRANCH   1  17
ATOM     15  C   UNL     1       5.891   4.183  14.590  0.00  0.00    +0.000 C 
ATOM     16  O   UNL     1       5.316   5.254  14.400  0.00  0.00    +0.000 OA
ATOM     17  N   UNL     1       5.862   3.557  15.813  0.00  0.00    +0.000 N 
ATOM     18  H   UNL     1       6.687   3.003  16.027  0.00  0.00    +0.000 HD
BRANCH  15  19
ATOM     19  C   UNL     1       6.726   3.528  13.495  0.00  0.00    +0.000 C 
BRANCH  19  20
ATOM     20  C   UNL     1       6.180   3.592  12.062  0.00  0.00    +0.000 C 
BRANCH  20  22
ATOM     21  C   UNL     1       3.989   3.034  10.928  0.00  0.00    +0.000 C 
ATOM     22  C   UNL     1       5.158   2.475  11.746  0.00  0.00    +0.000 C 
ATOM     23  C   UNL     1       5.776   1.291  11.001  0.00  0.00    +0.000 C 
ENDBRANCH  20  22
ENDBRANCH  19  20
ENDBRANCH  15  19
ENDBRANCH   1  17
BRANCH   4  24
ATOM     24  C   UNL     1       2.668   6.835  19.308  0.00  0.00    +0.000 C 
ATOM     25  O   UNL     1       2.164   6.547  20.375  0.00  0.00    +0.000 OA
BRANCH  24  26
ATOM     26  O   UNL     1       2.513   8.036  18.706  0.00  0.00    +0.000 OA
ATOM     27  H   UNL     1       3.329   8.582  18.755  0.00  0.00    +0.000 HD
ENDBRANCH  24  26
ENDBRANCH   4  24
BRANCH   6  28
ATOM     28  C   UNL     1       7.040   5.913  17.422  0.00  0.00    +0.000 C 
BRANCH  28  29
ATOM     29  O   UNL     1       7.694   6.153  16.161  0.00  0.00    +0.000 OA
ATOM     30  H   UNL     1       7.186   6.877  15.737  0.00  0.00    +0.000 HD
ENDBRANCH  28  29
BRANCH  28  31
ATOM     31  C   UNL     1       7.390   7.116  18.337  0.00  0.00    +0.000 C 
BRANCH  31  32
ATOM     32  O   UNL     1       8.398   6.710  19.275  0.00  0.00    +0.000 OA
ATOM     33  H   UNL     1       8.376   5.740  19.363  0.00  0.00    +0.000 HD
ENDBRANCH  31  32
BRANCH  31  34
ATOM     34  C   UNL     1       7.781   8.422  17.644  0.00  0.00    +0.000 C 
BRANCH  34  35
ATOM     35  O   UNL     1       8.580   9.252  18.476  0.00  0.00    +0.000 OA
ATOM     36  H   UNL     1       8.179   9.243  19.364  0.00  0.00    +0.000 HD
ENDBRANCH  34  35
ENDBRANCH  31  34
ENDBRANCH  28  31
ENDBRANCH   6  28
TORSDOF 13
ENDMDL
MODEL 6
REMARK VINA RESULT:      -7.2      1.011      1.339
REMARK  Name = 
REMARK  15 active torsions:
REMARK  status: ('A' for Active; 'I' for Inactive)
REMARK    1  A    between atoms: C_1  and  C_2
REMARK    2  A    between atoms: C_2  and  C_3
REMARK    3  A    between atoms: C_2  and  C_4
REMARK    4  A    between atoms: C_4  and  C_5
REMARK    5  A    between atoms: C_5  and  C_6
REMARK    6  A    between atoms: N_8  and  C_9
REMARK    7  A    between atoms: C_10  and  N_11
REMARK    8  A    between atoms: C_16  and  C_17
REMARK    9  A    between atoms: C_17  and  O_19
REMARK   10  A    between atoms: C_21  and  C_22
REMARK   11  A    between atoms: C_22  and  O_23
REMARK   12  A    between atoms: C_22  and  C_24
REMARK   13  A    between atoms: C_24  and  O_25
REMARK   14  A    between atoms: C_24  and  C_26
REMARK   15  A    between atoms: C_26  and  O_27
REMARK                            x       y       z     vdW  Elec       q    Type
REMARK                         _______ _______ _______ _____ _____    ______ ____
ROOT
ATOM      1  C   UNL     1       4.936   4.150  17.541  0.00  0.00    +0.000 C 
ATOM      2  C   UNL     1       3.390   4.119  17.314  0.00  0.00    +0.000 C 
ATOM      3  C   UNL     1       2.649   5.067  18.202  0.00  0.00    +0.000 C 
ATOM      4  C   UNL     1       3.255   5.925  19.031  0.00  0.00    +0.000 C 
ATOM      5  O   UNL     1       4.620   6.013  19.161  0.00  0.00    +0.000 OA
ATOM      6  C   UNL     1       5.393   5.558  18.032  0.00  0.00    +0.000 C 
ENDROOT
BRANCH   2   7
ATOM      7  N   UNL     1       2.862   2.775  17.579  0.00  0.00    +0.000 N 
ATOM      8  C   UNL     1       1.668   2.569  18.176  0.00  0.00    +0.000 C 
ATOM      9  N   UNL     1       0.630   3.316  18.168  0.00  0.00    +0.000 NA
ATOM     10  N   UNL     1       1.637   1.408  18.855  0.00  0.00    +0.000 N 
ATOM     11  H   UNL     1       3.560   2.142  17.958  0.00  0.00    +0.000 HD
ATOM     12  H   UNL     1       0.828   4.135  17.591  0.00  0.00    +0.000 HD
ATOM     13  H   UNL     1       1.876   0.609  18.283  0.00  0.00    +0.000 HD
ATOM     14  H   UNL     1       0.704   1.283  19.239  0.00  0.00    +0.000 HD
ENDBRANCH   2   7
BRANCH   1  17
ATOM     15  C   UNL     1       5.713   4.282  15.158  0.00  0.00    +0.000 C 
ATOM     16  O   UNL     1       5.035   5.286  14.948  0.00  0.00    +0.000 OA
ATOM     17  N   UNL     1       5.702   3.647  16.377  0.00  0.00    +0.000 N 
ATOM     18  H   UNL     1       6.571   3.184  16.624  0.00  0.00    +0.000 HD
BRANCH  15  19
ATOM     19  C   UNL     1       6.659   3.728  14.098  0.00  0.00    +0.000 C 
BRANCH  19  20
ATOM     20  C   UNL     1       6.246   3.902  12.630  0.00  0.00    +0.000 C 
BRANCH  20  22
ATOM     21  C   UNL     1       4.200   3.263  11.287  0.00  0.00    +0.000 C 
ATOM     22  C   UNL     1       5.390   2.732  12.093  0.00  0.00    +0.000 C 
ATOM     23  C   UNL     1       6.187   1.753  11.230  0.00  0.00    +0.000 C 
ENDBRANCH  20  22
ENDBRANCH  19  20
ENDBRANCH  15  19
ENDBRANCH   1  17
BRANCH   4  24
ATOM     24  C   UNL     1       2.405   6.832  19.863  0.00  0.00    +0.000 C 
ATOM     25  O   UNL     1       2.025   7.935  19.524  0.00  0.00    +0.000 OA
BRANCH  24  26
ATOM     26  O   UNL     1       2.122   6.279  21.065  0.00  0.00    +0.000 OA
ATOM     27  H   UNL     1       1.342   6.699  21.490  0.00  0.00    +0.000 HD
ENDBRANCH  24  26
ENDBRANCH   4  24
BRANCH   6  28
ATOM     28  C   UNL     1       6.880   5.561  18.492  0.00  0.00    +0.000 C 
BRANCH  28  29
ATOM     29  O   UNL     1       7.437   4.234  18.428  0.00  0.00    +0.000 OA
ATOM     30  H   UNL     1       7.629   3.986  19.357  0.00  0.00    +0.000 HD
ENDBRANCH  28  29
BRANCH  28  31
ATOM     31  C   UNL     1       7.827   6.477  17.672  0.00  0.00    +0.000 C 
BRANCH  31  32
ATOM     32  O   UNL     1       7.431   6.441  16.293  0.00  0.00    +0.000 OA
ATOM     33  H   UNL     1       8.095   5.941  15.785  0.00  0.00    +0.000 HD
ENDBRANCH  31  32
BRANCH  31  34
ATOM     34  C   UNL     1       7.990   7.917  18.159  0.00  0.00    +0.000 C 
BRANCH  34  35
ATOM     35  O   UNL     1       7.352   8.849  17.298  0.00  0.00    +0.000 OA
ATOM     36  H   UNL     1       6.815   8.337  16.664  0.00  0.00    +0.000 HD
ENDBRANCH  34  35
ENDBRANCH  31  34
ENDBRANCH  28  31
ENDBRANCH   6  28
TORSDOF 13
ENDMDL
MODEL 7
REMARK VINA RESULT:      -7.2      1.252      2.019
REMARK  Name = 
REMARK  15 active torsions:
REMARK  status: ('A' for Active; 'I' for Inactive)
REMARK    1  A    between atoms: C_1  and  C_2
REMARK    2  A    between atoms: C_2  and  C_3
REMARK    3  A    between atoms: C_2  and  C_4
REMARK    4  A    between atoms: C_4  and  C_5
REMARK    5  A    between atoms: C_5  and  C_6
REMARK    6  A    between atoms: N_8  and  C_9
REMARK    7  A    between atoms: C_10  and  N_11
REMARK    8  A    between atoms: C_16  and  C_17
REMARK    9  A    between atoms: C_17  and  O_19
REMARK   10  A    between atoms: C_21  and  C_22
REMARK   11  A    between atoms: C_22  and  O_23
REMARK   12  A    between atoms: C_22  and  C_24
REMARK   13  A    between atoms: C_24  and  O_25
REMARK   14  A    between atoms: C_24  and  C_26
REMARK   15  A    between atoms: C_26  and  O_27
REMARK                            x       y       z     vdW  Elec       q    Type
REMARK                         _______ _______ _______ _____ _____    ______ ____
ROOT
ATOM      1  C   UNL     1       5.014   4.268  17.117  0.00  0.00    +0.000 C 
ATOM      2  C   UNL     1       3.469   4.033  17.149  0.00  0.00    +0.000 C 
ATOM      3  C   UNL     1       2.743   5.029  17.997  0.00  0.00    +0.000 C 
ATOM      4  C   UNL     1       3.342   6.072  18.582  0.00  0.00    +0.000 C 
ATOM      5  O   UNL     1       4.688   6.328  18.476  0.00  0.00    +0.000 OA
ATOM      6  C   UNL     1       5.346   5.779  17.315  0.00  0.00    +0.000 C 
ENDROOT
BRANCH   2   7
ATOM      7  N   UNL     1       3.167   2.702  17.691  0.00  0.00    +0.000 N 
ATOM      8  C   UNL     1       1.968   2.394  18.231  0.00  0.00    +0.000 C 
ATOM      9  N   UNL     1       0.821   2.891  17.969  0.00  0.00    +0.000 NA
ATOM     10  N   UNL     1       2.070   1.430  19.165  0.00  0.00    +0.000 N 
ATOM     11  H   UNL     1       3.919   2.325  18.260  0.00  0.00    +0.000 HD
ATOM     12  H   UNL     1       0.933   3.585  17.228  0.00  0.00    +0.000 HD
ATOM     13  H   UNL     1       2.516   0.590  18.820  0.00  0.00    +0.000 HD
ATOM     14  H   UNL     1       1.136   1.205  19.500  0.00  0.00    +0.000 HD
ENDBRANCH   2   7
BRANCH   1  17
ATOM     15  C   UNL     1       5.766   4.314  14.723  0.00  0.00    +0.000 C 
ATOM     16  O   UNL     1       5.264   5.421  14.541  0.00  0.00    +0.000 OA
ATOM     17  N   UNL     1       5.666   3.666  15.931  0.00  0.00    +0.000 N 
ATOM     18  H   UNL     1       6.448   3.058  16.154  0.00  0.00    +0.000 HD
BRANCH  15  19
ATOM     19  C   UNL     1       6.588   3.629  13.636  0.00  0.00    +0.000 C 
BRANCH  19  20
ATOM     20  C   UNL     1       6.063   3.719  12.197  0.00  0.00    +0.000 C 
BRANCH  20  22
ATOM     21  C   UNL     1       3.958   3.079  10.949  0.00  0.00    +0.000 C 
ATOM     22  C   UNL     1       5.109   2.563  11.820  0.00  0.00    +0.000 C 
ATOM     23  C   UNL     1       5.815   1.416  11.094  0.00  0.00    +0.000 C 
ENDBRANCH  20  22
ENDBRANCH  19  20
ENDBRANCH  15  19
ENDBRANCH   1  17
BRANCH   4  24
ATOM     24  C   UNL     1       2.507   7.007  19.399  0.00  0.00    +0.000 C 
ATOM     25  O   UNL     1       2.129   8.102  19.033  0.00  0.00    +0.000 OA
BRANCH  24  26
ATOM     26  O   UNL     1       2.235   6.489  20.619  0.00  0.00    +0.000 OA
ATOM     27  H   UNL     1       1.503   5.834  20.587  0.00  0.00    +0.000 HD
ENDBRANCH  24  26
ENDBRANCH   4  24
BRANCH   6  28
ATOM     28  C   UNL     1       6.869   6.020  17.524  0.00  0.00    +0.000 C 
BRANCH  28  29
ATOM     29  O   UNL     1       7.121   7.383  17.915  0.00  0.00    +0.000 OA
ATOM     30  H   UNL     1       7.737   7.328  18.676  0.00  0.00    +0.000 HD
ENDBRANCH  28  29
BRANCH  28  31
ATOM     31  C   UNL     1       7.542   5.123  18.597  0.00  0.00    +0.000 C 
BRANCH  31  32
ATOM     32  O   UNL     1       8.340   4.127  17.938  0.00  0.00    +0.000 OA
ATOM     33  H   UNL     1       8.246   3.282  18.412  0.00  0.00    +0.000 HD
ENDBRANCH  31  32
BRANCH  31  34
ATOM     34  C   UNL     1       8.343   5.833  19.689  0.00  0.00    +0.000 C 
BRANCH  34  35
ATOM     35  O   UNL     1       8.298   5.134  20.926  0.00  0.00    +0.000 OA
ATOM     36  H   UNL     1       8.929   4.392  20.862  0.00  0.00    +0.000 HD
ENDBRANCH  34  35
ENDBRANCH  31  34
ENDBRANCH  28  31
ENDBRANCH   6  28
TORSDOF 13
ENDMDL
MODEL 8
REMARK VINA RESULT:      -7.1      2.667      7.255
REMARK  Name = 
REMARK  15 active torsions:
REMARK  status: ('A' for Active; 'I' for Inactive)
REMARK    1  A    between atoms: C_1  and  C_2
REMARK    2  A    between atoms: C_2  and  C_3
REMARK    3  A    between atoms: C_2  and  C_4
REMARK    4  A    between atoms: C_4  and  C_5
REMARK    5  A    between atoms: C_5  and  C_6
REMARK    6  A    between atoms: N_8  and  C_9
REMARK    7  A    between atoms: C_10  and  N_11
REMARK    8  A    between atoms: C_16  and  C_17
REMARK    9  A    between atoms: C_17  and  O_19
REMARK   10  A    between atoms: C_21  and  C_22
REMARK   11  A    between atoms: C_22  and  O_23
REMARK   12  A    between atoms: C_22  and  C_24
REMARK   13  A    between atoms: C_24  and  O_25
REMARK   14  A    between atoms: C_24  and  C_26
REMARK   15  A    between atoms: C_26  and  O_27
REMARK                            x       y       z     vdW  Elec       q    Type
REMARK                         _______ _______ _______ _____ _____    ______ ____
ROOT
ATOM      1  C   UNL     1       4.651   4.865  18.411  0.00  0.00    +0.000 C 
ATOM      2  C   UNL     1       5.412   6.051  17.735  0.00  0.00    +0.000 C 
ATOM      3  C   UNL     1       5.838   5.749  16.333  0.00  0.00    +0.000 C 
ATOM      4  C   UNL     1       5.512   4.621  15.692  0.00  0.00    +0.000 C 
ATOM      5  O   UNL     1       4.763   3.618  16.260  0.00  0.00    +0.000 OA
ATOM      6  C   UNL     1       3.897   4.013  17.344  0.00  0.00    +0.000 C 
ENDROOT
BRANCH   2   7
ATOM      7  N   UNL     1       6.625   6.379  18.495  0.00  0.00    +0.000 N 
ATOM      8  C   UNL     1       7.556   5.452  18.809  0.00  0.00    +0.000 C 
ATOM      9  N   UNL     1       7.860   4.379  18.185  0.00  0.00    +0.000 NA
ATOM     10  N   UNL     1       8.211   5.762  19.943  0.00  0.00    +0.000 N 
ATOM     11  H   UNL     1       6.443   6.981  19.290  0.00  0.00    +0.000 HD
ATOM     12  H   UNL     1       7.281   4.320  17.345  0.00  0.00    +0.000 HD
ATOM     13  H   UNL     1       8.636   6.679  19.917  0.00  0.00    +0.000 HD
ATOM     14  H   UNL     1       8.930   5.060  20.103  0.00  0.00    +0.000 HD
ENDBRANCH   2   7
BRANCH   1  17
ATOM     15  C   UNL     1       2.755   6.184  19.395  0.00  0.00    +0.000 C 
ATOM     16  O   UNL     1       2.509   6.717  18.315  0.00  0.00    +0.000 OA
ATOM     17  N   UNL     1       3.795   5.297  19.541  0.00  0.00    +0.000 N 
ATOM     18  H   UNL     1       3.648   4.580  20.245  0.00  0.00    +0.000 HD
BRANCH  15  19
ATOM     19  C   UNL     1       1.874   6.424  20.617  0.00  0.00    +0.000 C 
BRANCH  19  20
ATOM     20  C   UNL     1       1.812   7.855  21.167  0.00  0.00    +0.000 C 
BRANCH  20  22
ATOM     21  C   UNL     1      -0.078   9.050  22.350  0.00  0.00    +0.000 C 
ATOM     22  C   UNL     1       0.424   8.514  21.004  0.00  0.00    +0.000 C 
ATOM     23  C   UNL     1       0.414   9.646  19.975  0.00  0.00    +0.000 C 
ENDBRANCH  20  22
ENDBRANCH  19  20
ENDBRANCH  15  19
ENDBRANCH   1  17
BRANCH   4  24
ATOM     24  C   UNL     1       5.989   4.437  14.286  0.00  0.00    +0.000 C 
ATOM     25  O   UNL     1       5.449   3.735  13.454  0.00  0.00    +0.000 OA
BRANCH  24  26
ATOM     26  O   UNL     1       7.121   5.140  14.052  0.00  0.00    +0.000 OA
ATOM     27  H   UNL     1       7.028   6.085  14.305  0.00  0.00    +0.000 HD
ENDBRANCH  24  26
ENDBRANCH   4  24
BRANCH   6  28
ATOM     28  C   UNL     1       3.326   2.697  17.946  0.00  0.00    +0.000 C 
BRANCH  28  29
ATOM     29  O   UNL     1       4.196   2.186  18.975  0.00  0.00    +0.000 OA
ATOM     30  H   UNL     1       4.344   2.937  19.588  0.00  0.00    +0.000 HD
ENDBRANCH  28  29
BRANCH  28  31
ATOM     31  C   UNL     1       1.915   2.814  18.581  0.00  0.00    +0.000 C 
BRANCH  31  32
ATOM     32  O   UNL     1       1.024   1.915  17.906  0.00  0.00    +0.000 OA
ATOM     33  H   UNL     1       0.585   2.390  17.178  0.00  0.00    +0.000 HD
ENDBRANCH  31  32
BRANCH  31  34
ATOM     34  C   UNL     1       1.822   2.642  20.098  0.00  0.00    +0.000 C 
BRANCH  34  35
ATOM     35  O   UNL     1       0.582   3.104  20.615  0.00  0.00    +0.000 OA
ATOM     36  H   UNL     1       0.768   3.902  21.144  0.00  0.00    +0.000 HD
ENDBRANCH  34  35
ENDBRANCH  31  34
ENDBRANCH  28  31
ENDBRANCH   6  28
TORSDOF 13
ENDMDL
MODEL 9
REMARK VINA RESULT:      -7.1      0.926      1.729
REMARK  Name = 
REMARK  15 active torsions:
REMARK  status: ('A' for Active; 'I' for Inactive)
REMARK    1  A    between atoms: C_1  and  C_2
REMARK    2  A    between atoms: C_2  and  C_3
REMARK    3  A    between atoms: C_2  and  C_4
REMARK    4  A    between atoms: C_4  and  C_5
REMARK    5  A    between atoms: C_5  and  C_6
REMARK    6  A    between atoms: N_8  and  C_9
REMARK    7  A    between atoms: C_10  and  N_11
REMARK    8  A    between atoms: C_16  and  C_17
REMARK    9  A    between atoms: C_17  and  O_19
REMARK   10  A    between atoms: C_21  and  C_22
REMARK   11  A    between atoms: C_22  and  O_23
REMARK   12  A    between atoms: C_22  and  C_24
REMARK   13  A    between atoms: C_24  and  O_25
REMARK   14  A    between atoms: C_24  and  C_26
REMARK   15  A    between atoms: C_26  and  O_27
REMARK                            x       y       z     vdW  Elec       q    Type
REMARK                         _______ _______ _______ _____ _____    ______ ____
ROOT
ATOM      1  C   UNL     1       4.930   4.236  17.199  0.00  0.00    +0.000 C 
ATOM      2  C   UNL     1       3.393   3.952  17.179  0.00  0.00    +0.000 C 
ATOM      3  C   UNL     1       2.613   4.891  18.043  0.00  0.00    +0.000 C 
ATOM      4  C   UNL     1       3.163   5.929  18.685  0.00  0.00    +0.000 C 
ATOM      5  O   UNL     1       4.502   6.230  18.626  0.00  0.00    +0.000 OA
ATOM      6  C   UNL     1       5.208   5.747  17.464  0.00  0.00    +0.000 C 
ENDROOT
BRANCH   2   7
ATOM      7  N   UNL     1       3.119   2.592  17.660  0.00  0.00    +0.000 N 
ATOM      8  C   UNL     1       3.899   1.975  18.574  0.00  0.00    +0.000 C 
ATOM      9  N   UNL     1       4.613   2.495  19.498  0.00  0.00    +0.000 NA
ATOM     10  N   UNL     1       3.878   0.637  18.433  0.00  0.00    +0.000 N 
ATOM     11  H   UNL     1       2.873   1.950  16.915  0.00  0.00    +0.000 HD
ATOM     12  H   UNL     1       4.490   3.509  19.468  0.00  0.00    +0.000 HD
ATOM     13  H   UNL     1       2.943   0.251  18.464  0.00  0.00    +0.000 HD
ATOM     14  H   UNL     1       4.439   0.225  19.175  0.00  0.00    +0.000 HD
ENDBRANCH   2   7
BRANCH   1  17
ATOM     15  C   UNL     1       5.743   4.397  14.830  0.00  0.00    +0.000 C 
ATOM     16  O   UNL     1       5.210   5.495  14.676  0.00  0.00    +0.000 OA
ATOM     17  N   UNL     1       5.632   3.701  16.009  0.00  0.00    +0.000 N 
ATOM     18  H   UNL     1       6.427   3.110  16.231  0.00  0.00    +0.000 HD
BRANCH  15  19
ATOM     19  C   UNL     1       6.616   3.781  13.741  0.00  0.00    +0.000 C 
BRANCH  19  20
ATOM     20  C   UNL     1       6.089   3.844  12.301  0.00  0.00    +0.000 C 
BRANCH  20  22
ATOM     21  C   UNL     1       4.021   3.140  11.026  0.00  0.00    +0.000 C 
ATOM     22  C   UNL     1       5.158   2.665  11.938  0.00  0.00    +0.000 C 
ATOM     23  C   UNL     1       5.893   1.505  11.266  0.00  0.00    +0.000 C 
ENDBRANCH  20  22
ENDBRANCH  19  20
ENDBRANCH  15  19
ENDBRANCH   1  17
BRANCH   4  24
ATOM     24  C   UNL     1       2.277   6.805  19.512  0.00  0.00    +0.000 C 
ATOM     25  O   UNL     1       1.949   7.938  19.221  0.00  0.00    +0.000 OA
BRANCH  24  26
ATOM     26  O   UNL     1       1.892   6.184  20.651  0.00  0.00    +0.000 OA
ATOM     27  H   UNL     1       1.322   6.757  21.210  0.00  0.00    +0.000 HD
ENDBRANCH  24  26
ENDBRANCH   4  24
BRANCH   6  28
ATOM     28  C   UNL     1       6.717   6.026  17.725  0.00  0.00    +0.000 C 
BRANCH  28  29
ATOM     29  O   UNL     1       7.074   7.351  17.285  0.00  0.00    +0.000 OA
ATOM     30  H   UNL     1       7.542   7.760  18.044  0.00  0.00    +0.000 HD
ENDBRANCH  28  29
BRANCH  28  31
ATOM     31  C   UNL     1       7.166   5.917  19.206  0.00  0.00    +0.000 C 
BRANCH  31  32
ATOM     32  O   UNL     1       6.432   4.859  19.839  0.00  0.00    +0.000 OA
ATOM     33  H   UNL     1       5.552   5.191  20.092  0.00  0.00    +0.000 HD
ENDBRANCH  31  32
BRANCH  31  34
ATOM     34  C   UNL     1       8.666   5.776  19.465  0.00  0.00    +0.000 C 
BRANCH  34  35
ATOM     35  O   UNL     1       8.938   5.018  20.637  0.00  0.00    +0.000 OA
ATOM     36  H   UNL     1       8.389   5.386  21.353  0.00  0.00    +0.000 HD
ENDBRANCH  34  35
ENDBRANCH  31  34
ENDBRANCH  28  31
ENDBRANCH   6  28
TORSDOF 13
ENDMDL
