MODEL 1
REMARK VINA RESULT:      -7.5      0.000      0.000
REMARK  Name = 
REMARK  10 active torsions:
REMARK  status: ('A' for Active; 'I' for Inactive)
REMARK    1  A    between atoms: C_1  and  O_2
REMARK    2  A    between atoms: O_2  and  C_3
REMARK    3  A    between atoms: C_6  and  N_7
REMARK    4  A    between atoms: C_8  and  C_10
REMARK    5  A    between atoms: C_10  and  S_11
REMARK    6  A    between atoms: S_11  and  C_13
REMARK    7  A    between atoms: C_13  and  C_14
REMARK    8  A    between atoms: N_16  and  C_17
REMARK    9  A    between atoms: C_17  and  C_18
REMARK   10  A    between atoms: C_22  and  C_23
REMARK                            x       y       z     vdW  Elec       q    Type
REMARK                         _______ _______ _______ _____ _____    ______ ____
ROOT
ATOM      1  C   UNL     1       3.173   4.543  17.820  0.00  0.00    +0.000 C 
ENDROOT
BRANCH   1   2
ATOM      2  C   UNL     1       4.598   4.956  17.545  0.00  0.00    +0.000 C 
ATOM      3  O   UNL     1       5.094   5.939  18.090  0.00  0.00    +0.000 OA
ATOM      4  N   UNL     1       5.270   4.179  16.634  0.00  0.00    +0.000 N 
ATOM      5  H   UNL     1       4.802   3.395  16.190  0.00  0.00    +0.000 HD
BRANCH   4   6
ATOM      6  C   UNL     1       6.605   4.515  16.192  0.00  0.00    +0.000 C 
BRANCH   6   7
ATOM      7  C   UNL     1       6.707   4.532  14.687  0.00  0.00    +0.000 A 
ATOM      8  C   UNL     1       7.786   5.172  14.056  0.00  0.00    +0.000 A 
ATOM      9  C   UNL     1       7.903   5.163  12.665  0.00  0.00    +0.000 A 
ATOM     10  C   UNL     1       6.948   4.512  11.886  0.00  0.00    +0.000 A 
ATOM     11  C   UNL     1       5.863   3.861  12.492  0.00  0.00    +0.000 A 
ATOM     12  C   UNL     1       5.757   3.874  13.895  0.00  0.00    +0.000 A 
BRANCH  11  13
ATOM     13  C   UNL     1       4.823   3.147  11.663  0.00  0.00    +0.000 C 
ATOM     14  F   UNL     1       5.197   1.895  11.272  0.00  0.00    +0.000 F 
ATOM     15  F   UNL     1       3.643   2.994  12.326  0.00  0.00    +0.000 F 
ATOM     16  F   UNL     1       4.521   3.819  10.518  0.00  0.00    +0.000 F 
ENDBRANCH  11  13
ENDBRANCH   6   7
ENDBRANCH   4   6
ENDBRANCH   1   2
BRANCH   1  17
ATOM     17  S   UNL     1       3.061   3.152  18.977  0.00  0.00    +0.000 S 
ATOM     18  O   UNL     1       1.666   2.450  18.786  0.00  0.00    +0.000 OA
BRANCH  17  19
ATOM     19  C   UNL     1       2.992   4.109  20.516  0.00  0.00    +0.000 C 
BRANCH  19  21
ATOM     20  N   UNL     1       2.630   6.486  20.119  0.00  0.00    +0.000 N 
ATOM     21  C   UNL     1       2.023   5.266  20.390  0.00  0.00    +0.000 C 
ATOM     22  O   UNL     1       0.820   5.076  20.554  0.00  0.00    +0.000 OA
ATOM     23  H   UNL     1       3.592   6.447  19.777  0.00  0.00    +0.000 HD
BRANCH  20  27
ATOM     24  C   UNL     1       0.642  10.191  19.667  0.00  0.00    +0.000 A 
ATOM     25  C   UNL     1       0.703   9.583  20.920  0.00  0.00    +0.000 A 
ATOM     26  C   UNL     1       1.374   8.372  21.098  0.00  0.00    +0.000 A 
ATOM     27  C   UNL     1       1.980   7.734  20.014  0.00  0.00    +0.000 A 
ATOM     28  C   UNL     1       1.940   8.356  18.758  0.00  0.00    +0.000 A 
ATOM     29  C   UNL     1       1.263   9.574  18.583  0.00  0.00    +0.000 A 
BRANCH  24  31
ATOM     30  C   UNL     1      -1.373  11.268  19.046  0.00  0.00    +0.000 C 
ATOM     31  O   UNL     1      -0.081  11.350  19.631  0.00  0.00    +0.000 OA
ENDBRANCH  24  31
ENDBRANCH  20  27
ENDBRANCH  19  21
ENDBRANCH  17  19
ENDBRANCH   1  17
TORSDOF 9
ENDMDL
MODEL 2
REMARK VINA RESULT:      -7.5      3.432      4.290
REMARK  Name = 
REMARK  10 active torsions:
REMARK  status: ('A' for Active; 'I' for Inactive)
REMARK    1  A    between atoms: C_1  and  O_2
REMARK    2  A    between atoms: O_2  and  C_3
REMARK    3  A    between atoms: C_6  and  N_7
REMARK    4  A    between atoms: C_8  and  C_10
REMARK    5  A    between atoms: C_10  and  S_11
REMARK    6  A    between atoms: S_11  and  C_13
REMARK    7  A    between atoms: C_13  and  C_14
REMARK    8  A    between atoms: N_16  and  C_17
REMARK    9  A    between atoms: C_17  and  C_18
REMARK   10  A    between atoms: C_22  and  C_23
REMARK                            x       y       z     vdW  Elec       q    Type
REMARK                         _______ _______ _______ _____ _____    ______ ____
ROOT
ATOM      1  C   UNL     1       3.100   1.952  20.036  0.00  0.00    +0.000 C 
ENDROOT
BRANCH   1   2
ATOM      2  C   UNL     1       3.313   2.116  18.551  0.00  0.00    +0.000 C 
ATOM      3  O   UNL     1       3.639   1.165  17.845  0.00  0.00    +0.000 OA
ATOM      4  N   UNL     1       3.146   3.391  18.070  0.00  0.00    +0.000 N 
ATOM      5  H   UNL     1       2.905   4.146  18.703  0.00  0.00    +0.000 HD
BRANCH   4   6
ATOM      6  C   UNL     1       3.419   3.720  16.688  0.00  0.00    +0.000 C 
BRANCH   6   7
ATOM      7  C   UNL     1       4.822   4.245  16.507  0.00  0.00    +0.000 A 
ATOM      8  C   UNL     1       5.392   4.318  15.225  0.00  0.00    +0.000 A 
ATOM      9  C   UNL     1       6.676   4.834  15.047  0.00  0.00    +0.000 A 
ATOM     10  C   UNL     1       7.408   5.284  16.144  0.00  0.00    +0.000 A 
ATOM     11  C   UNL     1       6.862   5.225  17.435  0.00  0.00    +0.000 A 
ATOM     12  C   UNL     1       5.564   4.707  17.602  0.00  0.00    +0.000 A 
BRANCH  11  13
ATOM     13  C   UNL     1       7.639   5.713  18.632  0.00  0.00    +0.000 C 
ATOM     14  F   UNL     1       8.177   6.956  18.468  0.00  0.00    +0.000 F 
ATOM     15  F   UNL     1       6.874   5.784  19.757  0.00  0.00    +0.000 F 
ATOM     16  F   UNL     1       8.682   4.895  18.943  0.00  0.00    +0.000 F 
ENDBRANCH  11  13
ENDBRANCH   6   7
ENDBRANCH   4   6
ENDBRANCH   1   2
BRANCH   1  17
ATOM     17  S   UNL     1       1.536   2.673  20.599  0.00  0.00    +0.000 S 
ATOM     18  O   UNL     1       0.810   3.326  19.365  0.00  0.00    +0.000 OA
BRANCH  17  19
ATOM     19  C   UNL     1       2.225   4.014  21.608  0.00  0.00    +0.000 C 
BRANCH  19  21
ATOM     20  N   UNL     1       1.671   6.168  20.612  0.00  0.00    +0.000 N 
ATOM     21  C   UNL     1       2.642   5.184  20.741  0.00  0.00    +0.000 C 
ATOM     22  O   UNL     1       3.749   5.183  20.206  0.00  0.00    +0.000 OA
ATOM     23  H   UNL     1       0.912   6.147  21.295  0.00  0.00    +0.000 HD
BRANCH  20  27
ATOM     24  C   UNL     1       1.970   9.731  18.354  0.00  0.00    +0.000 A 
ATOM     25  C   UNL     1       2.430   8.529  17.820  0.00  0.00    +0.000 A 
ATOM     26  C   UNL     1       2.319   7.337  18.537  0.00  0.00    +0.000 A 
ATOM     27  C   UNL     1       1.765   7.331  19.818  0.00  0.00    +0.000 A 
ATOM     28  C   UNL     1       1.280   8.535  20.347  0.00  0.00    +0.000 A 
ATOM     29  C   UNL     1       1.393   9.733  19.623  0.00  0.00    +0.000 A 
BRANCH  24  31
ATOM     30  C   UNL     1       2.176  12.086  18.215  0.00  0.00    +0.000 C 
ATOM     31  O   UNL     1       2.178  10.824  17.561  0.00  0.00    +0.000 OA
ENDBRANCH  24  31
ENDBRANCH  20  27
ENDBRANCH  19  21
ENDBRANCH  17  19
ENDBRANCH   1  17
TORSDOF 9
ENDMDL
MODEL 3
REMARK VINA RESULT:      -7.5      5.573      8.273
REMARK  Name = 
REMARK  10 active torsions:
REMARK  status: ('A' for Active; 'I' for Inactive)
REMARK    1  A    between atoms: C_1  and  O_2
REMARK    2  A    between atoms: O_2  and  C_3
REMARK    3  A    between atoms: C_6  and  N_7
REMARK    4  A    between atoms: C_8  and  C_10
REMARK    5  A    between atoms: C_10  and  S_11
REMARK    6  A    between atoms: S_11  and  C_13
REMARK    7  A    between atoms: C_13  and  C_14
REMARK    8  A    between atoms: N_16  and  C_17
REMARK    9  A    between atoms: C_17  and  C_18
REMARK   10  A    between atoms: C_22  and  C_23
REMARK                            x       y       z     vdW  Elec       q    Type
REMARK                         _______ _______ _______ _____ _____    ______ ____
ROOT
ATOM      1  C   UNL     1       0.845   3.667  20.316  0.00  0.00    +0.000 C 
ENDROOT
BRANCH   1   2
ATOM      2  C   UNL     1       1.774   4.798  20.683  0.00  0.00    +0.000 C 
ATOM      3  O   UNL     1       2.563   4.697  21.620  0.00  0.00    +0.000 OA
ATOM      4  N   UNL     1       1.649   5.934  19.922  0.00  0.00    +0.000 N 
ATOM      5  H   UNL     1       0.959   5.975  19.179  0.00  0.00    +0.000 HD
BRANCH   4   6
ATOM      6  C   UNL     1       2.397   7.134  20.225  0.00  0.00    +0.000 C 
BRANCH   6   7
ATOM      7  C   UNL     1       1.674   8.374  19.764  0.00  0.00    +0.000 A 
ATOM      8  C   UNL     1       1.697   8.747  18.410  0.00  0.00    +0.000 A 
ATOM      9  C   UNL     1       1.003   9.876  17.972  0.00  0.00    +0.000 A 
ATOM     10  C   UNL     1       0.275  10.646  18.877  0.00  0.00    +0.000 A 
ATOM     11  C   UNL     1       0.233  10.294  20.234  0.00  0.00    +0.000 A 
ATOM     12  C   UNL     1       0.933   9.151  20.664  0.00  0.00    +0.000 A 
BRANCH  11  13
ATOM     13  C   UNL     1      -0.555  11.113  21.226  0.00  0.00    +0.000 C 
ATOM     14  F   UNL     1      -1.668  11.698  20.696  0.00  0.00    +0.000 F 
ATOM     15  F   UNL     1      -0.992  10.374  22.284  0.00  0.00    +0.000 F 
ATOM     16  F   UNL     1       0.179  12.128  21.761  0.00  0.00    +0.000 F 
ENDBRANCH  11  13
ENDBRANCH   6   7
ENDBRANCH   4   6
ENDBRANCH   1   2
BRANCH   1  17
ATOM     17  S   UNL     1       1.175   3.004  18.662  0.00  0.00    +0.000 S 
ATOM     18  O   UNL     1       0.165   1.830  18.380  0.00  0.00    +0.000 OA
BRANCH  17  19
ATOM     19  C   UNL     1       2.797   2.267  19.005  0.00  0.00    +0.000 C 
BRANCH  19  21
ATOM     20  N   UNL     1       4.257   4.215  18.895  0.00  0.00    +0.000 N 
ATOM     21  C   UNL     1       3.896   3.020  18.286  0.00  0.00    +0.000 C 
ATOM     22  O   UNL     1       4.364   2.569  17.243  0.00  0.00    +0.000 OA
ATOM     23  H   UNL     1       3.957   4.337  19.864  0.00  0.00    +0.000 HD
BRANCH  20  27
ATOM     24  C   UNL     1       6.985   7.100  17.440  0.00  0.00    +0.000 A 
ATOM     25  C   UNL     1       7.423   6.107  18.314  0.00  0.00    +0.000 A 
ATOM     26  C   UNL     1       6.547   5.130  18.788  0.00  0.00    +0.000 A 
ATOM     27  C   UNL     1       5.202   5.144  18.412  0.00  0.00    +0.000 A 
ATOM     28  C   UNL     1       4.765   6.127  17.514  0.00  0.00    +0.000 A 
ATOM     29  C   UNL     1       5.650   7.108  17.039  0.00  0.00    +0.000 A 
BRANCH  24  31
ATOM     30  C   UNL     1       8.219   9.029  18.040  0.00  0.00    +0.000 C 
ATOM     31  O   UNL     1       7.939   8.012  17.088  0.00  0.00    +0.000 OA
ENDBRANCH  24  31
ENDBRANCH  20  27
ENDBRANCH  19  21
ENDBRANCH  17  19
ENDBRANCH   1  17
TORSDOF 9
ENDMDL
MODEL 4
REMARK VINA RESULT:      -7.3      0.973      1.534
REMARK  Name = 
REMARK  10 active torsions:
REMARK  status: ('A' for Active; 'I' for Inactive)
REMARK    1  A    between atoms: C_1  and  O_2
REMARK    2  A    between atoms: O_2  and  C_3
REMARK    3  A    between atoms: C_6  and  N_7
REMARK    4  A    between atoms: C_8  and  C_10
REMARK    5  A    between atoms: C_10  and  S_11
REMARK    6  A    between atoms: S_11  and  C_13
REMARK    7  A    between atoms: C_13  and  C_14
REMARK    8  A    between atoms: N_16  and  C_17
REMARK    9  A    between atoms: C_17  and  C_18
REMARK   10  A    between atoms: C_22  and  C_23
REMARK                            x       y       z     vdW  Elec       q    Type
REMARK                         _______ _______ _______ _____ _____    ______ ____
ROOT
ATOM      1  C   UNL     1       3.659   2.334  17.555  0.00  0.00    +0.000 C 
ENDROOT
BRANCH   1   2
ATOM      2  C   UNL     1       4.182   3.659  17.057  0.00  0.00    +0.000 C 
ATOM      3  O   UNL     1       3.434   4.620  16.895  0.00  0.00    +0.000 OA
ATOM      4  N   UNL     1       5.526   3.693  16.776  0.00  0.00    +0.000 N 
ATOM      5  H   UNL     1       6.092   2.861  16.899  0.00  0.00    +0.000 HD
BRANCH   4   6
ATOM      6  C   UNL     1       6.147   4.861  16.192  0.00  0.00    +0.000 C 
BRANCH   6   7
ATOM      7  C   UNL     1       6.404   4.678  14.717  0.00  0.00    +0.000 A 
ATOM      8  C   UNL     1       7.612   5.111  14.147  0.00  0.00    +0.000 A 
ATOM      9  C   UNL     1       7.869   4.914  12.790  0.00  0.00    +0.000 A 
ATOM     10  C   UNL     1       6.925   4.282  11.983  0.00  0.00    +0.000 A 
ATOM     11  C   UNL     1       5.711   3.836  12.527  0.00  0.00    +0.000 A 
ATOM     12  C   UNL     1       5.465   4.036  13.898  0.00  0.00    +0.000 A 
BRANCH  11  13
ATOM     13  C   UNL     1       4.682   3.145  11.668  0.00  0.00    +0.000 C 
ATOM     14  F   UNL     1       3.510   2.886  12.317  0.00  0.00    +0.000 F 
ATOM     15  F   UNL     1       4.345   3.873  10.568  0.00  0.00    +0.000 F 
ATOM     16  F   UNL     1       5.120   1.944  11.198  0.00  0.00    +0.000 F 
ENDBRANCH  11  13
ENDBRANCH   6   7
ENDBRANCH   4   6
ENDBRANCH   1   2
BRANCH   1  17
ATOM     17  S   UNL     1       2.605   2.507  19.019  0.00  0.00    +0.000 S 
ATOM     18  O   UNL     1       1.220   3.105  18.574  0.00  0.00    +0.000 OA
BRANCH  17  19
ATOM     19  C   UNL     1       3.537   3.826  19.846  0.00  0.00    +0.000 C 
BRANCH  19  21
ATOM     20  N   UNL     1       2.866   6.082  19.215  0.00  0.00    +0.000 N 
ATOM     21  C   UNL     1       2.657   5.032  20.100  0.00  0.00    +0.000 C 
ATOM     22  O   UNL     1       1.868   5.025  21.043  0.00  0.00    +0.000 OA
ATOM     23  H   UNL     1       3.369   5.856  18.356  0.00  0.00    +0.000 HD
BRANCH  20  27
ATOM     24  C   UNL     1       1.020   9.878  19.476  0.00  0.00    +0.000 A 
ATOM     25  C   UNL     1       1.524   9.432  18.256  0.00  0.00    +0.000 A 
ATOM     26  C   UNL     1       2.115   8.173  18.140  0.00  0.00    +0.000 A 
ATOM     27  C   UNL     1       2.234   7.343  19.256  0.00  0.00    +0.000 A 
ATOM     28  C   UNL     1       1.707   7.780  20.479  0.00  0.00    +0.000 A 
ATOM     29  C   UNL     1       1.113   9.047  20.591  0.00  0.00    +0.000 A 
BRANCH  24  31
ATOM     30  C   UNL     1       1.448  12.206  19.413  0.00  0.00    +0.000 C 
ATOM     31  O   UNL     1       0.506  11.143  19.453  0.00  0.00    +0.000 OA
ENDBRANCH  24  31
ENDBRANCH  20  27
ENDBRANCH  19  21
ENDBRANCH  17  19
ENDBRANCH   1  17
TORSDOF 9
ENDMDL
MODEL 5
REMARK VINA RESULT:      -7.3      3.726      4.337
REMARK  Name = 
REMARK  10 active torsions:
REMARK  status: ('A' for Active; 'I' for Inactive)
REMARK    1  A    between atoms: C_1  and  O_2
REMARK    2  A    between atoms: O_2  and  C_3
REMARK    3  A    between atoms: C_6  and  N_7
REMARK    4  A    between atoms: C_8  and  C_10
REMARK    5  A    between atoms: C_10  and  S_11
REMARK    6  A    between atoms: S_11  and  C_13
REMARK    7  A    between atoms: C_13  and  C_14
REMARK    8  A    between atoms: N_16  and  C_17
REMARK    9  A    between atoms: C_17  and  C_18
REMARK   10  A    between atoms: C_22  and  C_23
REMARK                            x       y       z     vdW  Elec       q    Type
REMARK                         _______ _______ _______ _____ _____    ______ ____
ROOT
ATOM      1  C   UNL     1       2.384   1.725  18.850  0.00  0.00    +0.000 C 
ENDROOT
BRANCH   1   2
ATOM      2  C   UNL     1       2.844   2.580  17.694  0.00  0.00    +0.000 C 
ATOM      3  O   UNL     1       2.052   3.268  17.055  0.00  0.00    +0.000 OA
ATOM      4  N   UNL     1       4.184   2.504  17.403  0.00  0.00    +0.000 N 
ATOM      5  H   UNL     1       4.788   1.896  17.944  0.00  0.00    +0.000 HD
BRANCH   4   6
ATOM      6  C   UNL     1       4.748   3.184  16.258  0.00  0.00    +0.000 C 
BRANCH   6   7
ATOM      7  C   UNL     1       5.345   4.516  16.638  0.00  0.00    +0.000 A 
ATOM      8  C   UNL     1       4.888   5.697  16.031  0.00  0.00    +0.000 A 
ATOM      9  C   UNL     1       5.413   6.936  16.401  0.00  0.00    +0.000 A 
ATOM     10  C   UNL     1       6.398   7.013  17.384  0.00  0.00    +0.000 A 
ATOM     11  C   UNL     1       6.870   5.849  18.009  0.00  0.00    +0.000 A 
ATOM     12  C   UNL     1       6.330   4.606  17.630  0.00  0.00    +0.000 A 
BRANCH  11  13
ATOM     13  C   UNL     1       7.932   5.916  19.078  0.00  0.00    +0.000 C 
ATOM     14  F   UNL     1       7.438   5.847  20.348  0.00  0.00    +0.000 F 
ATOM     15  F   UNL     1       8.840   4.906  18.977  0.00  0.00    +0.000 F 
ATOM     16  F   UNL     1       8.653   7.070  19.022  0.00  0.00    +0.000 F 
ENDBRANCH  11  13
ENDBRANCH   6   7
ENDBRANCH   4   6
ENDBRANCH   1   2
BRANCH   1  17
ATOM     17  S   UNL     1       1.908   2.707  20.297  0.00  0.00    +0.000 S 
ATOM     18  O   UNL     1       0.479   3.315  20.043  0.00  0.00    +0.000 OA
BRANCH  17  19
ATOM     19  C   UNL     1       3.119   4.044  20.104  0.00  0.00    +0.000 C 
BRANCH  19  21
ATOM     20  N   UNL     1       2.617   6.246  19.189  0.00  0.00    +0.000 N 
ATOM     21  C   UNL     1       2.463   5.398  20.278  0.00  0.00    +0.000 C 
ATOM     22  O   UNL     1       1.885   5.665  21.329  0.00  0.00    +0.000 OA
ATOM     23  H   UNL     1       2.906   5.809  18.313  0.00  0.00    +0.000 HD
BRANCH  20  27
ATOM     24  C   UNL     1       1.247  10.227  18.789  0.00  0.00    +0.000 A 
ATOM     25  C   UNL     1       1.005   9.523  19.967  0.00  0.00    +0.000 A 
ATOM     26  C   UNL     1       1.468   8.217  20.131  0.00  0.00    +0.000 A 
ATOM     27  C   UNL     1       2.166   7.581  19.103  0.00  0.00    +0.000 A 
ATOM     28  C   UNL     1       2.432   8.295  17.927  0.00  0.00    +0.000 A 
ATOM     29  C   UNL     1       1.964   9.609  17.766  0.00  0.00    +0.000 A 
BRANCH  24  31
ATOM     30  C   UNL     1       0.059  11.924  19.936  0.00  0.00    +0.000 C 
ATOM     31  O   UNL     1       0.703  11.479  18.750  0.00  0.00    +0.000 OA
ENDBRANCH  24  31
ENDBRANCH  20  27
ENDBRANCH  19  21
ENDBRANCH  17  19
ENDBRANCH   1  17
TORSDOF 9
ENDMDL
MODEL 6
REMARK VINA RESULT:      -7.3      4.693      6.988
REMARK  Name = 
REMARK  10 active torsions:
REMARK  status: ('A' for Active; 'I' for Inactive)
REMARK    1  A    between atoms: C_1  and  O_2
REMARK    2  A    between atoms: O_2  and  C_3
REMARK    3  A    between atoms: C_6  and  N_7
REMARK    4  A    between atoms: C_8  and  C_10
REMARK    5  A    between atoms: C_10  and  S_11
REMARK    6  A    between atoms: S_11  and  C_13
REMARK    7  A    between atoms: C_13  and  C_14
REMARK    8  A    between atoms: N_16  and  C_17
REMARK    9  A    between atoms: C_17  and  C_18
REMARK   10  A    between atoms: C_22  and  C_23
REMARK                            x       y       z     vdW  Elec       q    Type
REMARK                         _______ _______ _______ _____ _____    ______ ____
ROOT
ATOM      1  C   UNL     1       0.546   9.510  19.095  0.00  0.00    +0.000 C 
ENDROOT
BRANCH   1   2
ATOM      2  C   UNL     1       1.702   9.032  18.250  0.00  0.00    +0.000 C 
ATOM      3  O   UNL     1       1.984   9.579  17.187  0.00  0.00    +0.000 OA
ATOM      4  N   UNL     1       2.377   7.942  18.740  0.00  0.00    +0.000 N 
ATOM      5  H   UNL     1       2.082   7.509  19.609  0.00  0.00    +0.000 HD
BRANCH   4   6
ATOM      6  C   UNL     1       3.438   7.308  17.989  0.00  0.00    +0.000 C 
BRANCH   6   7
ATOM      7  C   UNL     1       3.242   5.815  17.897  0.00  0.00    +0.000 A 
ATOM      8  C   UNL     1       4.052   5.044  17.048  0.00  0.00    +0.000 A 
ATOM      9  C   UNL     1       3.898   3.658  16.983  0.00  0.00    +0.000 A 
ATOM     10  C   UNL     1       2.935   3.024  17.766  0.00  0.00    +0.000 A 
ATOM     11  C   UNL     1       2.115   3.770  18.625  0.00  0.00    +0.000 A 
ATOM     12  C   UNL     1       2.282   5.166  18.685  0.00  0.00    +0.000 A 
BRANCH  11  13
ATOM     13  C   UNL     1       1.072   3.098  19.484  0.00  0.00    +0.000 C 
ATOM     14  F   UNL     1       0.159   2.374  18.774  0.00  0.00    +0.000 F 
ATOM     15  F   UNL     1       1.616   2.231  20.383  0.00  0.00    +0.000 F 
ATOM     16  F   UNL     1       0.350   3.990  20.217  0.00  0.00    +0.000 F 
ENDBRANCH  11  13
ENDBRANCH   6   7
ENDBRANCH   4   6
ENDBRANCH   1   2
BRANCH   1  17
ATOM     17  S   UNL     1       0.834   9.271  20.869  0.00  0.00    +0.000 S 
ATOM     18  O   UNL     1      -0.396   8.501  21.478  0.00  0.00    +0.000 OA
BRANCH  17  19
ATOM     19  C   UNL     1       0.707  11.007  21.380  0.00  0.00    +0.000 C 
BRANCH  19  21
ATOM     20  N   UNL     1      -1.536  11.937  21.584  0.00  0.00    +0.000 N 
ATOM     21  C   UNL     1      -0.528  11.232  22.228  0.00  0.00    +0.000 C 
ATOM     22  O   UNL     1      -0.555  10.823  23.387  0.00  0.00    +0.000 OA
ATOM     23  H   UNL     1      -1.467  11.998  20.567  0.00  0.00    +0.000 HD
BRANCH  20  27
ATOM     24  C   UNL     1      -5.283  13.077  23.180  0.00  0.00    +0.000 A 
ATOM     25  C   UNL     1      -4.201  12.859  24.032  0.00  0.00    +0.000 A 
ATOM     26  C   UNL     1      -2.949  12.506  23.526  0.00  0.00    +0.000 A 
ATOM     27  C   UNL     1      -2.763  12.341  22.152  0.00  0.00    +0.000 A 
ATOM     28  C   UNL     1      -3.844  12.583  21.293  0.00  0.00    +0.000 A 
ATOM     29  C   UNL     1      -5.101  12.938  21.805  0.00  0.00    +0.000 A 
BRANCH  24  31
ATOM     30  C   UNL     1      -6.831  14.747  23.827  0.00  0.00    +0.000 C 
ATOM     31  O   UNL     1      -6.456  13.377  23.813  0.00  0.00    +0.000 OA
ENDBRANCH  24  31
ENDBRANCH  20  27
ENDBRANCH  19  21
ENDBRANCH  17  19
ENDBRANCH   1  17
TORSDOF 9
ENDMDL
MODEL 7
REMARK VINA RESULT:      -7.1      5.011      7.568
REMARK  Name = 
REMARK  10 active torsions:
REMARK  status: ('A' for Active; 'I' for Inactive)
REMARK    1  A    between atoms: C_1  and  O_2
REMARK    2  A    between atoms: O_2  and  C_3
REMARK    3  A    between atoms: C_6  and  N_7
REMARK    4  A    between atoms: C_8  and  C_10
REMARK    5  A    between atoms: C_10  and  S_11
REMARK    6  A    between atoms: S_11  and  C_13
REMARK    7  A    between atoms: C_13  and  C_14
REMARK    8  A    between atoms: N_16  and  C_17
REMARK    9  A    between atoms: C_17  and  C_18
REMARK   10  A    between atoms: C_22  and  C_23
REMARK                            x       y       z     vdW  Elec       q    Type
REMARK                         _______ _______ _______ _____ _____    ______ ____
ROOT
ATOM      1  C   UNL     1       0.622   9.887  19.206  0.00  0.00    +0.000 C 
ENDROOT
BRANCH   1   2
ATOM      2  C   UNL     1       1.726   9.370  18.316  0.00  0.00    +0.000 C 
ATOM      3  O   UNL     1       2.105  10.004  17.335  0.00  0.00    +0.000 OA
ATOM      4  N   UNL     1       2.240   8.146  18.667  0.00  0.00    +0.000 N 
ATOM      5  H   UNL     1       1.869   7.650  19.471  0.00  0.00    +0.000 HD
BRANCH   4   6
ATOM      6  C   UNL     1       3.227   7.477  17.849  0.00  0.00    +0.000 C 
BRANCH   6   7
ATOM      7  C   UNL     1       3.185   5.981  18.034  0.00  0.00    +0.000 A 
ATOM      8  C   UNL     1       3.931   5.139  17.193  0.00  0.00    +0.000 A 
ATOM      9  C   UNL     1       3.921   3.757  17.380  0.00  0.00    +0.000 A 
ATOM     10  C   UNL     1       3.170   3.195  18.411  0.00  0.00    +0.000 A 
ATOM     11  C   UNL     1       2.419   4.012  19.268  0.00  0.00    +0.000 A 
ATOM     12  C   UNL     1       2.439   5.406  19.072  0.00  0.00    +0.000 A 
BRANCH  11  13
ATOM     13  C   UNL     1       1.605   3.420  20.392  0.00  0.00    +0.000 C 
ATOM     14  F   UNL     1       2.160   3.597  21.625  0.00  0.00    +0.000 F 
ATOM     15  F   UNL     1       0.353   3.953  20.467  0.00  0.00    +0.000 F 
ATOM     16  F   UNL     1       1.428   2.077  20.253  0.00  0.00    +0.000 F 
ENDBRANCH  11  13
ENDBRANCH   6   7
ENDBRANCH   4   6
ENDBRANCH   1   2
BRANCH   1  17
ATOM     17  S   UNL     1       1.036  11.472  19.980  0.00  0.00    +0.000 S 
ATOM     18  O   UNL     1       0.711  11.381  21.517  0.00  0.00    +0.000 OA
BRANCH  17  19
ATOM     19  C   UNL     1      -0.256  12.479  19.201  0.00  0.00    +0.000 C 
BRANCH  19  21
ATOM     20  N   UNL     1      -1.728  13.046  21.058  0.00  0.00    +0.000 N 
ATOM     21  C   UNL     1      -1.585  12.290  19.901  0.00  0.00    +0.000 C 
ATOM     22  O   UNL     1      -2.409  11.500  19.445  0.00  0.00    +0.000 OA
ATOM     23  H   UNL     1      -1.073  13.820  21.176  0.00  0.00    +0.000 HD
BRANCH  20  27
ATOM     24  C   UNL     1      -5.121  12.969  23.580  0.00  0.00    +0.000 A 
ATOM     25  C   UNL     1      -3.946  12.335  23.977  0.00  0.00    +0.000 A 
ATOM     26  C   UNL     1      -2.806  12.368  23.172  0.00  0.00    +0.000 A 
ATOM     27  C   UNL     1      -2.831  13.020  21.938  0.00  0.00    +0.000 A 
ATOM     28  C   UNL     1      -4.005  13.678  21.548  0.00  0.00    +0.000 A 
ATOM     29  C   UNL     1      -5.150  13.643  22.360  0.00  0.00    +0.000 A 
BRANCH  24  31
ATOM     30  C   UNL     1      -7.470  12.898  23.878  0.00  0.00    +0.000 C 
ATOM     31  O   UNL     1      -6.169  12.823  24.445  0.00  0.00    +0.000 OA
ENDBRANCH  24  31
ENDBRANCH  20  27
ENDBRANCH  19  21
ENDBRANCH  17  19
ENDBRANCH   1  17
TORSDOF 9
ENDMDL
MODEL 8
REMARK VINA RESULT:      -7.1      4.776      7.220
REMARK  Name = 
REMARK  10 active torsions:
REMARK  status: ('A' for Active; 'I' for Inactive)
REMARK    1  A    between atoms: C_1  and  O_2
REMARK    2  A    between atoms: O_2  and  C_3
REMARK    3  A    between atoms: C_6  and  N_7
REMARK    4  A    between atoms: C_8  and  C_10
REMARK    5  A    between atoms: C_10  and  S_11
REMARK    6  A    between atoms: S_11  and  C_13
REMARK    7  A    between atoms: C_13  and  C_14
REMARK    8  A    between atoms: N_16  and  C_17
REMARK    9  A    between atoms: C_17  and  C_18
REMARK   10  A    between atoms: C_22  and  C_23
REMARK                            x       y       z     vdW  Elec       q    Type
REMARK                         _______ _______ _______ _____ _____    ______ ____
ROOT
ATOM      1  C   UNL     1       0.516   9.628  18.987  0.00  0.00    +0.000 C 
ENDROOT
BRANCH   1   2
ATOM      2  C   UNL     1       1.743   9.171  18.237  0.00  0.00    +0.000 C 
ATOM      3  O   UNL     1       2.276   9.884  17.390  0.00  0.00    +0.000 OA
ATOM      4  N   UNL     1       2.188   7.910  18.549  0.00  0.00    +0.000 N 
ATOM      5  H   UNL     1       1.692   7.351  19.236  0.00  0.00    +0.000 HD
BRANCH   4   6
ATOM      6  C   UNL     1       3.287   7.298  17.837  0.00  0.00    +0.000 C 
BRANCH   6   7
ATOM      7  C   UNL     1       3.216   5.792  17.888  0.00  0.00    +0.000 A 
ATOM      8  C   UNL     1       4.173   5.013  17.217  0.00  0.00    +0.000 A 
ATOM      9  C   UNL     1       4.131   3.620  17.288  0.00  0.00    +0.000 A 
ATOM     10  C   UNL     1       3.136   2.986  18.029  0.00  0.00    +0.000 A 
ATOM     11  C   UNL     1       2.170   3.740  18.711  0.00  0.00    +0.000 A 
ATOM     12  C   UNL     1       2.224   5.144  18.636  0.00  0.00    +0.000 A 
BRANCH  11  13
ATOM     13  C   UNL     1       1.090   3.069  19.523  0.00  0.00    +0.000 C 
ATOM     14  F   UNL     1       0.178   2.389  18.770  0.00  0.00    +0.000 F 
ATOM     15  F   UNL     1       1.589   2.164  20.410  0.00  0.00    +0.000 F 
ATOM     16  F   UNL     1       0.371   3.957  20.265  0.00  0.00    +0.000 F 
ENDBRANCH  11  13
ENDBRANCH   6   7
ENDBRANCH   4   6
ENDBRANCH   1   2
BRANCH   1  17
ATOM     17  S   UNL     1       0.796   9.746  20.774  0.00  0.00    +0.000 S 
ATOM     18  O   UNL     1      -0.406   9.054  21.517  0.00  0.00    +0.000 OA
BRANCH  17  19
ATOM     19  C   UNL     1       0.590  11.540  20.943  0.00  0.00    +0.000 C 
BRANCH  19  21
ATOM     20  N   UNL     1      -1.251  12.465  22.244  0.00  0.00    +0.000 N 
ATOM     21  C   UNL     1      -0.875  11.912  21.027  0.00  0.00    +0.000 C 
ATOM     22  O   UNL     1      -1.617  11.689  20.072  0.00  0.00    +0.000 OA
ATOM     23  H   UNL     1      -0.495  12.805  22.839  0.00  0.00    +0.000 HD
BRANCH  20  27
ATOM     24  C   UNL     1      -5.133  13.571  23.505  0.00  0.00    +0.000 A 
ATOM     25  C   UNL     1      -4.570  14.173  22.382  0.00  0.00    +0.000 A 
ATOM     26  C   UNL     1      -3.300  13.806  21.932  0.00  0.00    +0.000 A 
ATOM     27  C   UNL     1      -2.559  12.843  22.618  0.00  0.00    +0.000 A 
ATOM     28  C   UNL     1      -3.134  12.219  23.734  0.00  0.00    +0.000 A 
ATOM     29  C   UNL     1      -4.411  12.590  24.183  0.00  0.00    +0.000 A 
BRANCH  24  31
ATOM     30  C   UNL     1      -7.376  13.086  24.091  0.00  0.00    +0.000 C 
ATOM     31  O   UNL     1      -6.363  14.054  23.854  0.00  0.00    +0.000 OA
ENDBRANCH  24  31
ENDBRANCH  20  27
ENDBRANCH  19  21
ENDBRANCH  17  19
ENDBRANCH   1  17
TORSDOF 9
ENDMDL
MODEL 9
REMARK VINA RESULT:      -7.1      1.135      1.297
REMARK  Name = 
REMARK  10 active torsions:
REMARK  status: ('A' for Active; 'I' for Inactive)
REMARK    1  A    between atoms: C_1  and  O_2
REMARK    2  A    between atoms: O_2  and  C_3
REMARK    3  A    between atoms: C_6  and  N_7
REMARK    4  A    between atoms: C_8  and  C_10
REMARK    5  A    between atoms: C_10  and  S_11
REMARK    6  A    between atoms: S_11  and  C_13
REMARK    7  A    between atoms: C_13  and  C_14
REMARK    8  A    between atoms: N_16  and  C_17
REMARK    9  A    between atoms: C_17  and  C_18
REMARK   10  A    between atoms: C_22  and  C_23
REMARK                            x       y       z     vdW  Elec       q    Type
REMARK                         _______ _______ _______ _____ _____    ______ ____
ROOT
ATOM      1  C   UNL     1       3.941   3.836  18.017  0.00  0.00    +0.000 C 
ENDROOT
BRANCH   1   2
ATOM      2  C   UNL     1       5.215   4.555  17.648  0.00  0.00    +0.000 C 
ATOM      3  O   UNL     1       5.616   5.517  18.297  0.00  0.00    +0.000 OA
ATOM      4  N   UNL     1       5.860   4.075  16.534  0.00  0.00    +0.000 N 
ATOM      5  H   UNL     1       5.468   3.295  16.016  0.00  0.00    +0.000 HD
BRANCH   4   6
ATOM      6  C   UNL     1       7.034   4.729  15.999  0.00  0.00    +0.000 C 
BRANCH   6   7
ATOM      7  C   UNL     1       7.070   4.667  14.493  0.00  0.00    +0.000 A 
ATOM      8  C   UNL     1       7.792   5.622  13.760  0.00  0.00    +0.000 A 
ATOM      9  C   UNL     1       7.856   5.551  12.368  0.00  0.00    +0.000 A 
ATOM     10  C   UNL     1       7.202   4.524  11.689  0.00  0.00    +0.000 A 
ATOM     11  C   UNL     1       6.476   3.555  12.396  0.00  0.00    +0.000 A 
ATOM     12  C   UNL     1       6.422   3.634  13.800  0.00  0.00    +0.000 A 
BRANCH  11  13
ATOM     13  C   UNL     1       5.768   2.434  11.676  0.00  0.00    +0.000 C 
ATOM     14  F   UNL     1       5.461   1.373  12.478  0.00  0.00    +0.000 F 
ATOM     15  F   UNL     1       4.591   2.833  11.119  0.00  0.00    +0.000 F 
ATOM     16  F   UNL     1       6.509   1.924  10.653  0.00  0.00    +0.000 F 
ENDBRANCH  11  13
ENDBRANCH   6   7
ENDBRANCH   4   6
ENDBRANCH   1   2
BRANCH   1  17
ATOM     17  S   UNL     1       4.172   2.662  19.379  0.00  0.00    +0.000 S 
ATOM     18  O   UNL     1       3.718   1.236  18.896  0.00  0.00    +0.000 OA
BRANCH  17  19
ATOM     19  C   UNL     1       2.887   3.305  20.486  0.00  0.00    +0.000 C 
BRANCH  19  21
ATOM     20  N   UNL     1       2.787   5.713  20.125  0.00  0.00    +0.000 N 
ATOM     21  C   UNL     1       2.181   4.491  19.864  0.00  0.00    +0.000 C 
ATOM     22  O   UNL     1       1.148   4.317  19.219  0.00  0.00    +0.000 OA
ATOM     23  H   UNL     1       3.750   5.677  20.463  0.00  0.00    +0.000 HD
BRANCH  20  27
ATOM     24  C   UNL     1       1.337   9.456  18.796  0.00  0.00    +0.000 A 
ATOM     25  C   UNL     1       1.173   9.080  20.128  0.00  0.00    +0.000 A 
ATOM     26  C   UNL     1       1.665   7.861  20.595  0.00  0.00    +0.000 A 
ATOM     27  C   UNL     1       2.312   6.980  19.726  0.00  0.00    +0.000 A 
ATOM     28  C   UNL     1       2.499   7.367  18.391  0.00  0.00    +0.000 A 
ATOM     29  C   UNL     1       2.003   8.595  17.926  0.00  0.00    +0.000 A 
BRANCH  24  31
ATOM     30  C   UNL     1       1.541  11.815  18.757  0.00  0.00    +0.000 C 
ATOM     31  O   UNL     1       0.772  10.656  18.468  0.00  0.00    +0.000 OA
ENDBRANCH  24  31
ENDBRANCH  20  27
ENDBRANCH  19  21
ENDBRANCH  17  19
ENDBRANCH   1  17
TORSDOF 9
ENDMDL
