MODEL 1
REMARK VINA RESULT:      -5.2      0.000      0.000
REMARK  Name = 
REMARK  14 active torsions:
REMARK  status: ('A' for Active; 'I' for Inactive)
REMARK    1  A    between atoms: C_1  and  C_2
REMARK    2  A    between atoms: C_2  and  C_3
REMARK    3  A    between atoms: C_3  and  C_4
REMARK    4  A    between atoms: C_4  and  C_5
REMARK    5  A    between atoms: C_5  and  C_6
REMARK    6  A    between atoms: C_6  and  C_7
REMARK    7  A    between atoms: C_7  and  S_8
REMARK    8  A    between atoms: S_8  and  S_9
REMARK    9  A    between atoms: S_9  and  C_10
REMARK   10  A    between atoms: C_10  and  N_12
REMARK   11  A    between atoms: N_12  and  C_13
REMARK   12  A    between atoms: N_12  and  C_15
REMARK   13  A    between atoms: C_13  and  C_14
REMARK   14  A    between atoms: C_15  and  C_16
REMARK                            x       y       z     vdW  Elec       q    Type
REMARK                         _______ _______ _______ _____ _____    ______ ____
ROOT
ATOM      1  S   UNL     1       5.667   4.626  17.187  0.00  0.00    +0.000 S 
ENDROOT
BRANCH   1   2
ATOM      2  C   UNL     1       5.697   5.019  15.405  0.00  0.00    +0.000 C 
BRANCH   2   3
ATOM      3  C   UNL     1       5.961   3.741  14.614  0.00  0.00    +0.000 C 
BRANCH   3   4
ATOM      4  C   UNL     1       6.600   4.040  13.255  0.00  0.00    +0.000 C 
BRANCH   4   5
ATOM      5  C   UNL     1       5.908   3.241  12.150  0.00  0.00    +0.000 C 
BRANCH   5   6
ATOM      6  C   UNL     1       4.446   3.654  11.985  0.00  0.00    +0.000 C 
BRANCH   6   8
ATOM      7  C   UNL     1       3.069   3.858   9.888  0.00  0.00    +0.000 C 
ATOM      8  C   UNL     1       3.790   2.904  10.827  0.00  0.00    +0.000 C 
ENDBRANCH   6   8
ENDBRANCH   5   6
ENDBRANCH   4   5
ENDBRANCH   3   4
ENDBRANCH   2   3
ENDBRANCH   1   2
BRANCH   1   9
ATOM      9  S   UNL     1       4.005   3.423  17.355  0.00  0.00    +0.000 S 
BRANCH   9  10
ATOM     10  C   UNL     1       3.672   3.246  19.087  0.00  0.00    +0.000 C 
ATOM     11  S   UNL     1       4.420   2.198  20.161  0.00  0.00    +0.000 S 
BRANCH  10  12
ATOM     12  N   UNL     1       2.640   4.102  19.497  0.00  0.00    +0.000 N 
BRANCH  12  13
ATOM     13  C   UNL     1       2.825   5.556  19.460  0.00  0.00    +0.000 C 
ATOM     14  C   UNL     1       2.276   6.245  18.219  0.00  0.00    +0.000 C 
ENDBRANCH  12  13
BRANCH  12  15
ATOM     15  C   UNL     1       1.357   3.541  19.937  0.00  0.00    +0.000 C 
ATOM     16  C   UNL     1       0.649   2.709  18.883  0.00  0.00    +0.000 C 
ENDBRANCH  12  15
ENDBRANCH  10  12
ENDBRANCH   9  10
ENDBRANCH   1   9
TORSDOF 11
ENDMDL
MODEL 2
REMARK VINA RESULT:      -5.2      2.936      6.615
REMARK  Name = 
REMARK  14 active torsions:
REMARK  status: ('A' for Active; 'I' for Inactive)
REMARK    1  A    between atoms: C_1  and  C_2
REMARK    2  A    between atoms: C_2  and  C_3
REMARK    3  A    between atoms: C_3  and  C_4
REMARK    4  A    between atoms: C_4  and  C_5
REMARK    5  A    between atoms: C_5  and  C_6
REMARK    6  A    between atoms: C_6  and  C_7
REMARK    7  A    between atoms: C_7  and  S_8
REMARK    8  A    between atoms: S_8  and  S_9
REMARK    9  A    between atoms: S_9  and  C_10
REMARK   10  A    between atoms: C_10  and  N_12
REMARK   11  A    between atoms: N_12  and  C_13
REMARK   12  A    between atoms: N_12  and  C_15
REMARK   13  A    between atoms: C_13  and  C_14
REMARK   14  A    between atoms: C_15  and  C_16
REMARK                            x       y       z     vdW  Elec       q    Type
REMARK                         _______ _______ _______ _____ _____    ______ ____
ROOT
ATOM      1  S   UNL     1       4.618   3.417  19.118  0.00  0.00    +0.000 S 
ENDROOT
BRANCH   1   2
ATOM      2  C   UNL     1       4.053   3.366  17.384  0.00  0.00    +0.000 C 
BRANCH   2   3
ATOM      3  C   UNL     1       2.535   3.208  17.355  0.00  0.00    +0.000 C 
BRANCH   3   4
ATOM      4  C   UNL     1       2.072   2.054  18.249  0.00  0.00    +0.000 C 
BRANCH   4   5
ATOM      5  C   UNL     1       0.738   2.396  18.916  0.00  0.00    +0.000 C 
BRANCH   5   6
ATOM      6  C   UNL     1       0.938   2.945  20.328  0.00  0.00    +0.000 C 
BRANCH   6   8
ATOM      7  C   UNL     1       2.086   5.091  20.969  0.00  0.00    +0.000 C 
ATOM      8  C   UNL     1       0.848   4.471  20.343  0.00  0.00    +0.000 C 
ENDBRANCH   6   8
ENDBRANCH   5   6
ENDBRANCH   4   5
ENDBRANCH   3   4
ENDBRANCH   2   3
ENDBRANCH   1   2
BRANCH   1   9
ATOM      9  S   UNL     1       5.690   5.173  19.190  0.00  0.00    +0.000 S 
BRANCH   9  10
ATOM     10  C   UNL     1       5.087   6.198  17.875  0.00  0.00    +0.000 C 
ATOM     11  S   UNL     1       3.642   7.048  17.835  0.00  0.00    +0.000 S 
BRANCH  10  12
ATOM     12  N   UNL     1       5.976   6.212  16.792  0.00  0.00    +0.000 N 
BRANCH  12  13
ATOM     13  C   UNL     1       7.384   6.565  16.993  0.00  0.00    +0.000 C 
ATOM     14  C   UNL     1       7.628   7.972  17.519  0.00  0.00    +0.000 C 
ENDBRANCH  12  13
BRANCH  12  15
ATOM     15  C   UNL     1       5.502   5.841  15.453  0.00  0.00    +0.000 C 
ATOM     16  C   UNL     1       6.457   4.949  14.681  0.00  0.00    +0.000 C 
ENDBRANCH  12  15
ENDBRANCH  10  12
ENDBRANCH   9  10
ENDBRANCH   1   9
TORSDOF 11
ENDMDL
MODEL 3
REMARK VINA RESULT:      -5.2      1.478      2.083
REMARK  Name = 
REMARK  14 active torsions:
REMARK  status: ('A' for Active; 'I' for Inactive)
REMARK    1  A    between atoms: C_1  and  C_2
REMARK    2  A    between atoms: C_2  and  C_3
REMARK    3  A    between atoms: C_3  and  C_4
REMARK    4  A    between atoms: C_4  and  C_5
REMARK    5  A    between atoms: C_5  and  C_6
REMARK    6  A    between atoms: C_6  and  C_7
REMARK    7  A    between atoms: C_7  and  S_8
REMARK    8  A    between atoms: S_8  and  S_9
REMARK    9  A    between atoms: S_9  and  C_10
REMARK   10  A    between atoms: C_10  and  N_12
REMARK   11  A    between atoms: N_12  and  C_13
REMARK   12  A    between atoms: N_12  and  C_15
REMARK   13  A    between atoms: C_13  and  C_14
REMARK   14  A    between atoms: C_15  and  C_16
REMARK                            x       y       z     vdW  Elec       q    Type
REMARK                         _______ _______ _______ _____ _____    ______ ____
ROOT
ATOM      1  S   UNL     1       6.233   5.249  16.457  0.00  0.00    +0.000 S 
ENDROOT
BRANCH   1   2
ATOM      2  C   UNL     1       6.954   4.653  14.890  0.00  0.00    +0.000 C 
BRANCH   2   3
ATOM      3  C   UNL     1       5.828   4.315  13.917  0.00  0.00    +0.000 C 
BRANCH   3   4
ATOM      4  C   UNL     1       6.372   3.893  12.550  0.00  0.00    +0.000 C 
BRANCH   4   5
ATOM      5  C   UNL     1       5.471   2.831  11.918  0.00  0.00    +0.000 C 
BRANCH   5   6
ATOM      6  C   UNL     1       4.109   3.406  11.528  0.00  0.00    +0.000 C 
BRANCH   6   8
ATOM      7  C   UNL     1       2.766   4.354   9.623  0.00  0.00    +0.000 C 
ATOM      8  C   UNL     1       3.972   3.513  10.010  0.00  0.00    +0.000 C 
ENDBRANCH   6   8
ENDBRANCH   5   6
ENDBRANCH   4   5
ENDBRANCH   3   4
ENDBRANCH   2   3
ENDBRANCH   1   2
BRANCH   1   9
ATOM      9  S   UNL     1       4.535   4.100  16.637  0.00  0.00    +0.000 S 
BRANCH   9  10
ATOM     10  C   UNL     1       3.530   4.859  17.885  0.00  0.00    +0.000 C 
ATOM     11  S   UNL     1       3.286   6.501  18.128  0.00  0.00    +0.000 S 
BRANCH  10  12
ATOM     12  N   UNL     1       2.942   3.900  18.719  0.00  0.00    +0.000 N 
BRANCH  12  13
ATOM     13  C   UNL     1       1.520   3.988  19.063  0.00  0.00    +0.000 C 
ATOM     14  C   UNL     1       1.204   3.857  20.546  0.00  0.00    +0.000 C 
ENDBRANCH  12  13
BRANCH  12  15
ATOM     15  C   UNL     1       3.746   2.781  19.228  0.00  0.00    +0.000 C 
ATOM     16  C   UNL     1       3.386   1.435  18.627  0.00  0.00    +0.000 C 
ENDBRANCH  12  15
ENDBRANCH  10  12
ENDBRANCH   9  10
ENDBRANCH   1   9
TORSDOF 11
ENDMDL
MODEL 4
REMARK VINA RESULT:      -5.1      4.228      6.520
REMARK  Name = 
REMARK  14 active torsions:
REMARK  status: ('A' for Active; 'I' for Inactive)
REMARK    1  A    between atoms: C_1  and  C_2
REMARK    2  A    between atoms: C_2  and  C_3
REMARK    3  A    between atoms: C_3  and  C_4
REMARK    4  A    between atoms: C_4  and  C_5
REMARK    5  A    between atoms: C_5  and  C_6
REMARK    6  A    between atoms: C_6  and  C_7
REMARK    7  A    between atoms: C_7  and  S_8
REMARK    8  A    between atoms: S_8  and  S_9
REMARK    9  A    between atoms: S_9  and  C_10
REMARK   10  A    between atoms: C_10  and  N_12
REMARK   11  A    between atoms: N_12  and  C_13
REMARK   12  A    between atoms: N_12  and  C_15
REMARK   13  A    between atoms: C_13  and  C_14
REMARK   14  A    between atoms: C_15  and  C_16
REMARK                            x       y       z     vdW  Elec       q    Type
REMARK                         _______ _______ _______ _____ _____    ______ ____
ROOT
ATOM      1  S   UNL     1       5.972   4.755  18.731  0.00  0.00    +0.000 S 
ENDROOT
BRANCH   1   2
ATOM      2  C   UNL     1       7.611   5.293  18.135  0.00  0.00    +0.000 C 
BRANCH   2   3
ATOM      3  C   UNL     1       7.833   6.751  18.526  0.00  0.00    +0.000 C 
BRANCH   3   4
ATOM      4  C   UNL     1       7.725   7.683  17.315  0.00  0.00    +0.000 C 
BRANCH   4   5
ATOM      5  C   UNL     1       7.860   9.143  17.749  0.00  0.00    +0.000 C 
BRANCH   5   6
ATOM      6  C   UNL     1       8.900   9.310  18.856  0.00  0.00    +0.000 C 
BRANCH   6   8
ATOM      7  C   UNL     1       9.793  11.116  20.364  0.00  0.00    +0.000 C 
ATOM      8  C   UNL     1       9.380  10.759  18.946  0.00  0.00    +0.000 C 
ENDBRANCH   6   8
ENDBRANCH   5   6
ENDBRANCH   4   5
ENDBRANCH   3   4
ENDBRANCH   2   3
ENDBRANCH   1   2
BRANCH   1   9
ATOM      9  S   UNL     1       4.691   5.638  17.382  0.00  0.00    +0.000 S 
BRANCH   9  10
ATOM     10  C   UNL     1       3.147   5.875  18.221  0.00  0.00    +0.000 C 
ATOM     11  S   UNL     1       2.413   7.335  18.598  0.00  0.00    +0.000 S 
BRANCH  10  12
ATOM     12  N   UNL     1       2.571   4.650  18.584  0.00  0.00    +0.000 N 
BRANCH  12  13
ATOM     13  C   UNL     1       2.389   4.308  19.998  0.00  0.00    +0.000 C 
ATOM     14  C   UNL     1       0.941   4.179  20.449  0.00  0.00    +0.000 C 
ENDBRANCH  12  13
BRANCH  12  15
ATOM     15  C   UNL     1       2.121   3.717  17.545  0.00  0.00    +0.000 C 
ATOM     16  C   UNL     1       2.593   2.289  17.747  0.00  0.00    +0.000 C 
ENDBRANCH  12  15
ENDBRANCH  10  12
ENDBRANCH   9  10
ENDBRANCH   1   9
TORSDOF 11
ENDMDL
MODEL 5
REMARK VINA RESULT:      -5.0      2.772      6.673
REMARK  Name = 
REMARK  14 active torsions:
REMARK  status: ('A' for Active; 'I' for Inactive)
REMARK    1  A    between atoms: C_1  and  C_2
REMARK    2  A    between atoms: C_2  and  C_3
REMARK    3  A    between atoms: C_3  and  C_4
REMARK    4  A    between atoms: C_4  and  C_5
REMARK    5  A    between atoms: C_5  and  C_6
REMARK    6  A    between atoms: C_6  and  C_7
REMARK    7  A    between atoms: C_7  and  S_8
REMARK    8  A    between atoms: S_8  and  S_9
REMARK    9  A    between atoms: S_9  and  C_10
REMARK   10  A    between atoms: C_10  and  N_12
REMARK   11  A    between atoms: N_12  and  C_13
REMARK   12  A    between atoms: N_12  and  C_15
REMARK   13  A    between atoms: C_13  and  C_14
REMARK   14  A    between atoms: C_15  and  C_16
REMARK                            x       y       z     vdW  Elec       q    Type
REMARK                         _______ _______ _______ _____ _____    ______ ____
ROOT
ATOM      1  S   UNL     1       5.266   4.259  18.976  0.00  0.00    +0.000 S 
ENDROOT
BRANCH   1   2
ATOM      2  C   UNL     1       4.550   3.249  17.636  0.00  0.00    +0.000 C 
BRANCH   2   3
ATOM      3  C   UNL     1       3.455   2.355  18.211  0.00  0.00    +0.000 C 
BRANCH   3   4
ATOM      4  C   UNL     1       2.072   2.747  17.685  0.00  0.00    +0.000 C 
BRANCH   4   5
ATOM      5  C   UNL     1       0.984   2.337  18.679  0.00  0.00    +0.000 C 
BRANCH   5   6
ATOM      6  C   UNL     1       0.819   3.368  19.794  0.00  0.00    +0.000 C 
BRANCH   6   8
ATOM      7  C   UNL     1       2.375   3.668  21.750  0.00  0.00    +0.000 C 
ATOM      8  C   UNL     1       1.284   2.805  21.137  0.00  0.00    +0.000 C 
ENDBRANCH   6   8
ENDBRANCH   5   6
ENDBRANCH   4   5
ENDBRANCH   3   4
ENDBRANCH   2   3
ENDBRANCH   1   2
BRANCH   1   9
ATOM      9  S   UNL     1       7.156   4.668  18.269  0.00  0.00    +0.000 S 
BRANCH   9  10
ATOM     10  C   UNL     1       7.028   6.130  17.274  0.00  0.00    +0.000 C 
ATOM     11  S   UNL     1       7.603   7.661  17.645  0.00  0.00    +0.000 S 
BRANCH  10  12
ATOM     12  N   UNL     1       6.333   5.877  16.084  0.00  0.00    +0.000 N 
BRANCH  12  13
ATOM     13  C   UNL     1       5.062   6.553  15.809  0.00  0.00    +0.000 C 
ATOM     14  C   UNL     1       4.254   6.935  17.041  0.00  0.00    +0.000 C 
ENDBRANCH  12  13
BRANCH  12  15
ATOM     15  C   UNL     1       6.896   4.952  15.092  0.00  0.00    +0.000 C 
ATOM     16  C   UNL     1       5.857   4.135  14.347  0.00  0.00    +0.000 C 
ENDBRANCH  12  15
ENDBRANCH  10  12
ENDBRANCH   9  10
ENDBRANCH   1   9
TORSDOF 11
ENDMDL
MODEL 6
REMARK VINA RESULT:      -5.0      2.318      3.373
REMARK  Name = 
REMARK  14 active torsions:
REMARK  status: ('A' for Active; 'I' for Inactive)
REMARK    1  A    between atoms: C_1  and  C_2
REMARK    2  A    between atoms: C_2  and  C_3
REMARK    3  A    between atoms: C_3  and  C_4
REMARK    4  A    between atoms: C_4  and  C_5
REMARK    5  A    between atoms: C_5  and  C_6
REMARK    6  A    between atoms: C_6  and  C_7
REMARK    7  A    between atoms: C_7  and  S_8
REMARK    8  A    between atoms: S_8  and  S_9
REMARK    9  A    between atoms: S_9  and  C_10
REMARK   10  A    between atoms: C_10  and  N_12
REMARK   11  A    between atoms: N_12  and  C_13
REMARK   12  A    between atoms: N_12  and  C_15
REMARK   13  A    between atoms: C_13  and  C_14
REMARK   14  A    between atoms: C_15  and  C_16
REMARK                            x       y       z     vdW  Elec       q    Type
REMARK                         _______ _______ _______ _____ _____    ______ ____
ROOT
ATOM      1  S   UNL     1       5.203   4.764  14.965  0.00  0.00    +0.000 S 
ENDROOT
BRANCH   1   2
ATOM      2  C   UNL     1       6.863   4.804  14.207  0.00  0.00    +0.000 C 
BRANCH   2   3
ATOM      3  C   UNL     1       6.818   4.085  12.862  0.00  0.00    +0.000 C 
BRANCH   3   4
ATOM      4  C   UNL     1       5.556   3.229  12.722  0.00  0.00    +0.000 C 
BRANCH   4   5
ATOM      5  C   UNL     1       5.074   3.218  11.270  0.00  0.00    +0.000 C 
BRANCH   5   6
ATOM      6  C   UNL     1       3.614   3.655  11.157  0.00  0.00    +0.000 C 
BRANCH   6   8
ATOM      7  C   UNL     1       2.390   4.764   9.259  0.00  0.00    +0.000 C 
ATOM      8  C   UNL     1       3.105   3.506   9.723  0.00  0.00    +0.000 C 
ENDBRANCH   6   8
ENDBRANCH   5   6
ENDBRANCH   4   5
ENDBRANCH   3   4
ENDBRANCH   2   3
ENDBRANCH   1   2
BRANCH   1   9
ATOM      9  S   UNL     1       5.257   6.372  16.250  0.00  0.00    +0.000 S 
BRANCH   9  10
ATOM     10  C   UNL     1       4.526   5.836  17.774  0.00  0.00    +0.000 C 
ATOM     11  S   UNL     1       3.158   6.461  18.515  0.00  0.00    +0.000 S 
BRANCH  10  12
ATOM     12  N   UNL     1       5.261   4.792  18.351  0.00  0.00    +0.000 N 
BRANCH  12  13
ATOM     13  C   UNL     1       4.573   3.675  19.005  0.00  0.00    +0.000 C 
ATOM     14  C   UNL     1       3.904   2.686  18.060  0.00  0.00    +0.000 C 
ENDBRANCH  12  13
BRANCH  12  15
ATOM     15  C   UNL     1       6.727   4.801  18.275  0.00  0.00    +0.000 C 
ATOM     16  C   UNL     1       7.398   5.642  19.345  0.00  0.00    +0.000 C 
ENDBRANCH  12  15
ENDBRANCH  10  12
ENDBRANCH   9  10
ENDBRANCH   1   9
TORSDOF 11
ENDMDL
MODEL 7
REMARK VINA RESULT:      -4.8      1.931      2.284
REMARK  Name = 
REMARK  14 active torsions:
REMARK  status: ('A' for Active; 'I' for Inactive)
REMARK    1  A    between atoms: C_1  and  C_2
REMARK    2  A    between atoms: C_2  and  C_3
REMARK    3  A    between atoms: C_3  and  C_4
REMARK    4  A    between atoms: C_4  and  C_5
REMARK    5  A    between atoms: C_5  and  C_6
REMARK    6  A    between atoms: C_6  and  C_7
REMARK    7  A    between atoms: C_7  and  S_8
REMARK    8  A    between atoms: S_8  and  S_9
REMARK    9  A    between atoms: S_9  and  C_10
REMARK   10  A    between atoms: C_10  and  N_12
REMARK   11  A    between atoms: N_12  and  C_13
REMARK   12  A    between atoms: N_12  and  C_15
REMARK   13  A    between atoms: C_13  and  C_14
REMARK   14  A    between atoms: C_15  and  C_16
REMARK                            x       y       z     vdW  Elec       q    Type
REMARK                         _______ _______ _______ _____ _____    ______ ____
ROOT
ATOM      1  S   UNL     1       7.069   4.518  17.012  0.00  0.00    +0.000 S 
ENDROOT
BRANCH   1   2
ATOM      2  C   UNL     1       5.686   3.909  15.990  0.00  0.00    +0.000 C 
BRANCH   2   3
ATOM      3  C   UNL     1       5.664   4.672  14.669  0.00  0.00    +0.000 C 
BRANCH   3   4
ATOM      4  C   UNL     1       7.073   4.851  14.098  0.00  0.00    +0.000 C 
BRANCH   4   5
ATOM      5  C   UNL     1       7.094   4.515  12.605  0.00  0.00    +0.000 C 
BRANCH   5   6
ATOM      6  C   UNL     1       6.252   3.279  12.293  0.00  0.00    +0.000 C 
BRANCH   6   8
ATOM      7  C   UNL     1       6.211   1.046  11.134  0.00  0.00    +0.000 C 
ATOM      8  C   UNL     1       6.994   2.330  11.353  0.00  0.00    +0.000 C 
ENDBRANCH   6   8
ENDBRANCH   5   6
ENDBRANCH   4   5
ENDBRANCH   3   4
ENDBRANCH   2   3
ENDBRANCH   1   2
BRANCH   1   9
ATOM      9  S   UNL     1       6.103   5.564  18.500  0.00  0.00    +0.000 S 
BRANCH   9  10
ATOM     10  C   UNL     1       4.594   4.696  18.840  0.00  0.00    +0.000 C 
ATOM     11  S   UNL     1       4.434   3.117  19.381  0.00  0.00    +0.000 S 
BRANCH  10  12
ATOM     12  N   UNL     1       3.475   5.497  18.573  0.00  0.00    +0.000 N 
BRANCH  12  13
ATOM     13  C   UNL     1       3.618   6.740  17.810  0.00  0.00    +0.000 C 
ATOM     14  C   UNL     1       2.538   7.781  18.063  0.00  0.00    +0.000 C 
ENDBRANCH  12  13
BRANCH  12  15
ATOM     15  C   UNL     1       2.147   5.074  19.034  0.00  0.00    +0.000 C 
ATOM     16  C   UNL     1       1.881   5.357  20.501  0.00  0.00    +0.000 C 
ENDBRANCH  12  15
ENDBRANCH  10  12
ENDBRANCH   9  10
ENDBRANCH   1   9
TORSDOF 11
ENDMDL
MODEL 8
REMARK VINA RESULT:      -4.8      1.419      2.166
REMARK  Name = 
REMARK  14 active torsions:
REMARK  status: ('A' for Active; 'I' for Inactive)
REMARK    1  A    between atoms: C_1  and  C_2
REMARK    2  A    between atoms: C_2  and  C_3
REMARK    3  A    between atoms: C_3  and  C_4
REMARK    4  A    between atoms: C_4  and  C_5
REMARK    5  A    between atoms: C_5  and  C_6
REMARK    6  A    between atoms: C_6  and  C_7
REMARK    7  A    between atoms: C_7  and  S_8
REMARK    8  A    between atoms: S_8  and  S_9
REMARK    9  A    between atoms: S_9  and  C_10
REMARK   10  A    between atoms: C_10  and  N_12
REMARK   11  A    between atoms: N_12  and  C_13
REMARK   12  A    between atoms: N_12  and  C_15
REMARK   13  A    between atoms: C_13  and  C_14
REMARK   14  A    between atoms: C_15  and  C_16
REMARK                            x       y       z     vdW  Elec       q    Type
REMARK                         _______ _______ _______ _____ _____    ______ ____
ROOT
ATOM      1  S   UNL     1       6.005   5.306  18.073  0.00  0.00    +0.000 S 
ENDROOT
BRANCH   1   2
ATOM      2  C   UNL     1       6.984   5.089  16.549  0.00  0.00    +0.000 C 
BRANCH   2   3
ATOM      3  C   UNL     1       6.043   5.054  15.348  0.00  0.00    +0.000 C 
BRANCH   3   4
ATOM      4  C   UNL     1       6.778   4.649  14.068  0.00  0.00    +0.000 C 
BRANCH   4   5
ATOM      5  C   UNL     1       6.046   3.501  13.370  0.00  0.00    +0.000 C 
BRANCH   5   6
ATOM      6  C   UNL     1       5.288   3.983  12.133  0.00  0.00    +0.000 C 
BRANCH   6   8
ATOM      7  C   UNL     1       3.406   3.278  10.619  0.00  0.00    +0.000 C 
ATOM      8  C   UNL     1       4.621   2.816  11.407  0.00  0.00    +0.000 C 
ENDBRANCH   6   8
ENDBRANCH   5   6
ENDBRANCH   4   5
ENDBRANCH   3   4
ENDBRANCH   2   3
ENDBRANCH   1   2
BRANCH   1   9
ATOM      9  S   UNL     1       4.071   5.093  17.398  0.00  0.00    +0.000 S 
BRANCH   9  10
ATOM     10  C   UNL     1       3.036   4.982  18.833  0.00  0.00    +0.000 C 
ATOM     11  S   UNL     1       2.442   6.251  19.755  0.00  0.00    +0.000 S 
BRANCH  10  12
ATOM     12  N   UNL     1       2.763   3.647  19.162  0.00  0.00    +0.000 N 
BRANCH  12  13
ATOM     13  C   UNL     1       3.773   2.608  18.942  0.00  0.00    +0.000 C 
ATOM     14  C   UNL     1       4.479   2.118  20.198  0.00  0.00    +0.000 C 
ENDBRANCH  12  13
BRANCH  12  15
ATOM     15  C   UNL     1       1.469   3.291  19.758  0.00  0.00    +0.000 C 
ATOM     16  C   UNL     1       0.599   2.416  18.875  0.00  0.00    +0.000 C 
ENDBRANCH  12  15
ENDBRANCH  10  12
ENDBRANCH   9  10
ENDBRANCH   1   9
TORSDOF 11
ENDMDL
MODEL 9
REMARK VINA RESULT:      -4.8      1.566      2.424
REMARK  Name = 
REMARK  14 active torsions:
REMARK  status: ('A' for Active; 'I' for Inactive)
REMARK    1  A    between atoms: C_1  and  C_2
REMARK    2  A    between atoms: C_2  and  C_3
REMARK    3  A    between atoms: C_3  and  C_4
REMARK    4  A    between atoms: C_4  and  C_5
REMARK    5  A    between atoms: C_5  and  C_6
REMARK    6  A    between atoms: C_6  and  C_7
REMARK    7  A    between atoms: C_7  and  S_8
REMARK    8  A    between atoms: S_8  and  S_9
REMARK    9  A    between atoms: S_9  and  C_10
REMARK   10  A    between atoms: C_10  and  N_12
REMARK   11  A    between atoms: N_12  and  C_13
REMARK   12  A    between atoms: N_12  and  C_15
REMARK   13  A    between atoms: C_13  and  C_14
REMARK   14  A    between atoms: C_15  and  C_16
REMARK                            x       y       z     vdW  Elec       q    Type
REMARK                         _______ _______ _______ _____ _____    ______ ____
ROOT
ATOM      1  S   UNL     1       5.951   6.282  17.543  0.00  0.00    +0.000 S 
ENDROOT
BRANCH   1   2
ATOM      2  C   UNL     1       6.922   5.210  16.432  0.00  0.00    +0.000 C 
BRANCH   2   3
ATOM      3  C   UNL     1       6.049   4.049  15.965  0.00  0.00    +0.000 C 
BRANCH   3   4
ATOM      4  C   UNL     1       5.452   4.312  14.580  0.00  0.00    +0.000 C 
BRANCH   4   5
ATOM      5  C   UNL     1       6.514   4.126  13.494  0.00  0.00    +0.000 C 
BRANCH   5   6
ATOM      6  C   UNL     1       6.194   2.936  12.590  0.00  0.00    +0.000 C 
BRANCH   6   8
ATOM      7  C   UNL     1       3.992   3.165  11.393  0.00  0.00    +0.000 C 
ATOM      8  C   UNL     1       5.493   3.391  11.310  0.00  0.00    +0.000 C 
ENDBRANCH   6   8
ENDBRANCH   5   6
ENDBRANCH   4   5
ENDBRANCH   3   4
ENDBRANCH   2   3
ENDBRANCH   1   2
BRANCH   1   9
ATOM      9  S   UNL     1       5.006   4.921  18.767  0.00  0.00    +0.000 S 
BRANCH   9  10
ATOM     10  C   UNL     1       3.316   5.442  18.905  0.00  0.00    +0.000 C 
ATOM     11  S   UNL     1       2.697   6.967  18.584  0.00  0.00    +0.000 S 
BRANCH  10  12
ATOM     12  N   UNL     1       2.498   4.399  19.360  0.00  0.00    +0.000 N 
BRANCH  12  13
ATOM     13  C   UNL     1       2.472   4.044  20.782  0.00  0.00    +0.000 C 
ATOM     14  C   UNL     1       1.417   3.019  21.173  0.00  0.00    +0.000 C 
ENDBRANCH  12  13
BRANCH  12  15
ATOM     15  C   UNL     1       1.639   3.677  18.413  0.00  0.00    +0.000 C 
ATOM     16  C   UNL     1       2.357   2.601  17.621  0.00  0.00    +0.000 C 
ENDBRANCH  12  15
ENDBRANCH  10  12
ENDBRANCH   9  10
ENDBRANCH   1   9
TORSDOF 11
ENDMDL
