MODEL 1
REMARK VINA RESULT:      -7.4      0.000      0.000
REMARK  Name = 
REMARK  4 active torsions:
REMARK  status: ('A' for Active; 'I' for Inactive)
REMARK    1  A    between atoms: C_4  and  C_5
REMARK    2  A    between atoms: N_14  and  C_15
REMARK    3  A    between atoms: N_21  and  C_22
REMARK    4  A    between atoms: C_22  and  C_23
REMARK                            x       y       z     vdW  Elec       q    Type
REMARK                         _______ _______ _______ _____ _____    ______ ____
ROOT
ATOM      1  O   UNL     1       5.330   7.725  16.503  0.00  0.00    +0.000 OA
ATOM      2  C   UNL     1       4.655   7.050  17.263  0.00  0.00    +0.000 C 
ATOM      3  C   UNL     1       3.422   7.559  17.929  0.00  0.00    +0.000 C 
ATOM      4  C   UNL     1       2.822   8.716  17.621  0.00  0.00    +0.000 C 
ATOM      5  S   UNL     1       2.899   6.426  19.104  0.00  0.00    +0.000 S 
ATOM      6  C   UNL     1       3.994   5.185  18.527  0.00  0.00    +0.000 C 
ATOM      7  N   UNL     1       3.993   3.925  18.841  0.00  0.00    +0.000 NA
ATOM      8  N   UNL     1       4.897   5.746  17.656  0.00  0.00    +0.000 N 
ENDROOT
BRANCH   4   9
ATOM      9  C   UNL     1       1.574   9.177  18.249  0.00  0.00    +0.000 A 
ATOM     10  C   UNL     1       0.453   9.474  17.460  0.00  0.00    +0.000 A 
ATOM     11  C   UNL     1      -0.704   9.992  18.046  0.00  0.00    +0.000 A 
ATOM     12  C   UNL     1      -0.752  10.215  19.423  0.00  0.00    +0.000 A 
ATOM     13  C   UNL     1       0.361   9.916  20.208  0.00  0.00    +0.000 A 
ATOM     14 CL   UNL     1       0.307  10.205  21.904  0.00  0.00    +0.000 Cl
ATOM     15  C   UNL     1       1.520   9.398  19.627  0.00  0.00    +0.000 A 
ENDBRANCH   4   9
BRANCH   7  16
ATOM     16  C   UNL     1       2.999   3.364  19.670  0.00  0.00    +0.000 A 
ATOM     17  C   UNL     1       1.736   2.985  19.193  0.00  0.00    +0.000 A 
ATOM     18  C   UNL     1       0.753   2.480  20.048  0.00  0.00    +0.000 A 
ATOM     19  C   UNL     1       1.053   2.257  21.386  0.00  0.00    +0.000 A 
ATOM     20  C   UNL     1       2.332   2.538  21.862  0.00  0.00    +0.000 A 
ATOM     21  C   UNL     1       3.296   3.098  21.010  0.00  0.00    +0.000 A 
ENDBRANCH   7  16
BRANCH   8  22
ATOM     22  C   UNL     1       6.120   5.076  17.252  0.00  0.00    +0.000 C 
BRANCH  22  23
ATOM     23  C   UNL     1       6.179   4.787  15.792  0.00  0.00    +0.000 A 
ATOM     24  C   UNL     1       5.446   3.983  14.941  0.00  0.00    +0.000 A 
ATOM     25  C   UNL     1       6.119   4.003  13.693  0.00  0.00    +0.000 A 
ATOM     26  C   UNL     1       7.202   4.833  13.852  0.00  0.00    +0.000 A 
ATOM     27  O   UNL     1       7.246   5.313  15.119  0.00  0.00    +0.000 OA
ENDBRANCH  22  23
ENDBRANCH   8  22
TORSDOF 4
ENDMDL
MODEL 2
REMARK VINA RESULT:      -7.4      1.050      1.399
REMARK  Name = 
REMARK  4 active torsions:
REMARK  status: ('A' for Active; 'I' for Inactive)
REMARK    1  A    between atoms: C_4  and  C_5
REMARK    2  A    between atoms: N_14  and  C_15
REMARK    3  A    between atoms: N_21  and  C_22
REMARK    4  A    between atoms: C_22  and  C_23
REMARK                            x       y       z     vdW  Elec       q    Type
REMARK                         _______ _______ _______ _____ _____    ______ ____
ROOT
ATOM      1  O   UNL     1       5.471   7.602  16.378  0.00  0.00    +0.000 OA
ATOM      2  C   UNL     1       4.777   6.964  17.152  0.00  0.00    +0.000 C 
ATOM      3  C   UNL     1       3.566   7.527  17.816  0.00  0.00    +0.000 C 
ATOM      4  C   UNL     1       3.005   8.699  17.492  0.00  0.00    +0.000 C 
ATOM      5  S   UNL     1       3.011   6.432  19.012  0.00  0.00    +0.000 S 
ATOM      6  C   UNL     1       4.058   5.143  18.450  0.00  0.00    +0.000 C 
ATOM      7  N   UNL     1       4.015   3.890  18.785  0.00  0.00    +0.000 NA
ATOM      8  N   UNL     1       4.976   5.658  17.565  0.00  0.00    +0.000 N 
ENDROOT
BRANCH   4   9
ATOM      9  C   UNL     1       1.778   9.213  18.119  0.00  0.00    +0.000 A 
ATOM     10  C   UNL     1       1.761   9.528  19.486  0.00  0.00    +0.000 A 
ATOM     11  C   UNL     1       0.575   9.936  20.100  0.00  0.00    +0.000 A 
ATOM     12  C   UNL     1      -0.602  10.036  19.355  0.00  0.00    +0.000 A 
ATOM     13  C   UNL     1      -0.583   9.728  17.995  0.00  0.00    +0.000 A 
ATOM     14 CL   UNL     1      -2.036   9.836  17.079  0.00  0.00    +0.000 Cl
ATOM     15  C   UNL     1       0.600   9.319  17.376  0.00  0.00    +0.000 A 
ENDBRANCH   4   9
BRANCH   7  16
ATOM     16  C   UNL     1       3.007   3.378  19.628  0.00  0.00    +0.000 A 
ATOM     17  C   UNL     1       1.729   3.035  19.164  0.00  0.00    +0.000 A 
ATOM     18  C   UNL     1       0.734   2.579  20.032  0.00  0.00    +0.000 A 
ATOM     19  C   UNL     1       1.033   2.367  21.372  0.00  0.00    +0.000 A 
ATOM     20  C   UNL     1       2.324   2.611  21.837  0.00  0.00    +0.000 A 
ATOM     21  C   UNL     1       3.302   3.123  20.971  0.00  0.00    +0.000 A 
ENDBRANCH   7  16
BRANCH   8  22
ATOM     22  C   UNL     1       6.172   4.940  17.166  0.00  0.00    +0.000 C 
BRANCH  22  23
ATOM     23  C   UNL     1       6.270   4.730  15.695  0.00  0.00    +0.000 A 
ATOM     24  C   UNL     1       5.555   3.983  14.780  0.00  0.00    +0.000 A 
ATOM     25  C   UNL     1       6.263   4.063  13.554  0.00  0.00    +0.000 A 
ATOM     26  C   UNL     1       7.349   4.872  13.790  0.00  0.00    +0.000 A 
ATOM     27  O   UNL     1       7.361   5.281  15.082  0.00  0.00    +0.000 OA
ENDBRANCH  22  23
ENDBRANCH   8  22
TORSDOF 4
ENDMDL
MODEL 3
REMARK VINA RESULT:      -7.0      5.170      8.661
REMARK  Name = 
REMARK  4 active torsions:
REMARK  status: ('A' for Active; 'I' for Inactive)
REMARK    1  A    between atoms: C_4  and  C_5
REMARK    2  A    between atoms: N_14  and  C_15
REMARK    3  A    between atoms: N_21  and  C_22
REMARK    4  A    between atoms: C_22  and  C_23
REMARK                            x       y       z     vdW  Elec       q    Type
REMARK                         _______ _______ _______ _____ _____    ______ ____
ROOT
ATOM      1  O   UNL     1      -1.107   9.540  17.041  0.00  0.00    +0.000 OA
ATOM      2  C   UNL     1      -1.312  10.312  17.963  0.00  0.00    +0.000 C 
ATOM      3  C   UNL     1      -2.632  10.961  18.205  0.00  0.00    +0.000 C 
ATOM      4  C   UNL     1      -3.765  10.624  17.575  0.00  0.00    +0.000 C 
ATOM      5  S   UNL     1      -2.464  12.161  19.418  0.00  0.00    +0.000 S 
ATOM      6  C   UNL     1      -0.858  11.617  19.862  0.00  0.00    +0.000 C 
ATOM      7  N   UNL     1      -0.170  11.961  20.908  0.00  0.00    +0.000 NA
ATOM      8  N   UNL     1      -0.398  10.737  18.911  0.00  0.00    +0.000 N 
ENDROOT
BRANCH   4   9
ATOM      9  C   UNL     1      -5.071  11.236  17.867  0.00  0.00    +0.000 A 
ATOM     10  C   UNL     1      -5.541  12.302  17.086  0.00  0.00    +0.000 A 
ATOM     11  C   UNL     1      -6.741  12.938  17.413  0.00  0.00    +0.000 A 
ATOM     12  C   UNL     1      -7.480  12.515  18.519  0.00  0.00    +0.000 A 
ATOM     13  C   UNL     1      -7.013  11.452  19.292  0.00  0.00    +0.000 A 
ATOM     14 CL   UNL     1      -7.916  10.940  20.665  0.00  0.00    +0.000 Cl
ATOM     15  C   UNL     1      -5.815  10.812  18.969  0.00  0.00    +0.000 A 
ENDBRANCH   4   9
BRANCH   7  16
ATOM     16  C   UNL     1      -0.705  12.798  21.909  0.00  0.00    +0.000 A 
ATOM     17  C   UNL     1      -1.616  12.345  22.874  0.00  0.00    +0.000 A 
ATOM     18  C   UNL     1      -2.168  13.210  23.821  0.00  0.00    +0.000 A 
ATOM     19  C   UNL     1      -1.743  14.531  23.878  0.00  0.00    +0.000 A 
ATOM     20  C   UNL     1      -0.768  14.980  22.990  0.00  0.00    +0.000 A 
ATOM     21  C   UNL     1      -0.260  14.120  22.005  0.00  0.00    +0.000 A 
ENDBRANCH   7  16
BRANCH   8  22
ATOM     22  C   UNL     1       0.998  10.353  18.803  0.00  0.00    +0.000 C 
BRANCH  22  23
ATOM     23  C   UNL     1       1.301   9.046  19.447  0.00  0.00    +0.000 A 
ATOM     24  C   UNL     1       1.113   8.531  20.715  0.00  0.00    +0.000 A 
ATOM     25  C   UNL     1       1.788   7.284  20.746  0.00  0.00    +0.000 A 
ATOM     26  C   UNL     1       2.322   7.105  19.493  0.00  0.00    +0.000 A 
ATOM     27  O   UNL     1       2.033   8.165  18.700  0.00  0.00    +0.000 OA
ENDBRANCH  22  23
ENDBRANCH   8  22
TORSDOF 4
ENDMDL
MODEL 4
REMARK VINA RESULT:      -6.9      5.320      8.804
REMARK  Name = 
REMARK  4 active torsions:
REMARK  status: ('A' for Active; 'I' for Inactive)
REMARK    1  A    between atoms: C_4  and  C_5
REMARK    2  A    between atoms: N_14  and  C_15
REMARK    3  A    between atoms: N_21  and  C_22
REMARK    4  A    between atoms: C_22  and  C_23
REMARK                            x       y       z     vdW  Elec       q    Type
REMARK                         _______ _______ _______ _____ _____    ______ ____
ROOT
ATOM      1  O   UNL     1      -1.148   9.553  17.087  0.00  0.00    +0.000 OA
ATOM      2  C   UNL     1      -1.319  10.342  18.001  0.00  0.00    +0.000 C 
ATOM      3  C   UNL     1      -2.617  11.032  18.250  0.00  0.00    +0.000 C 
ATOM      4  C   UNL     1      -3.766  10.721  17.637  0.00  0.00    +0.000 C 
ATOM      5  S   UNL     1      -2.400  12.240  19.447  0.00  0.00    +0.000 S 
ATOM      6  C   UNL     1      -0.805  11.655  19.880  0.00  0.00    +0.000 C 
ATOM      7  N   UNL     1      -0.096  11.990  20.914  0.00  0.00    +0.000 NA
ATOM      8  N   UNL     1      -0.382  10.750  18.934  0.00  0.00    +0.000 N 
ENDROOT
BRANCH   4   9
ATOM      9  C   UNL     1      -5.050  11.375  17.935  0.00  0.00    +0.000 A 
ATOM     10  C   UNL     1      -5.879  10.874  18.950  0.00  0.00    +0.000 A 
ATOM     11  C   UNL     1      -7.134  11.442  19.178  0.00  0.00    +0.000 A 
ATOM     12  C   UNL     1      -7.571  12.513  18.396  0.00  0.00    +0.000 A 
ATOM     13  C   UNL     1      -6.745  13.013  17.391  0.00  0.00    +0.000 A 
ATOM     14 CL   UNL     1      -7.289  14.324  16.417  0.00  0.00    +0.000 Cl
ATOM     15  C   UNL     1      -5.488  12.450  17.159  0.00  0.00    +0.000 A 
ENDBRANCH   4   9
BRANCH   7  16
ATOM     16  C   UNL     1      -0.595  12.855  21.910  0.00  0.00    +0.000 A 
ATOM     17  C   UNL     1      -1.492  12.435  22.903  0.00  0.00    +0.000 A 
ATOM     18  C   UNL     1      -2.009  13.327  23.845  0.00  0.00    +0.000 A 
ATOM     19  C   UNL     1      -1.560  14.641  23.869  0.00  0.00    +0.000 A 
ATOM     20  C   UNL     1      -0.597  15.057  22.952  0.00  0.00    +0.000 A 
ATOM     21  C   UNL     1      -0.125  14.171  21.972  0.00  0.00    +0.000 A 
ENDBRANCH   7  16
BRANCH   8  22
ATOM     22  C   UNL     1       1.001  10.325  18.816  0.00  0.00    +0.000 C 
BRANCH  22  23
ATOM     23  C   UNL     1       1.276   9.024  19.486  0.00  0.00    +0.000 A 
ATOM     24  C   UNL     1       1.022   8.518  20.746  0.00  0.00    +0.000 A 
ATOM     25  C   UNL     1       1.701   7.276  20.824  0.00  0.00    +0.000 A 
ATOM     26  C   UNL     1       2.305   7.091  19.604  0.00  0.00    +0.000 A 
ATOM     27  O   UNL     1       2.053   8.142  18.787  0.00  0.00    +0.000 OA
ENDBRANCH  22  23
ENDBRANCH   8  22
TORSDOF 4
ENDMDL
MODEL 5
REMARK VINA RESULT:      -6.9      2.808      5.078
REMARK  Name = 
REMARK  4 active torsions:
REMARK  status: ('A' for Active; 'I' for Inactive)
REMARK    1  A    between atoms: C_4  and  C_5
REMARK    2  A    between atoms: N_14  and  C_15
REMARK    3  A    between atoms: N_21  and  C_22
REMARK    4  A    between atoms: C_22  and  C_23
REMARK                            x       y       z     vdW  Elec       q    Type
REMARK                         _______ _______ _______ _____ _____    ______ ____
ROOT
ATOM      1  O   UNL     1       4.284   4.213  16.929  0.00  0.00    +0.000 OA
ATOM      2  C   UNL     1       4.821   5.282  17.172  0.00  0.00    +0.000 C 
ATOM      3  C   UNL     1       4.079   6.470  17.682  0.00  0.00    +0.000 C 
ATOM      4  C   UNL     1       2.810   6.439  18.109  0.00  0.00    +0.000 C 
ATOM      5  S   UNL     1       5.109   7.839  17.658  0.00  0.00    +0.000 S 
ATOM      6  C   UNL     1       6.539   6.873  17.353  0.00  0.00    +0.000 C 
ATOM      7  N   UNL     1       7.778   7.254  17.423  0.00  0.00    +0.000 NA
ATOM      8  N   UNL     1       6.159   5.596  17.012  0.00  0.00    +0.000 N 
ENDROOT
BRANCH   4   9
ATOM      9  C   UNL     1       2.110   7.610  18.662  0.00  0.00    +0.000 A 
ATOM     10  C   UNL     1       1.746   8.675  17.826  0.00  0.00    +0.000 A 
ATOM     11  C   UNL     1       1.157   9.822  18.363  0.00  0.00    +0.000 A 
ATOM     12  C   UNL     1       0.925   9.914  19.737  0.00  0.00    +0.000 A 
ATOM     13  C   UNL     1       1.283   8.852  20.566  0.00  0.00    +0.000 A 
ATOM     14 CL   UNL     1       1.012   8.970  22.262  0.00  0.00    +0.000 Cl
ATOM     15  C   UNL     1       1.872   7.703  20.035  0.00  0.00    +0.000 A 
ENDBRANCH   4   9
BRANCH   7  16
ATOM     16  C   UNL     1       8.136   8.546  17.860  0.00  0.00    +0.000 A 
ATOM     17  C   UNL     1       7.711   9.714  17.210  0.00  0.00    +0.000 A 
ATOM     18  C   UNL     1       8.125  10.979  17.634  0.00  0.00    +0.000 A 
ATOM     19  C   UNL     1       8.899  11.101  18.781  0.00  0.00    +0.000 A 
ATOM     20  C   UNL     1       9.255   9.960  19.498  0.00  0.00    +0.000 A 
ATOM     21  C   UNL     1       8.884   8.690  19.033  0.00  0.00    +0.000 A 
ENDBRANCH   7  16
BRANCH   8  22
ATOM     22  C   UNL     1       7.065   4.645  16.394  0.00  0.00    +0.000 C 
BRANCH  22  23
ATOM     23  C   UNL     1       6.947   4.599  14.910  0.00  0.00    +0.000 A 
ATOM     24  C   UNL     1       6.229   3.819  14.026  0.00  0.00    +0.000 A 
ATOM     25  C   UNL     1       6.695   4.150  12.728  0.00  0.00    +0.000 A 
ATOM     26  C   UNL     1       7.648   5.125  12.899  0.00  0.00    +0.000 A 
ATOM     27  O   UNL     1       7.807   5.404  14.216  0.00  0.00    +0.000 OA
ENDBRANCH  22  23
ENDBRANCH   8  22
TORSDOF 4
ENDMDL
MODEL 6
REMARK VINA RESULT:      -6.8      5.175      8.247
REMARK  Name = 
REMARK  4 active torsions:
REMARK  status: ('A' for Active; 'I' for Inactive)
REMARK    1  A    between atoms: C_4  and  C_5
REMARK    2  A    between atoms: N_14  and  C_15
REMARK    3  A    between atoms: N_21  and  C_22
REMARK    4  A    between atoms: C_22  and  C_23
REMARK                            x       y       z     vdW  Elec       q    Type
REMARK                         _______ _______ _______ _____ _____    ______ ____
ROOT
ATOM      1  O   UNL     1       1.844  11.891  21.263  0.00  0.00    +0.000 OA
ATOM      2  C   UNL     1       0.893  11.909  20.500  0.00  0.00    +0.000 C 
ATOM      3  C   UNL     1       0.285  13.169  19.984  0.00  0.00    +0.000 C 
ATOM      4  C   UNL     1       0.826  14.385  20.138  0.00  0.00    +0.000 C 
ATOM      5  S   UNL     1      -1.171  12.804  19.156  0.00  0.00    +0.000 S 
ATOM      6  C   UNL     1      -0.842  11.082  19.149  0.00  0.00    +0.000 C 
ATOM      7  N   UNL     1      -1.459  10.165  18.469  0.00  0.00    +0.000 NA
ATOM      8  N   UNL     1       0.206  10.817  19.999  0.00  0.00    +0.000 N 
ENDROOT
BRANCH   4   9
ATOM      9  C   UNL     1       0.243  15.612  19.574  0.00  0.00    +0.000 A 
ATOM     10  C   UNL     1      -1.019  16.054  19.999  0.00  0.00    +0.000 A 
ATOM     11  C   UNL     1      -1.610  17.171  19.405  0.00  0.00    +0.000 A 
ATOM     12  C   UNL     1      -0.947  17.856  18.384  0.00  0.00    +0.000 A 
ATOM     13  C   UNL     1       0.308  17.418  17.966  0.00  0.00    +0.000 A 
ATOM     14 CL   UNL     1       1.120  18.253  16.698  0.00  0.00    +0.000 Cl
ATOM     15  C   UNL     1       0.905  16.303  18.557  0.00  0.00    +0.000 A 
ENDBRANCH   4   9
BRANCH   7  16
ATOM     16  C   UNL     1      -2.472  10.480  17.541  0.00  0.00    +0.000 A 
ATOM     17  C   UNL     1      -2.321  10.299  16.158  0.00  0.00    +0.000 A 
ATOM     18  C   UNL     1      -3.323  10.669  15.258  0.00  0.00    +0.000 A 
ATOM     19  C   UNL     1      -4.538  11.142  15.737  0.00  0.00    +0.000 A 
ATOM     20  C   UNL     1      -4.746  11.241  17.111  0.00  0.00    +0.000 A 
ATOM     21  C   UNL     1      -3.715  10.921  18.006  0.00  0.00    +0.000 A 
ENDBRANCH   7  16
BRANCH   8  22
ATOM     22  C   UNL     1       0.520   9.479  20.467  0.00  0.00    +0.000 C 
BRANCH  22  23
ATOM     23  C   UNL     1       1.471   8.753  19.581  0.00  0.00    +0.000 A 
ATOM     24  C   UNL     1       1.909   8.937  18.285  0.00  0.00    +0.000 A 
ATOM     25  C   UNL     1       2.679   7.792  17.955  0.00  0.00    +0.000 A 
ATOM     26  C   UNL     1       2.683   6.996  19.075  0.00  0.00    +0.000 A 
ATOM     27  O   UNL     1       1.955   7.569  20.064  0.00  0.00    +0.000 OA
ENDBRANCH  22  23
ENDBRANCH   8  22
TORSDOF 4
ENDMDL
MODEL 7
REMARK VINA RESULT:      -6.8      4.620      8.765
REMARK  Name = 
REMARK  4 active torsions:
REMARK  status: ('A' for Active; 'I' for Inactive)
REMARK    1  A    between atoms: C_4  and  C_5
REMARK    2  A    between atoms: N_14  and  C_15
REMARK    3  A    between atoms: N_21  and  C_22
REMARK    4  A    between atoms: C_22  and  C_23
REMARK                            x       y       z     vdW  Elec       q    Type
REMARK                         _______ _______ _______ _____ _____    ______ ____
ROOT
ATOM      1  O   UNL     1       1.311   9.766  22.957  0.00  0.00    +0.000 OA
ATOM      2  C   UNL     1       0.773   9.750  21.862  0.00  0.00    +0.000 C 
ATOM      3  C   UNL     1       1.064   8.719  20.825  0.00  0.00    +0.000 C 
ATOM      4  C   UNL     1       1.780   7.610  21.046  0.00  0.00    +0.000 C 
ATOM      5  S   UNL     1       0.319   9.170  19.348  0.00  0.00    +0.000 S 
ATOM      6  C   UNL     1      -0.629  10.435  20.106  0.00  0.00    +0.000 C 
ATOM      7  N   UNL     1      -1.624  11.089  19.592  0.00  0.00    +0.000 NA
ATOM      8  N   UNL     1      -0.157  10.654  21.379  0.00  0.00    +0.000 N 
ENDROOT
BRANCH   4   9
ATOM      9  C   UNL     1       2.011   6.574  20.026  0.00  0.00    +0.000 A 
ATOM     10  C   UNL     1       2.739   6.876  18.865  0.00  0.00    +0.000 A 
ATOM     11  C   UNL     1       2.887   5.919  17.859  0.00  0.00    +0.000 A 
ATOM     12  C   UNL     1       2.312   4.655  18.003  0.00  0.00    +0.000 A 
ATOM     13  C   UNL     1       1.593   4.355  19.159  0.00  0.00    +0.000 A 
ATOM     14 CL   UNL     1       0.871   2.802  19.331  0.00  0.00    +0.000 Cl
ATOM     15  C   UNL     1       1.442   5.307  20.169  0.00  0.00    +0.000 A 
ENDBRANCH   4   9
BRANCH   7  16
ATOM     16  C   UNL     1      -2.139  10.780  18.315  0.00  0.00    +0.000 A 
ATOM     17  C   UNL     1      -2.899   9.630  18.060  0.00  0.00    +0.000 A 
ATOM     18  C   UNL     1      -3.352   9.323  16.775  0.00  0.00    +0.000 A 
ATOM     19  C   UNL     1      -3.131  10.218  15.735  0.00  0.00    +0.000 A 
ATOM     20  C   UNL     1      -2.460  11.413  15.985  0.00  0.00    +0.000 A 
ATOM     21  C   UNL     1      -1.959  11.687  17.266  0.00  0.00    +0.000 A 
ENDBRANCH   7  16
BRANCH   8  22
ATOM     22  C   UNL     1      -0.499  11.834  22.152  0.00  0.00    +0.000 C 
BRANCH  22  23
ATOM     23  C   UNL     1       0.106  13.085  21.617  0.00  0.00    +0.000 A 
ATOM     24  C   UNL     1      -0.406  14.234  21.049  0.00  0.00    +0.000 A 
ATOM     25  C   UNL     1       0.705  14.978  20.577  0.00  0.00    +0.000 A 
ATOM     26  C   UNL     1       1.823  14.250  20.907  0.00  0.00    +0.000 A 
ATOM     27  O   UNL     1       1.471  13.103  21.538  0.00  0.00    +0.000 OA
ENDBRANCH  22  23
ENDBRANCH   8  22
TORSDOF 4
ENDMDL
MODEL 8
REMARK VINA RESULT:      -6.8      1.377      1.870
REMARK  Name = 
REMARK  4 active torsions:
REMARK  status: ('A' for Active; 'I' for Inactive)
REMARK    1  A    between atoms: C_4  and  C_5
REMARK    2  A    between atoms: N_14  and  C_15
REMARK    3  A    between atoms: N_21  and  C_22
REMARK    4  A    between atoms: C_22  and  C_23
REMARK                            x       y       z     vdW  Elec       q    Type
REMARK                         _______ _______ _______ _____ _____    ______ ____
ROOT
ATOM      1  O   UNL     1       4.260   8.031  16.088  0.00  0.00    +0.000 OA
ATOM      2  C   UNL     1       3.778   7.334  16.966  0.00  0.00    +0.000 C 
ATOM      3  C   UNL     1       2.751   7.827  17.926  0.00  0.00    +0.000 C 
ATOM      4  C   UNL     1       2.112   8.999  17.811  0.00  0.00    +0.000 C 
ATOM      5  S   UNL     1       2.510   6.656  19.155  0.00  0.00    +0.000 S 
ATOM      6  C   UNL     1       3.413   5.429  18.289  0.00  0.00    +0.000 C 
ATOM      7  N   UNL     1       3.468   4.159  18.552  0.00  0.00    +0.000 NA
ATOM      8  N   UNL     1       4.088   6.014  17.244  0.00  0.00    +0.000 N 
ENDROOT
BRANCH   4   9
ATOM      9  C   UNL     1       1.060   9.446  18.738  0.00  0.00    +0.000 A 
ATOM     10  C   UNL     1      -0.071  10.118  18.251  0.00  0.00    +0.000 A 
ATOM     11  C   UNL     1      -1.029  10.616  19.137  0.00  0.00    +0.000 A 
ATOM     12  C   UNL     1      -0.866  10.448  20.513  0.00  0.00    +0.000 A 
ATOM     13  C   UNL     1       0.256   9.776  20.995  0.00  0.00    +0.000 A 
ATOM     14 CL   UNL     1       0.465   9.580  22.693  0.00  0.00    +0.000 Cl
ATOM     15  C   UNL     1       1.217   9.275  20.115  0.00  0.00    +0.000 A 
ENDBRANCH   4   9
BRANCH   7  16
ATOM     16  C   UNL     1       2.695   3.576  19.578  0.00  0.00    +0.000 A 
ATOM     17  C   UNL     1       1.308   3.395  19.476  0.00  0.00    +0.000 A 
ATOM     18  C   UNL     1       0.561   2.862  20.529  0.00  0.00    +0.000 A 
ATOM     19  C   UNL     1       1.207   2.410  21.672  0.00  0.00    +0.000 A 
ATOM     20  C   UNL     1       2.596   2.492  21.757  0.00  0.00    +0.000 A 
ATOM     21  C   UNL     1       3.333   3.081  20.719  0.00  0.00    +0.000 A 
ENDBRANCH   7  16
BRANCH   8  22
ATOM     22  C   UNL     1       5.167   5.351  16.535  0.00  0.00    +0.000 C 
BRANCH  22  23
ATOM     23  C   UNL     1       6.441   5.310  17.304  0.00  0.00    +0.000 A 
ATOM     24  C   UNL     1       7.465   4.392  17.421  0.00  0.00    +0.000 A 
ATOM     25  C   UNL     1       8.310   4.862  18.459  0.00  0.00    +0.000 A 
ATOM     26  C   UNL     1       7.763   6.046  18.892  0.00  0.00    +0.000 A 
ATOM     27  O   UNL     1       6.633   6.326  18.199  0.00  0.00    +0.000 OA
ENDBRANCH  22  23
ENDBRANCH   8  22
TORSDOF 4
ENDMDL
MODEL 9
REMARK VINA RESULT:      -6.7      1.863      2.788
REMARK  Name = 
REMARK  4 active torsions:
REMARK  status: ('A' for Active; 'I' for Inactive)
REMARK    1  A    between atoms: C_4  and  C_5
REMARK    2  A    between atoms: N_14  and  C_15
REMARK    3  A    between atoms: N_21  and  C_22
REMARK    4  A    between atoms: C_22  and  C_23
REMARK                            x       y       z     vdW  Elec       q    Type
REMARK                         _______ _______ _______ _____ _____    ______ ____
ROOT
ATOM      1  O   UNL     1       2.819   9.573  17.140  0.00  0.00    +0.000 OA
ATOM      2  C   UNL     1       2.622   8.633  17.892  0.00  0.00    +0.000 C 
ATOM      3  C   UNL     1       1.916   8.768  19.197  0.00  0.00    +0.000 C 
ATOM      4  C   UNL     1       1.260   9.867  19.590  0.00  0.00    +0.000 C 
ATOM      5  S   UNL     1       2.057   7.302  20.076  0.00  0.00    +0.000 S 
ATOM      6  C   UNL     1       2.679   6.426  18.692  0.00  0.00    +0.000 C 
ATOM      7  N   UNL     1       2.822   5.142  18.571  0.00  0.00    +0.000 NA
ATOM      8  N   UNL     1       3.013   7.319  17.701  0.00  0.00    +0.000 N 
ENDROOT
BRANCH   4   9
ATOM      9  C   UNL     1       0.521   9.965  20.859  0.00  0.00    +0.000 A 
ATOM     10  C   UNL     1       0.145   8.803  21.548  0.00  0.00    +0.000 A 
ATOM     11  C   UNL     1      -0.629   8.891  22.707  0.00  0.00    +0.000 A 
ATOM     12  C   UNL     1      -1.032  10.138  23.188  0.00  0.00    +0.000 A 
ATOM     13  C   UNL     1      -0.654  11.293  22.504  0.00  0.00    +0.000 A 
ATOM     14 CL   UNL     1      -1.162  12.830  23.088  0.00  0.00    +0.000 Cl
ATOM     15  C   UNL     1       0.120  11.211  21.345  0.00  0.00    +0.000 A 
ENDBRANCH   4   9
BRANCH   7  16
ATOM     16  C   UNL     1       2.389   4.246  19.572  0.00  0.00    +0.000 A 
ATOM     17  C   UNL     1       1.060   3.809  19.679  0.00  0.00    +0.000 A 
ATOM     18  C   UNL     1       0.650   2.964  20.712  0.00  0.00    +0.000 A 
ATOM     19  C   UNL     1       1.588   2.462  21.605  0.00  0.00    +0.000 A 
ATOM     20  C   UNL     1       2.930   2.807  21.461  0.00  0.00    +0.000 A 
ATOM     21  C   UNL     1       3.326   3.702  20.456  0.00  0.00    +0.000 A 
ENDBRANCH   7  16
BRANCH   8  22
ATOM     22  C   UNL     1       3.843   6.961  16.566  0.00  0.00    +0.000 C 
BRANCH  22  23
ATOM     23  C   UNL     1       5.254   6.664  16.938  0.00  0.00    +0.000 A 
ATOM     24  C   UNL     1       6.304   7.423  17.414  0.00  0.00    +0.000 A 
ATOM     25  C   UNL     1       7.447   6.585  17.394  0.00  0.00    +0.000 A 
ATOM     26  C   UNL     1       7.021   5.364  16.932  0.00  0.00    +0.000 A 
ATOM     27  O   UNL     1       5.695   5.400  16.654  0.00  0.00    +0.000 OA
ENDBRANCH  22  23
ENDBRANCH   8  22
TORSDOF 4
ENDMDL
