MODEL 1
REMARK VINA RESULT:      -7.1      0.000      0.000
REMARK  Name = 
REMARK  5 active torsions:
REMARK  status: ('A' for Active; 'I' for Inactive)
REMARK    1  A    between atoms: C_8  and  C_9
REMARK    2  A    between atoms: C_9  and  C_11
REMARK    3  A    between atoms: C_11  and  O_12
REMARK    4  A    between atoms: O_12  and  C_13
REMARK    5  A    between atoms: C_13  and  C_15
REMARK                            x       y       z     vdW  Elec       q    Type
REMARK                         _______ _______ _______ _____ _____    ______ ____
ROOT
ATOM      1  O   UNL     1       5.927   3.833  13.297  0.00  0.00    +0.000 OA
ATOM      2  C   UNL     1       6.030   4.182  14.469  0.00  0.00    +0.000 C 
ATOM      3  C   UNL     1       7.372   4.403  15.165  0.00  0.00    +0.000 C 
ATOM      4  O   UNL     1       7.432   4.385  16.584  0.00  0.00    +0.000 OA
ATOM      5  C   UNL     1       6.286   4.802  17.202  0.00  0.00    +0.000 A 
ATOM      6  C   UNL     1       6.386   5.113  18.553  0.00  0.00    +0.000 A 
ATOM      7  C   UNL     1       5.250   5.517  19.262  0.00  0.00    +0.000 A 
ATOM      8  C   UNL     1       4.006   5.601  18.619  0.00  0.00    +0.000 A 
ATOM      9  C   UNL     1       3.902   5.251  17.266  0.00  0.00    +0.000 A 
ATOM     10  C   UNL     1       5.043   4.859  16.563  0.00  0.00    +0.000 A 
ATOM     11  N   UNL     1       4.931   4.494  15.221  0.00  0.00    +0.000 N 
ATOM     12  H   UNL     1       4.031   4.426  14.764  0.00  0.00    +0.000 HD
ENDROOT
BRANCH   8  13
ATOM     13  C   UNL     1       2.830   6.038  19.424  0.00  0.00    +0.000 C 
ATOM     14  O   UNL     1       2.068   6.886  18.963  0.00  0.00    +0.000 OA
BRANCH  13  15
ATOM     15  C   UNL     1       2.567   5.370  20.774  0.00  0.00    +0.000 C 
BRANCH  15  16
ATOM     16  O   UNL     1       1.391   4.563  20.754  0.00  0.00    +0.000 OA
BRANCH  16  17
ATOM     17  C   UNL     1       1.643   3.237  20.971  0.00  0.00    +0.000 C 
ATOM     18  O   UNL     1       1.390   2.661  22.024  0.00  0.00    +0.000 OA
BRANCH  17  19
ATOM     19  C   UNL     1       2.266   2.660  19.804  0.00  0.00    +0.000 A 
ATOM     20  C   UNL     1       3.543   2.182  19.561  0.00  0.00    +0.000 A 
ATOM     21  C   UNL     1       3.570   1.744  18.215  0.00  0.00    +0.000 A 
ATOM     22  C   UNL     1       2.312   1.977  17.714  0.00  0.00    +0.000 A 
ATOM     23  O   UNL     1       1.514   2.521  18.666  0.00  0.00    +0.000 OA
ENDBRANCH  17  19
ENDBRANCH  16  17
ENDBRANCH  15  16
ENDBRANCH  13  15
ENDBRANCH   8  13
TORSDOF 5
ENDMDL
MODEL 2
REMARK VINA RESULT:      -7.0      3.337      7.097
REMARK  Name = 
REMARK  5 active torsions:
REMARK  status: ('A' for Active; 'I' for Inactive)
REMARK    1  A    between atoms: C_8  and  C_9
REMARK    2  A    between atoms: C_9  and  C_11
REMARK    3  A    between atoms: C_11  and  O_12
REMARK    4  A    between atoms: O_12  and  C_13
REMARK    5  A    between atoms: C_13  and  C_15
REMARK                            x       y       z     vdW  Elec       q    Type
REMARK                         _______ _______ _______ _____ _____    ______ ____
ROOT
ATOM      1  O   UNL     1       0.294   9.688  23.534  0.00  0.00    +0.000 OA
ATOM      2  C   UNL     1       0.651   9.596  22.363  0.00  0.00    +0.000 C 
ATOM      3  C   UNL     1       0.627  10.769  21.383  0.00  0.00    +0.000 C 
ATOM      4  O   UNL     1       0.640  10.509  19.987  0.00  0.00    +0.000 OA
ATOM      5  C   UNL     1       1.290   9.359  19.632  0.00  0.00    +0.000 A 
ATOM      6  C   UNL     1       1.615   9.217  18.288  0.00  0.00    +0.000 A 
ATOM      7  C   UNL     1       2.252   8.054  17.844  0.00  0.00    +0.000 A 
ATOM      8  C   UNL     1       2.558   7.024  18.746  0.00  0.00    +0.000 A 
ATOM      9  C   UNL     1       2.195   7.155  20.093  0.00  0.00    +0.000 A 
ATOM     10  C   UNL     1       1.568   8.324  20.531  0.00  0.00    +0.000 A 
ATOM     11  N   UNL     1       1.192   8.441  21.870  0.00  0.00    +0.000 N 
ATOM     12  H   UNL     1       1.287   7.669  22.516  0.00  0.00    +0.000 HD
ENDROOT
BRANCH   8  13
ATOM     13  C   UNL     1       3.239   5.808  18.216  0.00  0.00    +0.000 C 
ATOM     14  O   UNL     1       2.561   4.839  17.881  0.00  0.00    +0.000 OA
BRANCH  13  15
ATOM     15  C   UNL     1       4.757   5.826  18.043  0.00  0.00    +0.000 C 
BRANCH  15  16
ATOM     16  O   UNL     1       5.262   4.570  17.593  0.00  0.00    +0.000 OA
BRANCH  16  17
ATOM     17  C   UNL     1       6.561   4.631  17.170  0.00  0.00    +0.000 C 
ATOM     18  O   UNL     1       7.514   4.792  17.925  0.00  0.00    +0.000 OA
BRANCH  17  19
ATOM     19  C   UNL     1       6.614   4.510  15.733  0.00  0.00    +0.000 A 
ATOM     20  C   UNL     1       5.927   3.713  14.833  0.00  0.00    +0.000 A 
ATOM     21  C   UNL     1       6.417   4.031  13.543  0.00  0.00    +0.000 A 
ATOM     22  C   UNL     1       7.370   5.003  13.728  0.00  0.00    +0.000 A 
ATOM     23  O   UNL     1       7.493   5.306  15.044  0.00  0.00    +0.000 OA
ENDBRANCH  17  19
ENDBRANCH  16  17
ENDBRANCH  15  16
ENDBRANCH  13  15
ENDBRANCH   8  13
TORSDOF 5
ENDMDL
MODEL 3
REMARK VINA RESULT:      -7.0      3.482      6.405
REMARK  Name = 
REMARK  5 active torsions:
REMARK  status: ('A' for Active; 'I' for Inactive)
REMARK    1  A    between atoms: C_8  and  C_9
REMARK    2  A    between atoms: C_9  and  C_11
REMARK    3  A    between atoms: C_11  and  O_12
REMARK    4  A    between atoms: O_12  and  C_13
REMARK    5  A    between atoms: C_13  and  C_15
REMARK                            x       y       z     vdW  Elec       q    Type
REMARK                         _______ _______ _______ _____ _____    ______ ____
ROOT
ATOM      1  O   UNL     1      -0.166  10.099  23.435  0.00  0.00    +0.000 OA
ATOM      2  C   UNL     1       0.266   9.886  22.306  0.00  0.00    +0.000 C 
ATOM      3  C   UNL     1       0.173  10.900  21.167  0.00  0.00    +0.000 C 
ATOM      4  O   UNL     1       0.293  10.452  19.824  0.00  0.00    +0.000 OA
ATOM      5  C   UNL     1       1.082   9.345  19.668  0.00  0.00    +0.000 A 
ATOM      6  C   UNL     1       1.498   9.056  18.373  0.00  0.00    +0.000 A 
ATOM      7  C   UNL     1       2.281   7.924  18.128  0.00  0.00    +0.000 A 
ATOM      8  C   UNL     1       2.643   7.071  19.183  0.00  0.00    +0.000 A 
ATOM      9  C   UNL     1       2.191   7.346  20.480  0.00  0.00    +0.000 A 
ATOM     10  C   UNL     1       1.418   8.485  20.717  0.00  0.00    +0.000 A 
ATOM     11  N   UNL     1       0.955   8.743  22.008  0.00  0.00    +0.000 N 
ATOM     12  H   UNL     1       1.095   8.085  22.763  0.00  0.00    +0.000 HD
ENDROOT
BRANCH   8  13
ATOM     13  C   UNL     1       3.480   5.879  18.863  0.00  0.00    +0.000 C 
ATOM     14  O   UNL     1       4.399   5.571  19.619  0.00  0.00    +0.000 OA
BRANCH  13  15
ATOM     15  C   UNL     1       3.129   5.035  17.638  0.00  0.00    +0.000 C 
BRANCH  15  16
ATOM     16  O   UNL     1       3.556   3.681  17.778  0.00  0.00    +0.000 OA
BRANCH  16  17
ATOM     17  C   UNL     1       2.531   2.815  18.040  0.00  0.00    +0.000 C 
ATOM     18  O   UNL     1       1.983   2.133  17.180  0.00  0.00    +0.000 OA
BRANCH  17  19
ATOM     19  C   UNL     1       2.195   2.863  19.442  0.00  0.00    +0.000 A 
ATOM     20  C   UNL     1       1.032   3.192  20.118  0.00  0.00    +0.000 A 
ATOM     21  C   UNL     1       1.309   3.065  21.501  0.00  0.00    +0.000 A 
ATOM     22  C   UNL     1       2.621   2.667  21.591  0.00  0.00    +0.000 A 
ATOM     23  O   UNL     1       3.164   2.533  20.356  0.00  0.00    +0.000 OA
ENDBRANCH  17  19
ENDBRANCH  16  17
ENDBRANCH  15  16
ENDBRANCH  13  15
ENDBRANCH   8  13
TORSDOF 5
ENDMDL
MODEL 4
REMARK VINA RESULT:      -6.9      3.256      6.611
REMARK  Name = 
REMARK  5 active torsions:
REMARK  status: ('A' for Active; 'I' for Inactive)
REMARK    1  A    between atoms: C_8  and  C_9
REMARK    2  A    between atoms: C_9  and  C_11
REMARK    3  A    between atoms: C_11  and  O_12
REMARK    4  A    between atoms: O_12  and  C_13
REMARK    5  A    between atoms: C_13  and  C_15
REMARK                            x       y       z     vdW  Elec       q    Type
REMARK                         _______ _______ _______ _____ _____    ______ ____
ROOT
ATOM      1  O   UNL     1       0.335   9.971  23.211  0.00  0.00    +0.000 OA
ATOM      2  C   UNL     1       0.760   9.635  22.109  0.00  0.00    +0.000 C 
ATOM      3  C   UNL     1       1.022  10.623  20.973  0.00  0.00    +0.000 C 
ATOM      4  O   UNL     1       1.096  10.146  19.638  0.00  0.00    +0.000 OA
ATOM      5  C   UNL     1       1.555   8.862  19.522  0.00  0.00    +0.000 A 
ATOM      6  C   UNL     1       1.953   8.456  18.254  0.00  0.00    +0.000 A 
ATOM      7  C   UNL     1       2.404   7.148  18.050  0.00  0.00    +0.000 A 
ATOM      8  C   UNL     1       2.450   6.239  19.118  0.00  0.00    +0.000 A 
ATOM      9  C   UNL     1       2.014   6.642  20.387  0.00  0.00    +0.000 A 
ATOM     10  C   UNL     1       1.574   7.953  20.584  0.00  0.00    +0.000 A 
ATOM     11  N   UNL     1       1.122   8.343  21.846  0.00  0.00    +0.000 N 
ATOM     12  H   UNL     1       1.027   7.679  22.603  0.00  0.00    +0.000 HD
ENDROOT
BRANCH   8  13
ATOM     13  C   UNL     1       2.942   4.859  18.843  0.00  0.00    +0.000 C 
ATOM     14  O   UNL     1       2.265   4.110  18.140  0.00  0.00    +0.000 OA
BRANCH  13  15
ATOM     15  C   UNL     1       4.306   4.436  19.387  0.00  0.00    +0.000 C 
BRANCH  15  16
ATOM     16  O   UNL     1       5.150   5.555  19.652  0.00  0.00    +0.000 OA
BRANCH  16  17
ATOM     17  C   UNL     1       6.427   5.389  19.192  0.00  0.00    +0.000 C 
ATOM     18  O   UNL     1       7.408   5.322  19.924  0.00  0.00    +0.000 OA
BRANCH  17  19
ATOM     19  C   UNL     1       6.425   5.342  17.749  0.00  0.00    +0.000 A 
ATOM     20  C   UNL     1       5.788   6.106  16.786  0.00  0.00    +0.000 A 
ATOM     21  C   UNL     1       6.161   5.577  15.527  0.00  0.00    +0.000 A 
ATOM     22  C   UNL     1       7.003   4.524  15.791  0.00  0.00    +0.000 A 
ATOM     23  O   UNL     1       7.176   4.377  17.128  0.00  0.00    +0.000 OA
ENDBRANCH  17  19
ENDBRANCH  16  17
ENDBRANCH  15  16
ENDBRANCH  13  15
ENDBRANCH   8  13
TORSDOF 5
ENDMDL
MODEL 5
REMARK VINA RESULT:      -6.9      2.123      6.699
REMARK  Name = 
REMARK  5 active torsions:
REMARK  status: ('A' for Active; 'I' for Inactive)
REMARK    1  A    between atoms: C_8  and  C_9
REMARK    2  A    between atoms: C_9  and  C_11
REMARK    3  A    between atoms: C_11  and  O_12
REMARK    4  A    between atoms: O_12  and  C_13
REMARK    5  A    between atoms: C_13  and  C_15
REMARK                            x       y       z     vdW  Elec       q    Type
REMARK                         _______ _______ _______ _____ _____    ______ ____
ROOT
ATOM      1  O   UNL     1       0.105   2.201  18.546  0.00  0.00    +0.000 OA
ATOM      2  C   UNL     1       1.132   2.826  18.793  0.00  0.00    +0.000 C 
ATOM      3  C   UNL     1       1.406   3.490  20.142  0.00  0.00    +0.000 C 
ATOM      4  O   UNL     1       2.376   4.525  20.225  0.00  0.00    +0.000 OA
ATOM      5  C   UNL     1       3.393   4.419  19.316  0.00  0.00    +0.000 A 
ATOM      6  C   UNL     1       4.521   5.196  19.552  0.00  0.00    +0.000 A 
ATOM      7  C   UNL     1       5.590   5.166  18.651  0.00  0.00    +0.000 A 
ATOM      8  C   UNL     1       5.527   4.360  17.504  0.00  0.00    +0.000 A 
ATOM      9  C   UNL     1       4.373   3.606  17.251  0.00  0.00    +0.000 A 
ATOM     10  C   UNL     1       3.315   3.634  18.161  0.00  0.00    +0.000 A 
ATOM     11  N   UNL     1       2.161   2.896  17.895  0.00  0.00    +0.000 N 
ATOM     12  H   UNL     1       2.036   2.405  17.020  0.00  0.00    +0.000 HD
ENDROOT
BRANCH   8  13
ATOM     13  C   UNL     1       6.697   4.366  16.579  0.00  0.00    +0.000 C 
ATOM     14  O   UNL     1       7.788   4.749  16.994  0.00  0.00    +0.000 OA
BRANCH  13  15
ATOM     15  C   UNL     1       6.520   3.831  15.158  0.00  0.00    +0.000 C 
BRANCH  15  16
ATOM     16  O   UNL     1       6.313   4.879  14.211  0.00  0.00    +0.000 OA
BRANCH  16  17
ATOM     17  C   UNL     1       7.056   4.731  13.072  0.00  0.00    +0.000 C 
ATOM     18  O   UNL     1       7.960   5.493  12.749  0.00  0.00    +0.000 OA
BRANCH  17  19
ATOM     19  C   UNL     1       6.588   3.587  12.328  0.00  0.00    +0.000 A 
ATOM     20  C   UNL     1       7.240   2.501  11.769  0.00  0.00    +0.000 A 
ATOM     21  C   UNL     1       6.251   1.702  11.147  0.00  0.00    +0.000 A 
ATOM     22  C   UNL     1       5.054   2.342  11.361  0.00  0.00    +0.000 A 
ATOM     23  O   UNL     1       5.244   3.476  12.080  0.00  0.00    +0.000 OA
ENDBRANCH  17  19
ENDBRANCH  16  17
ENDBRANCH  15  16
ENDBRANCH  13  15
ENDBRANCH   8  13
TORSDOF 5
ENDMDL
MODEL 6
REMARK VINA RESULT:      -6.9      3.007      5.625
REMARK  Name = 
REMARK  5 active torsions:
REMARK  status: ('A' for Active; 'I' for Inactive)
REMARK    1  A    between atoms: C_8  and  C_9
REMARK    2  A    between atoms: C_9  and  C_11
REMARK    3  A    between atoms: C_11  and  O_12
REMARK    4  A    between atoms: O_12  and  C_13
REMARK    5  A    between atoms: C_13  and  C_15
REMARK                            x       y       z     vdW  Elec       q    Type
REMARK                         _______ _______ _______ _____ _____    ______ ____
ROOT
ATOM      1  O   UNL     1      -0.081  11.657  18.343  0.00  0.00    +0.000 OA
ATOM      2  C   UNL     1       0.390  10.593  18.736  0.00  0.00    +0.000 C 
ATOM      3  C   UNL     1      -0.050   9.906  20.027  0.00  0.00    +0.000 C 
ATOM      4  O   UNL     1       0.801   8.940  20.628  0.00  0.00    +0.000 OA
ATOM      5  C   UNL     1       1.589   8.255  19.744  0.00  0.00    +0.000 A 
ATOM      6  C   UNL     1       2.193   7.096  20.218  0.00  0.00    +0.000 A 
ATOM      7  C   UNL     1       3.038   6.358  19.383  0.00  0.00    +0.000 A 
ATOM      8  C   UNL     1       3.286   6.785  18.070  0.00  0.00    +0.000 A 
ATOM      9  C   UNL     1       2.704   7.973  17.608  0.00  0.00    +0.000 A 
ATOM     10  C   UNL     1       1.854   8.699  18.445  0.00  0.00    +0.000 A 
ATOM     11  N   UNL     1       1.292   9.891  17.986  0.00  0.00    +0.000 N 
ATOM     12  H   UNL     1       1.548  10.288  17.091  0.00  0.00    +0.000 HD
ENDROOT
BRANCH   8  13
ATOM     13  C   UNL     1       4.194   5.958  17.225  0.00  0.00    +0.000 C 
ATOM     14  O   UNL     1       4.800   6.489  16.297  0.00  0.00    +0.000 OA
BRANCH  13  15
ATOM     15  C   UNL     1       4.395   4.484  17.578  0.00  0.00    +0.000 C 
BRANCH  15  16
ATOM     16  O   UNL     1       3.198   3.725  17.422  0.00  0.00    +0.000 OA
BRANCH  16  17
ATOM     17  C   UNL     1       3.197   2.564  18.145  0.00  0.00    +0.000 C 
ATOM     18  O   UNL     1       3.701   1.518  17.750  0.00  0.00    +0.000 OA
BRANCH  17  19
ATOM     19  C   UNL     1       2.498   2.765  19.392  0.00  0.00    +0.000 A 
ATOM     20  C   UNL     1       1.157   2.917  19.702  0.00  0.00    +0.000 A 
ATOM     21  C   UNL     1       1.076   3.092  21.104  0.00  0.00    +0.000 A 
ATOM     22  C   UNL     1       2.367   3.034  21.570  0.00  0.00    +0.000 A 
ATOM     23  O   UNL     1       3.233   2.829  20.548  0.00  0.00    +0.000 OA
ENDBRANCH  17  19
ENDBRANCH  16  17
ENDBRANCH  15  16
ENDBRANCH  13  15
ENDBRANCH   8  13
TORSDOF 5
ENDMDL
MODEL 7
REMARK VINA RESULT:      -6.8      2.033      6.473
REMARK  Name = 
REMARK  5 active torsions:
REMARK  status: ('A' for Active; 'I' for Inactive)
REMARK    1  A    between atoms: C_8  and  C_9
REMARK    2  A    between atoms: C_9  and  C_11
REMARK    3  A    between atoms: C_11  and  O_12
REMARK    4  A    between atoms: O_12  and  C_13
REMARK    5  A    between atoms: C_13  and  C_15
REMARK                            x       y       z     vdW  Elec       q    Type
REMARK                         _______ _______ _______ _____ _____    ______ ____
ROOT
ATOM      1  O   UNL     1       1.389   1.364  19.508  0.00  0.00    +0.000 OA
ATOM      2  C   UNL     1       1.774   2.519  19.357  0.00  0.00    +0.000 C 
ATOM      3  C   UNL     1       1.400   3.659  20.303  0.00  0.00    +0.000 C 
ATOM      4  O   UNL     1       1.513   5.002  19.854  0.00  0.00    +0.000 OA
ATOM      5  C   UNL     1       2.495   5.205  18.923  0.00  0.00    +0.000 A 
ATOM      6  C   UNL     1       2.868   6.524  18.690  0.00  0.00    +0.000 A 
ATOM      7  C   UNL     1       3.843   6.814  17.730  0.00  0.00    +0.000 A 
ATOM      8  C   UNL     1       4.441   5.780  16.993  0.00  0.00    +0.000 A 
ATOM      9  C   UNL     1       4.036   4.456  17.205  0.00  0.00    +0.000 A 
ATOM     10  C   UNL     1       3.069   4.174  18.173  0.00  0.00    +0.000 A 
ATOM     11  N   UNL     1       2.656   2.856  18.367  0.00  0.00    +0.000 N 
ATOM     12  H   UNL     1       2.977   2.106  17.769  0.00  0.00    +0.000 HD
ENDROOT
BRANCH   8  13
ATOM     13  C   UNL     1       5.475   6.148  15.984  0.00  0.00    +0.000 C 
ATOM     14  O   UNL     1       5.217   7.010  15.146  0.00  0.00    +0.000 OA
BRANCH  13  15
ATOM     15  C   UNL     1       6.852   5.489  16.061  0.00  0.00    +0.000 C 
BRANCH  15  16
ATOM     16  O   UNL     1       6.956   4.358  15.198  0.00  0.00    +0.000 OA
BRANCH  16  17
ATOM     17  C   UNL     1       7.224   4.692  13.900  0.00  0.00    +0.000 C 
ATOM     18  O   UNL     1       8.059   5.529  13.573  0.00  0.00    +0.000 OA
BRANCH  17  19
ATOM     19  C   UNL     1       6.365   3.942  13.014  0.00  0.00    +0.000 A 
ATOM     20  C   UNL     1       4.992   3.913  12.842  0.00  0.00    +0.000 A 
ATOM     21  C   UNL     1       4.724   2.967  11.824  0.00  0.00    +0.000 A 
ATOM     22  C   UNL     1       5.945   2.474  11.432  0.00  0.00    +0.000 A 
ATOM     23  O   UNL     1       6.944   3.061  12.137  0.00  0.00    +0.000 OA
ENDBRANCH  17  19
ENDBRANCH  16  17
ENDBRANCH  15  16
ENDBRANCH  13  15
ENDBRANCH   8  13
TORSDOF 5
ENDMDL
MODEL 8
REMARK VINA RESULT:      -6.7      2.155      6.126
REMARK  Name = 
REMARK  5 active torsions:
REMARK  status: ('A' for Active; 'I' for Inactive)
REMARK    1  A    between atoms: C_8  and  C_9
REMARK    2  A    between atoms: C_9  and  C_11
REMARK    3  A    between atoms: C_11  and  O_12
REMARK    4  A    between atoms: O_12  and  C_13
REMARK    5  A    between atoms: C_13  and  C_15
REMARK                            x       y       z     vdW  Elec       q    Type
REMARK                         _______ _______ _______ _____ _____    ______ ____
ROOT
ATOM      1  O   UNL     1       5.268   1.082  21.352  0.00  0.00    +0.000 OA
ATOM      2  C   UNL     1       4.540   1.930  20.845  0.00  0.00    +0.000 C 
ATOM      3  C   UNL     1       3.078   2.127  21.242  0.00  0.00    +0.000 C 
ATOM      4  O   UNL     1       2.201   2.804  20.353  0.00  0.00    +0.000 OA
ATOM      5  C   UNL     1       2.809   3.742  19.566  0.00  0.00    +0.000 A 
ATOM      6  C   UNL     1       1.975   4.649  18.921  0.00  0.00    +0.000 A 
ATOM      7  C   UNL     1       2.520   5.619  18.074  0.00  0.00    +0.000 A 
ATOM      8  C   UNL     1       3.906   5.677  17.863  0.00  0.00    +0.000 A 
ATOM      9  C   UNL     1       4.740   4.738  18.486  0.00  0.00    +0.000 A 
ATOM     10  C   UNL     1       4.188   3.780  19.338  0.00  0.00    +0.000 A 
ATOM     11  N   UNL     1       5.021   2.836  19.940  0.00  0.00    +0.000 N 
ATOM     12  H   UNL     1       6.004   2.774  19.712  0.00  0.00    +0.000 HD
ENDROOT
BRANCH   8  13
ATOM     13  C   UNL     1       4.432   6.732  16.951  0.00  0.00    +0.000 C 
ATOM     14  O   UNL     1       4.343   7.913  17.284  0.00  0.00    +0.000 OA
BRANCH  13  15
ATOM     15  C   UNL     1       5.127   6.313  15.656  0.00  0.00    +0.000 C 
BRANCH  15  16
ATOM     16  O   UNL     1       6.548   6.319  15.782  0.00  0.00    +0.000 OA
BRANCH  16  17
ATOM     17  C   UNL     1       7.109   5.083  15.619  0.00  0.00    +0.000 C 
ATOM     18  O   UNL     1       7.618   4.443  16.534  0.00  0.00    +0.000 OA
BRANCH  17  19
ATOM     19  C   UNL     1       7.033   4.689  14.233  0.00  0.00    +0.000 A 
ATOM     20  C   UNL     1       7.649   5.164  13.088  0.00  0.00    +0.000 A 
ATOM     21  C   UNL     1       7.172   4.382  12.009  0.00  0.00    +0.000 A 
ATOM     22  C   UNL     1       6.297   3.474  12.554  0.00  0.00    +0.000 A 
ATOM     23  O   UNL     1       6.211   3.644  13.897  0.00  0.00    +0.000 OA
ENDBRANCH  17  19
ENDBRANCH  16  17
ENDBRANCH  15  16
ENDBRANCH  13  15
ENDBRANCH   8  13
TORSDOF 5
ENDMDL
MODEL 9
REMARK VINA RESULT:      -6.7      1.891      6.159
REMARK  Name = 
REMARK  5 active torsions:
REMARK  status: ('A' for Active; 'I' for Inactive)
REMARK    1  A    between atoms: C_8  and  C_9
REMARK    2  A    between atoms: C_9  and  C_11
REMARK    3  A    between atoms: C_11  and  O_12
REMARK    4  A    between atoms: O_12  and  C_13
REMARK    5  A    between atoms: C_13  and  C_15
REMARK                            x       y       z     vdW  Elec       q    Type
REMARK                         _______ _______ _______ _____ _____    ______ ____
ROOT
ATOM      1  O   UNL     1       0.353   1.978  18.279  0.00  0.00    +0.000 OA
ATOM      2  C   UNL     1       1.191   2.805  18.625  0.00  0.00    +0.000 C 
ATOM      3  C   UNL     1       0.940   3.851  19.709  0.00  0.00    +0.000 C 
ATOM      4  O   UNL     1       1.759   5.011  19.761  0.00  0.00    +0.000 OA
ATOM      5  C   UNL     1       3.033   4.823  19.299  0.00  0.00    +0.000 A 
ATOM      6  C   UNL     1       3.961   5.807  19.618  0.00  0.00    +0.000 A 
ATOM      7  C   UNL     1       5.277   5.702  19.155  0.00  0.00    +0.000 A 
ATOM      8  C   UNL     1       5.663   4.611  18.362  0.00  0.00    +0.000 A 
ATOM      9  C   UNL     1       4.715   3.640  18.012  0.00  0.00    +0.000 A 
ATOM     10  C   UNL     1       3.407   3.748  18.487  0.00  0.00    +0.000 A 
ATOM     11  N   UNL     1       2.462   2.788  18.120  0.00  0.00    +0.000 N 
ATOM     12  H   UNL     1       2.678   2.060  17.452  0.00  0.00    +0.000 HD
ENDROOT
BRANCH   8  13
ATOM     13  C   UNL     1       7.079   4.550  17.898  0.00  0.00    +0.000 C 
ATOM     14  O   UNL     1       7.983   4.516  18.731  0.00  0.00    +0.000 OA
BRANCH  13  15
ATOM     15  C   UNL     1       7.364   4.463  16.399  0.00  0.00    +0.000 C 
BRANCH  15  16
ATOM     16  O   UNL     1       7.158   5.712  15.740  0.00  0.00    +0.000 OA
BRANCH  16  17
ATOM     17  C   UNL     1       6.022   5.740  14.979  0.00  0.00    +0.000 C 
ATOM     18  O   UNL     1       5.043   6.428  15.247  0.00  0.00    +0.000 OA
BRANCH  17  19
ATOM     19  C   UNL     1       6.155   4.829  13.867  0.00  0.00    +0.000 A 
ATOM     20  C   UNL     1       5.374   3.778  13.416  0.00  0.00    +0.000 A 
ATOM     21  C   UNL     1       6.020   3.244  12.276  0.00  0.00    +0.000 A 
ATOM     22  C   UNL     1       7.155   3.996  12.094  0.00  0.00    +0.000 A 
ATOM     23  O   UNL     1       7.243   4.961  13.043  0.00  0.00    +0.000 OA
ENDBRANCH  17  19
ENDBRANCH  16  17
ENDBRANCH  15  16
ENDBRANCH  13  15
ENDBRANCH   8  13
TORSDOF 5
ENDMDL
