MODEL 1
REMARK VINA RESULT:      -7.9      0.000      0.000
REMARK  Name = 
REMARK  5 active torsions:
REMARK  status: ('A' for Active; 'I' for Inactive)
REMARK    1  A    between atoms: C_1  and  C_2
REMARK    2  A    between atoms: C_2  and  C_3
REMARK    3  A    between atoms: C_3  and  N_4
REMARK    4  A    between atoms: N_12  and  C_13
REMARK    5  A    between atoms: C_18  and  C_19
REMARK                            x       y       z     vdW  Elec       q    Type
REMARK                         _______ _______ _______ _____ _____    ______ ____
ROOT
ATOM      1  N   UNL     1       5.485   4.739  15.856  0.00  0.00    +0.000 N 
ATOM      2  C   UNL     1       6.745   5.306  16.133  0.00  0.00    +0.000 A 
ATOM      3  O   UNL     1       7.557   5.606  15.272  0.00  0.00    +0.000 OA
ATOM      4  C   UNL     1       6.997   5.479  17.556  0.00  0.00    +0.000 A 
ATOM      5  N   UNL     1       8.112   5.992  18.179  0.00  0.00    +0.000 NA
ATOM      6  C   UNL     1       7.862   5.884  19.468  0.00  0.00    +0.000 A 
ATOM      7  N   UNL     1       6.635   5.318  19.700  0.00  0.00    +0.000 N 
ATOM      8  C   UNL     1       6.074   5.070  18.479  0.00  0.00    +0.000 A 
ATOM      9  N   UNL     1       4.875   4.469  18.167  0.00  0.00    +0.000 N 
ATOM     10  C   UNL     1       4.534   4.316  16.811  0.00  0.00    +0.000 A 
ATOM     11  O   UNL     1       3.455   3.849  16.451  0.00  0.00    +0.000 OA
ATOM     12  H   UNL     1       6.236   5.114  20.607  0.00  0.00    +0.000 HD
ENDROOT
BRANCH   9  13
ATOM     13  C   UNL     1       3.992   4.059  19.197  0.00  0.00    +0.000 A 
ATOM     14  C   UNL     1       4.120   2.760  19.722  0.00  0.00    +0.000 A 
ATOM     15  C   UNL     1       3.334   2.347  20.797  0.00  0.00    +0.000 A 
ATOM     16  C   UNL     1       2.410   3.224  21.354  0.00  0.00    +0.000 A 
ATOM     17  C   UNL     1       2.268   4.513  20.841  0.00  0.00    +0.000 A 
ATOM     18  C   UNL     1       3.049   4.949  19.758  0.00  0.00    +0.000 A 
ATOM     19  C   UNL     1       2.811   6.339  19.221  0.00  0.00    +0.000 C 
ENDBRANCH   9  13
BRANCH   1  20
ATOM     20  C   UNL     1       5.136   4.510  14.452  0.00  0.00    +0.000 C 
BRANCH  20  22
ATOM     21  C   UNL     1       5.687   3.337  12.278  0.00  0.00    +0.000 C 
ATOM     22  C   UNL     1       6.142   3.629  13.705  0.00  0.00    +0.000 C 
ENDBRANCH  20  22
ENDBRANCH   1  20
TORSDOF 3
ENDMDL
MODEL 2
REMARK VINA RESULT:      -7.8      2.227      5.740
REMARK  Name = 
REMARK  5 active torsions:
REMARK  status: ('A' for Active; 'I' for Inactive)
REMARK    1  A    between atoms: C_1  and  C_2
REMARK    2  A    between atoms: C_2  and  C_3
REMARK    3  A    between atoms: C_3  and  N_4
REMARK    4  A    between atoms: N_12  and  C_13
REMARK    5  A    between atoms: C_18  and  C_19
REMARK                            x       y       z     vdW  Elec       q    Type
REMARK                         _______ _______ _______ _____ _____    ______ ____
ROOT
ATOM      1  N   UNL     1       2.865   4.544  20.230  0.00  0.00    +0.000 N 
ATOM      2  C   UNL     1       2.154   5.761  20.241  0.00  0.00    +0.000 A 
ATOM      3  O   UNL     1       1.253   6.011  21.025  0.00  0.00    +0.000 OA
ATOM      4  C   UNL     1       2.584   6.687  19.204  0.00  0.00    +0.000 A 
ATOM      5  N   UNL     1       2.111   7.949  18.924  0.00  0.00    +0.000 NA
ATOM      6  C   UNL     1       2.793   8.341  17.867  0.00  0.00    +0.000 A 
ATOM      7  N   UNL     1       3.681   7.383  17.454  0.00  0.00    +0.000 N 
ATOM      8  C   UNL     1       3.559   6.328  18.315  0.00  0.00    +0.000 A 
ATOM      9  N   UNL     1       4.193   5.106  18.305  0.00  0.00    +0.000 N 
ATOM     10  C   UNL     1       3.870   4.176  19.310  0.00  0.00    +0.000 A 
ATOM     11  O   UNL     1       4.438   3.089  19.408  0.00  0.00    +0.000 OA
ATOM     12  H   UNL     1       4.297   7.448  16.653  0.00  0.00    +0.000 HD
ENDROOT
BRANCH   9  13
ATOM     13  C   UNL     1       5.178   4.820  17.327  0.00  0.00    +0.000 A 
ATOM     14  C   UNL     1       4.767   4.313  16.080  0.00  0.00    +0.000 A 
ATOM     15  C   UNL     1       5.693   4.104  15.058  0.00  0.00    +0.000 A 
ATOM     16  C   UNL     1       7.036   4.393  15.273  0.00  0.00    +0.000 A 
ATOM     17  C   UNL     1       7.458   4.890  16.506  0.00  0.00    +0.000 A 
ATOM     18  C   UNL     1       6.543   5.107  17.549  0.00  0.00    +0.000 A 
ATOM     19  C   UNL     1       7.074   5.601  18.871  0.00  0.00    +0.000 C 
ENDBRANCH   9  13
BRANCH   1  20
ATOM     20  C   UNL     1       2.501   3.535  21.227  0.00  0.00    +0.000 C 
BRANCH  20  22
ATOM     21  C   UNL     1       0.941   2.532  19.505  0.00  0.00    +0.000 C 
ATOM     22  C   UNL     1       1.136   2.887  20.976  0.00  0.00    +0.000 C 
ENDBRANCH  20  22
ENDBRANCH   1  20
TORSDOF 3
ENDMDL
MODEL 3
REMARK VINA RESULT:      -7.5      0.429      1.528
REMARK  Name = 
REMARK  5 active torsions:
REMARK  status: ('A' for Active; 'I' for Inactive)
REMARK    1  A    between atoms: C_1  and  C_2
REMARK    2  A    between atoms: C_2  and  C_3
REMARK    3  A    between atoms: C_3  and  N_4
REMARK    4  A    between atoms: N_12  and  C_13
REMARK    5  A    between atoms: C_18  and  C_19
REMARK                            x       y       z     vdW  Elec       q    Type
REMARK                         _______ _______ _______ _____ _____    ______ ____
ROOT
ATOM      1  N   UNL     1       5.434   4.687  15.928  0.00  0.00    +0.000 N 
ATOM      2  C   UNL     1       6.738   5.145  16.205  0.00  0.00    +0.000 A 
ATOM      3  O   UNL     1       7.587   5.328  15.347  0.00  0.00    +0.000 OA
ATOM      4  C   UNL     1       6.984   5.356  17.623  0.00  0.00    +0.000 A 
ATOM      5  N   UNL     1       8.133   5.789  18.245  0.00  0.00    +0.000 NA
ATOM      6  C   UNL     1       7.854   5.762  19.533  0.00  0.00    +0.000 A 
ATOM      7  N   UNL     1       6.576   5.325  19.765  0.00  0.00    +0.000 N 
ATOM      8  C   UNL     1       6.012   5.076  18.545  0.00  0.00    +0.000 A 
ATOM      9  N   UNL     1       4.767   4.579  18.236  0.00  0.00    +0.000 N 
ATOM     10  C   UNL     1       4.433   4.398  16.881  0.00  0.00    +0.000 A 
ATOM     11  O   UNL     1       3.320   4.019  16.522  0.00  0.00    +0.000 OA
ATOM     12  H   UNL     1       6.146   5.200  20.672  0.00  0.00    +0.000 HD
ENDROOT
BRANCH   9  13
ATOM     13  C   UNL     1       3.833   4.300  19.266  0.00  0.00    +0.000 A 
ATOM     14  C   UNL     1       3.001   5.337  19.726  0.00  0.00    +0.000 A 
ATOM     15  C   UNL     1       2.008   5.085  20.671  0.00  0.00    +0.000 A 
ATOM     16  C   UNL     1       1.841   3.798  21.171  0.00  0.00    +0.000 A 
ATOM     17  C   UNL     1       2.662   2.762  20.729  0.00  0.00    +0.000 A 
ATOM     18  C   UNL     1       3.669   2.994  19.778  0.00  0.00    +0.000 A 
ATOM     19  C   UNL     1       4.553   1.838  19.380  0.00  0.00    +0.000 C 
ENDBRANCH   9  13
BRANCH   1  20
ATOM     20  C   UNL     1       5.086   4.430  14.529  0.00  0.00    +0.000 C 
BRANCH  20  22
ATOM     21  C   UNL     1       5.712   3.324  12.340  0.00  0.00    +0.000 C 
ATOM     22  C   UNL     1       6.157   3.648  13.763  0.00  0.00    +0.000 C 
ENDBRANCH  20  22
ENDBRANCH   1  20
TORSDOF 3
ENDMDL
MODEL 4
REMARK VINA RESULT:      -7.4      2.134      5.819
REMARK  Name = 
REMARK  5 active torsions:
REMARK  status: ('A' for Active; 'I' for Inactive)
REMARK    1  A    between atoms: C_1  and  C_2
REMARK    2  A    between atoms: C_2  and  C_3
REMARK    3  A    between atoms: C_3  and  N_4
REMARK    4  A    between atoms: N_12  and  C_13
REMARK    5  A    between atoms: C_18  and  C_19
REMARK                            x       y       z     vdW  Elec       q    Type
REMARK                         _______ _______ _______ _____ _____    ______ ____
ROOT
ATOM      1  N   UNL     1       2.814   6.234  18.812  0.00  0.00    +0.000 N 
ATOM      2  C   UNL     1       2.312   5.145  19.553  0.00  0.00    +0.000 A 
ATOM      3  O   UNL     1       1.517   5.260  20.472  0.00  0.00    +0.000 OA
ATOM      4  C   UNL     1       2.858   3.862  19.132  0.00  0.00    +0.000 A 
ATOM      5  N   UNL     1       2.597   2.607  19.633  0.00  0.00    +0.000 NA
ATOM      6  C   UNL     1       3.377   1.798  18.945  0.00  0.00    +0.000 A 
ATOM      7  N   UNL     1       4.132   2.481  18.027  0.00  0.00    +0.000 N 
ATOM      8  C   UNL     1       3.793   3.800  18.135  0.00  0.00    +0.000 A 
ATOM      9  N   UNL     1       4.296   4.896  17.471  0.00  0.00    +0.000 N 
ATOM     10  C   UNL     1       3.780   6.166  17.784  0.00  0.00    +0.000 A 
ATOM     11  O   UNL     1       4.131   7.184  17.191  0.00  0.00    +0.000 OA
ATOM     12  H   UNL     1       4.817   2.077  17.402  0.00  0.00    +0.000 HD
ENDROOT
BRANCH   9  13
ATOM     13  C   UNL     1       5.282   4.730  16.465  0.00  0.00    +0.000 A 
ATOM     14  C   UNL     1       4.867   4.441  15.152  0.00  0.00    +0.000 A 
ATOM     15  C   UNL     1       5.796   4.361  14.115  0.00  0.00    +0.000 A 
ATOM     16  C   UNL     1       7.146   4.562  14.380  0.00  0.00    +0.000 A 
ATOM     17  C   UNL     1       7.572   4.844  15.678  0.00  0.00    +0.000 A 
ATOM     18  C   UNL     1       6.653   4.928  16.737  0.00  0.00    +0.000 A 
ATOM     19  C   UNL     1       7.187   5.189  18.124  0.00  0.00    +0.000 C 
ENDBRANCH   9  13
BRANCH   1  20
ATOM     20  C   UNL     1       2.338   7.573  19.164  0.00  0.00    +0.000 C 
BRANCH  20  22
ATOM     21  C   UNL     1       1.708   9.798  18.136  0.00  0.00    +0.000 C 
ATOM     22  C   UNL     1       1.597   8.280  18.025  0.00  0.00    +0.000 C 
ENDBRANCH  20  22
ENDBRANCH   1  20
TORSDOF 3
ENDMDL
MODEL 5
REMARK VINA RESULT:      -7.2      2.116      3.007
REMARK  Name = 
REMARK  5 active torsions:
REMARK  status: ('A' for Active; 'I' for Inactive)
REMARK    1  A    between atoms: C_1  and  C_2
REMARK    2  A    between atoms: C_2  and  C_3
REMARK    3  A    between atoms: C_3  and  N_4
REMARK    4  A    between atoms: N_12  and  C_13
REMARK    5  A    between atoms: C_18  and  C_19
REMARK                            x       y       z     vdW  Elec       q    Type
REMARK                         _______ _______ _______ _____ _____    ______ ____
ROOT
ATOM      1  N   UNL     1       5.686   5.389  17.347  0.00  0.00    +0.000 N 
ATOM      2  C   UNL     1       5.387   6.722  17.003  0.00  0.00    +0.000 A 
ATOM      3  O   UNL     1       6.138   7.441  16.363  0.00  0.00    +0.000 OA
ATOM      4  C   UNL     1       4.099   7.172  17.509  0.00  0.00    +0.000 A 
ATOM      5  N   UNL     1       3.497   8.402  17.368  0.00  0.00    +0.000 NA
ATOM      6  C   UNL     1       2.373   8.311  18.049  0.00  0.00    +0.000 A 
ATOM      7  N   UNL     1       2.229   7.076  18.626  0.00  0.00    +0.000 N 
ATOM      8  C   UNL     1       3.325   6.341  18.272  0.00  0.00    +0.000 A 
ATOM      9  N   UNL     1       3.679   5.060  18.631  0.00  0.00    +0.000 N 
ATOM     10  C   UNL     1       4.886   4.533  18.136  0.00  0.00    +0.000 A 
ATOM     11  O   UNL     1       5.240   3.377  18.358  0.00  0.00    +0.000 OA
ATOM     12  H   UNL     1       1.459   6.780  19.213  0.00  0.00    +0.000 HD
ENDROOT
BRANCH   9  13
ATOM     13  C   UNL     1       2.817   4.282  19.445  0.00  0.00    +0.000 A 
ATOM     14  C   UNL     1       3.061   4.226  20.830  0.00  0.00    +0.000 A 
ATOM     15  C   UNL     1       2.186   3.548  21.678  0.00  0.00    +0.000 A 
ATOM     16  C   UNL     1       1.065   2.916  21.153  0.00  0.00    +0.000 A 
ATOM     17  C   UNL     1       0.813   2.959  19.782  0.00  0.00    +0.000 A 
ATOM     18  C   UNL     1       1.682   3.635  18.909  0.00  0.00    +0.000 A 
ATOM     19  C   UNL     1       1.376   3.601  17.432  0.00  0.00    +0.000 C 
ENDBRANCH   9  13
BRANCH   1  20
ATOM     20  C   UNL     1       6.967   4.841  16.897  0.00  0.00    +0.000 C 
BRANCH  20  22
ATOM     21  C   UNL     1       6.007   3.806  14.796  0.00  0.00    +0.000 C 
ATOM     22  C   UNL     1       7.083   4.721  15.374  0.00  0.00    +0.000 C 
ENDBRANCH  20  22
ENDBRANCH   1  20
TORSDOF 3
ENDMDL
MODEL 6
REMARK VINA RESULT:      -7.0      2.205      3.589
REMARK  Name = 
REMARK  5 active torsions:
REMARK  status: ('A' for Active; 'I' for Inactive)
REMARK    1  A    between atoms: C_1  and  C_2
REMARK    2  A    between atoms: C_2  and  C_3
REMARK    3  A    between atoms: C_3  and  N_4
REMARK    4  A    between atoms: N_12  and  C_13
REMARK    5  A    between atoms: C_18  and  C_19
REMARK                            x       y       z     vdW  Elec       q    Type
REMARK                         _______ _______ _______ _____ _____    ______ ____
ROOT
ATOM      1  N   UNL     1       5.770   5.290  17.485  0.00  0.00    +0.000 N 
ATOM      2  C   UNL     1       5.419   6.585  17.053  0.00  0.00    +0.000 A 
ATOM      3  O   UNL     1       6.159   7.305  16.402  0.00  0.00    +0.000 OA
ATOM      4  C   UNL     1       4.090   6.994  17.483  0.00  0.00    +0.000 A 
ATOM      5  N   UNL     1       3.434   8.181  17.248  0.00  0.00    +0.000 NA
ATOM      6  C   UNL     1       2.289   8.070  17.890  0.00  0.00    +0.000 A 
ATOM      7  N   UNL     1       2.183   6.864  18.531  0.00  0.00    +0.000 N 
ATOM      8  C   UNL     1       3.328   6.168  18.262  0.00  0.00    +0.000 A 
ATOM      9  N   UNL     1       3.730   4.929  18.707  0.00  0.00    +0.000 N 
ATOM     10  C   UNL     1       4.981   4.439  18.291  0.00  0.00    +0.000 A 
ATOM     11  O   UNL     1       5.383   3.317  18.592  0.00  0.00    +0.000 OA
ATOM     12  H   UNL     1       1.406   6.561  19.104  0.00  0.00    +0.000 HD
ENDROOT
BRANCH   9  13
ATOM     13  C   UNL     1       2.875   4.154  19.531  0.00  0.00    +0.000 A 
ATOM     14  C   UNL     1       2.942   4.323  20.927  0.00  0.00    +0.000 A 
ATOM     15  C   UNL     1       2.058   3.650  21.768  0.00  0.00    +0.000 A 
ATOM     16  C   UNL     1       1.103   2.797  21.226  0.00  0.00    +0.000 A 
ATOM     17  C   UNL     1       1.029   2.615  19.845  0.00  0.00    +0.000 A 
ATOM     18  C   UNL     1       1.910   3.282  18.980  0.00  0.00    +0.000 A 
ATOM     19  C   UNL     1       1.806   3.003  17.501  0.00  0.00    +0.000 C 
ENDBRANCH   9  13
BRANCH   1  20
ATOM     20  C   UNL     1       7.094   4.785  17.116  0.00  0.00    +0.000 C 
BRANCH  20  22
ATOM     21  C   UNL     1       8.012   5.998  19.140  0.00  0.00    +0.000 C 
ATOM     22  C   UNL     1       8.079   4.734  18.288  0.00  0.00    +0.000 C 
ENDBRANCH  20  22
ENDBRANCH   1  20
TORSDOF 3
ENDMDL
MODEL 7
REMARK VINA RESULT:      -7.0      2.063      5.865
REMARK  Name = 
REMARK  5 active torsions:
REMARK  status: ('A' for Active; 'I' for Inactive)
REMARK    1  A    between atoms: C_1  and  C_2
REMARK    2  A    between atoms: C_2  and  C_3
REMARK    3  A    between atoms: C_3  and  N_4
REMARK    4  A    between atoms: N_12  and  C_13
REMARK    5  A    between atoms: C_18  and  C_19
REMARK                            x       y       z     vdW  Elec       q    Type
REMARK                         _______ _______ _______ _____ _____    ______ ____
ROOT
ATOM      1  N   UNL     1       2.643   3.855  19.143  0.00  0.00    +0.000 N 
ATOM      2  C   UNL     1       2.028   5.081  19.465  0.00  0.00    +0.000 A 
ATOM      3  O   UNL     1       1.097   5.187  20.248  0.00  0.00    +0.000 OA
ATOM      4  C   UNL     1       2.596   6.215  18.751  0.00  0.00    +0.000 A 
ATOM      5  N   UNL     1       2.240   7.543  18.816  0.00  0.00    +0.000 NA
ATOM      6  C   UNL     1       3.021   8.148  17.944  0.00  0.00    +0.000 A 
ATOM      7  N   UNL     1       3.860   7.264  17.317  0.00  0.00    +0.000 N 
ATOM      8  C   UNL     1       3.599   6.028  17.840  0.00  0.00    +0.000 A 
ATOM      9  N   UNL     1       4.137   4.803  17.515  0.00  0.00    +0.000 N 
ATOM     10  C   UNL     1       3.678   3.665  18.202  0.00  0.00    +0.000 A 
ATOM     11  O   UNL     1       4.153   2.547  18.015  0.00  0.00    +0.000 OA
ATOM     12  H   UNL     1       4.531   7.491  16.595  0.00  0.00    +0.000 HD
ENDROOT
BRANCH   9  13
ATOM     13  C   UNL     1       5.162   4.710  16.540  0.00  0.00    +0.000 A 
ATOM     14  C   UNL     1       4.804   4.463  15.202  0.00  0.00    +0.000 A 
ATOM     15  C   UNL     1       5.770   4.454  14.197  0.00  0.00    +0.000 A 
ATOM     16  C   UNL     1       7.103   4.684  14.519  0.00  0.00    +0.000 A 
ATOM     17  C   UNL     1       7.474   4.925  15.841  0.00  0.00    +0.000 A 
ATOM     18  C   UNL     1       6.516   4.937  16.869  0.00  0.00    +0.000 A 
ATOM     19  C   UNL     1       6.992   5.156  18.284  0.00  0.00    +0.000 C 
ENDBRANCH   9  13
BRANCH   1  20
ATOM     20  C   UNL     1       2.137   2.647  19.799  0.00  0.00    +0.000 C 
BRANCH  20  22
ATOM     21  C   UNL     1       1.396   2.487  22.214  0.00  0.00    +0.000 C 
ATOM     22  C   UNL     1       2.584   2.507  21.257  0.00  0.00    +0.000 C 
ENDBRANCH  20  22
ENDBRANCH   1  20
TORSDOF 3
ENDMDL
MODEL 8
REMARK VINA RESULT:      -7.0      2.607      5.815
REMARK  Name = 
REMARK  5 active torsions:
REMARK  status: ('A' for Active; 'I' for Inactive)
REMARK    1  A    between atoms: C_1  and  C_2
REMARK    2  A    between atoms: C_2  and  C_3
REMARK    3  A    between atoms: C_3  and  N_4
REMARK    4  A    between atoms: N_12  and  C_13
REMARK    5  A    between atoms: C_18  and  C_19
REMARK                            x       y       z     vdW  Elec       q    Type
REMARK                         _______ _______ _______ _____ _____    ______ ____
ROOT
ATOM      1  N   UNL     1       2.574   7.427  19.013  0.00  0.00    +0.000 N 
ATOM      2  C   UNL     1       1.974   6.713  20.069  0.00  0.00    +0.000 A 
ATOM      3  O   UNL     1       1.163   7.199  20.841  0.00  0.00    +0.000 OA
ATOM      4  C   UNL     1       2.436   5.336  20.169  0.00  0.00    +0.000 A 
ATOM      5  N   UNL     1       2.071   4.366  21.074  0.00  0.00    +0.000 NA
ATOM      6  C   UNL     1       2.809   3.319  20.767  0.00  0.00    +0.000 A 
ATOM      7  N   UNL     1       3.637   3.576  19.706  0.00  0.00    +0.000 N 
ATOM      8  C   UNL     1       3.392   4.862  19.313  0.00  0.00    +0.000 A 
ATOM      9  N   UNL     1       3.993   5.610  18.325  0.00  0.00    +0.000 N 
ATOM     10  C   UNL     1       3.561   6.935  18.131  0.00  0.00    +0.000 A 
ATOM     11  O   UNL     1       4.002   7.646  17.230  0.00  0.00    +0.000 OA
ATOM     12  H   UNL     1       4.309   2.934  19.306  0.00  0.00    +0.000 HD
ENDROOT
BRANCH   9  13
ATOM     13  C   UNL     1       4.991   5.034  17.500  0.00  0.00    +0.000 A 
ATOM     14  C   UNL     1       4.613   4.483  16.262  0.00  0.00    +0.000 A 
ATOM     15  C   UNL     1       5.573   3.989  15.381  0.00  0.00    +0.000 A 
ATOM     16  C   UNL     1       6.919   4.035  15.729  0.00  0.00    +0.000 A 
ATOM     17  C   UNL     1       7.308   4.573  16.955  0.00  0.00    +0.000 A 
ATOM     18  C   UNL     1       6.357   5.075  17.858  0.00  0.00    +0.000 A 
ATOM     19  C   UNL     1       6.843   5.599  19.187  0.00  0.00    +0.000 C 
ENDBRANCH   9  13
BRANCH   1  20
ATOM     20  C   UNL     1       2.187   8.828  18.833  0.00  0.00    +0.000 C 
BRANCH  20  22
ATOM     21  C   UNL     1      -0.017   9.981  18.366  0.00  0.00    +0.000 C 
ATOM     22  C   UNL     1       1.045   9.025  17.831  0.00  0.00    +0.000 C 
ENDBRANCH  20  22
ENDBRANCH   1  20
TORSDOF 3
ENDMDL
MODEL 9
REMARK VINA RESULT:      -7.0      2.136      5.943
REMARK  Name = 
REMARK  5 active torsions:
REMARK  status: ('A' for Active; 'I' for Inactive)
REMARK    1  A    between atoms: C_1  and  C_2
REMARK    2  A    between atoms: C_2  and  C_3
REMARK    3  A    between atoms: C_3  and  N_4
REMARK    4  A    between atoms: N_12  and  C_13
REMARK    5  A    between atoms: C_18  and  C_19
REMARK                            x       y       z     vdW  Elec       q    Type
REMARK                         _______ _______ _______ _____ _____    ______ ____
ROOT
ATOM      1  N   UNL     1       2.643   6.103  19.279  0.00  0.00    +0.000 N 
ATOM      2  C   UNL     1       2.478   5.080  20.234  0.00  0.00    +0.000 A 
ATOM      3  O   UNL     1       1.720   5.160  21.188  0.00  0.00    +0.000 OA
ATOM      4  C   UNL     1       3.324   3.921  19.988  0.00  0.00    +0.000 A 
ATOM      5  N   UNL     1       3.424   2.756  20.714  0.00  0.00    +0.000 NA
ATOM      6  C   UNL     1       4.360   2.056  20.105  0.00  0.00    +0.000 A 
ATOM      7  N   UNL     1       4.868   2.724  19.022  0.00  0.00    +0.000 N 
ATOM      8  C   UNL     1       4.198   3.912  18.936  0.00  0.00    +0.000 A 
ATOM      9  N   UNL     1       4.367   4.956  18.055  0.00  0.00    +0.000 N 
ATOM     10  C   UNL     1       3.548   6.091  18.195  0.00  0.00    +0.000 A 
ATOM     11  O   UNL     1       3.593   7.036  17.410  0.00  0.00    +0.000 OA
ATOM     12  H   UNL     1       5.609   2.396  18.415  0.00  0.00    +0.000 HD
ENDROOT
BRANCH   9  13
ATOM     13  C   UNL     1       5.317   4.860  17.007  0.00  0.00    +0.000 A 
ATOM     14  C   UNL     1       4.920   4.291  15.783  0.00  0.00    +0.000 A 
ATOM     15  C   UNL     1       5.794   4.260  14.697  0.00  0.00    +0.000 A 
ATOM     16  C   UNL     1       7.073   4.790  14.825  0.00  0.00    +0.000 A 
ATOM     17  C   UNL     1       7.482   5.352  16.034  0.00  0.00    +0.000 A 
ATOM     18  C   UNL     1       6.618   5.392  17.140  0.00  0.00    +0.000 A 
ATOM     19  C   UNL     1       7.141   5.970  18.432  0.00  0.00    +0.000 C 
ENDBRANCH   9  13
BRANCH   1  20
ATOM     20  C   UNL     1       1.847   7.321  19.442  0.00  0.00    +0.000 C 
BRANCH  20  22
ATOM     21  C   UNL     1       0.550   8.535  21.245  0.00  0.00    +0.000 C 
ATOM     22  C   UNL     1       1.879   7.890  20.864  0.00  0.00    +0.000 C 
ENDBRANCH  20  22
ENDBRANCH   1  20
TORSDOF 3
ENDMDL
